MODEL 1
REMARK VINA RESULT:      -9.2      0.000      0.000
REMARK  Name = 
REMARK  5 active torsions:
REMARK  status: ('A' for Active; 'I' for Inactive)
REMARK    1  A    between atoms: C_5  and  C_7
REMARK    2  A    between atoms: C_10  and  C_11
REMARK    3  A    between atoms: C_15  and  C_17
REMARK    4  A    between atoms: C_21  and  C_22
REMARK    5  A    between atoms: C_30  and  C_31
REMARK                            x       y       z     vdW  Elec       q    Type
REMARK                         _______ _______ _______ _____ _____    ______ ____
ROOT
ATOM      1  C   UNL     1      -2.745  11.095  18.111  0.00  0.00    +0.000 A 
ATOM      2  C   UNL     1      -1.867  10.199  17.525  0.00  0.00    +0.000 A 
ATOM      3  C   UNL     1      -0.589  10.033  18.060  0.00  0.00    +0.000 A 
ATOM      4  C   UNL     1      -0.125  10.734  19.196  0.00  0.00    +0.000 A 
ATOM      5  C   UNL     1      -1.053  11.596  19.838  0.00  0.00    +0.000 A 
ATOM      6  C   UNL     1      -2.342  11.773  19.263  0.00  0.00    +0.000 A 
ENDROOT
BRANCH   1  11
ATOM      7  N   UNL     1      -6.391  13.956  18.226  0.00  0.00    +0.000 NA
ATOM      8  C   UNL     1      -6.025  12.852  17.684  0.00  0.00    +0.000 C 
ATOM      9  N   UNL     1      -6.768  12.167  16.798  0.00  0.00    +0.000 N 
ATOM     10  N   UNL     1      -4.804  12.402  18.075  0.00  0.00    +0.000 N 
ATOM     11  C   UNL     1      -4.124  11.294  17.594  0.00  0.00    +0.000 C 
ATOM     12  O   UNL     1      -4.589  10.493  16.787  0.00  0.00    +0.000 OA
ATOM     13  H   UNL     1      -7.330  14.181  17.887  0.00  0.00    +0.000 HD
ATOM     14  H   UNL     1      -7.372  12.691  16.186  0.00  0.00    +0.000 HD
ATOM     15  H   UNL     1      -6.260  11.416  16.323  0.00  0.00    +0.000 HD
ATOM     16  H   UNL     1      -4.391  12.995  18.777  0.00  0.00    +0.000 HD
ENDBRANCH   1  11
BRANCH   4  17
ATOM     17  C   UNL     1       1.321  10.520  19.670  0.00  0.00    +0.000 C 
ATOM     18  C   UNL     1       2.241   9.798  18.676  0.00  0.00    +0.000 C 
ATOM     19  C   UNL     1       2.050   8.294  18.634  0.00  0.00    +0.000 C 
ATOM     20  N   UNL     1       1.914   7.620  19.930  0.00  0.00    +0.000 N 
ATOM     21  C   UNL     1       2.048   6.217  20.089  0.00  0.00    +0.000 C 
ATOM     22  O   UNL     1       1.941   5.660  21.181  0.00  0.00    +0.000 OA
ATOM     23  C   UNL     1       1.241   8.330  21.024  0.00  0.00    +0.000 C 
ATOM     24  C   UNL     1       1.462   9.842  21.039  0.00  0.00    +0.000 C 
BRANCH  21  25
ATOM     25  C   UNL     1       2.345   5.355  18.905  0.00  0.00    +0.000 A 
ATOM     26  C   UNL     1       1.420   4.398  18.486  0.00  0.00    +0.000 A 
ATOM     27  C   UNL     1       1.748   3.530  17.440  0.00  0.00    +0.000 A 
ATOM     28  C   UNL     1       3.020   3.580  16.850  0.00  0.00    +0.000 A 
ATOM     29  C   UNL     1       3.946   4.550  17.245  0.00  0.00    +0.000 A 
ATOM     30  C   UNL     1       3.541   5.493  18.196  0.00  0.00    +0.000 A 
BRANCH  29  31
ATOM     31  C   UNL     1       5.322   4.551  16.768  0.00  0.00    +0.000 A 
ATOM     32  C   UNL     1       6.574   4.715  17.320  0.00  0.00    +0.000 A 
ATOM     33  N   UNL     1       7.538   4.702  16.340  0.00  0.00    +0.000 NA
ATOM     34  C   UNL     1       6.848   4.540  15.235  0.00  0.00    +0.000 A 
ATOM     35  O   UNL     1       5.503   4.443  15.406  0.00  0.00    +0.000 OA
ENDBRANCH  29  31
ENDBRANCH  21  25
ENDBRANCH   4  17
BRANCH   5  36
ATOM     36  C   UNL     1      -0.853  12.356  21.142  0.00  0.00    +0.000 C 
ATOM     37  F   UNL     1      -0.839  11.623  22.283  0.00  0.00    +0.000 F 
ATOM     38  F   UNL     1       0.314  13.062  21.144  0.00  0.00    +0.000 F 
ATOM     39  F   UNL     1      -1.839  13.283  21.329  0.00  0.00    +0.000 F 
ENDBRANCH   5  36
TORSDOF 5
ENDMDL
MODEL 2
REMARK VINA RESULT:      -8.5      1.184      1.403
REMARK  Name = 
REMARK  5 active torsions:
REMARK  status: ('A' for Active; 'I' for Inactive)
REMARK    1  A    between atoms: C_5  and  C_7
REMARK    2  A    between atoms: C_10  and  C_11
REMARK    3  A    between atoms: C_15  and  C_17
REMARK    4  A    between atoms: C_21  and  C_22
REMARK    5  A    between atoms: C_30  and  C_31
REMARK                            x       y       z     vdW  Elec       q    Type
REMARK                         _______ _______ _______ _____ _____    ______ ____
ROOT
ATOM      1  C   UNL     1      -2.586  11.241  17.985  0.00  0.00    +0.000 A 
ATOM      2  C   UNL     1      -2.171  10.015  18.479  0.00  0.00    +0.000 A 
ATOM      3  C   UNL     1      -0.891   9.885  19.020  0.00  0.00    +0.000 A 
ATOM      4  C   UNL     1       0.029  10.954  19.105  0.00  0.00    +0.000 A 
ATOM      5  C   UNL     1      -0.426  12.226  18.666  0.00  0.00    +0.000 A 
ATOM      6  C   UNL     1      -1.724  12.334  18.093  0.00  0.00    +0.000 A 
ENDROOT
BRANCH   1  11
ATOM      7  N   UNL     1      -6.605  13.459  18.631  0.00  0.00    +0.000 NA
ATOM      8  C   UNL     1      -6.052  12.648  17.804  0.00  0.00    +0.000 C 
ATOM      9  N   UNL     1      -6.634  12.214  16.673  0.00  0.00    +0.000 N 
ATOM     10  N   UNL     1      -4.805  12.238  18.155  0.00  0.00    +0.000 N 
ATOM     11  C   UNL     1      -3.945  11.439  17.418  0.00  0.00    +0.000 C 
ATOM     12  O   UNL     1      -4.241  10.902  16.353  0.00  0.00    +0.000 OA
ATOM     13  H   UNL     1      -7.544  13.674  18.286  0.00  0.00    +0.000 HD
ATOM     14  H   UNL     1      -7.269  12.838  16.203  0.00  0.00    +0.000 HD
ATOM     15  H   UNL     1      -5.996  11.727  16.039  0.00  0.00    +0.000 HD
ATOM     16  H   UNL     1      -4.524  12.608  19.049  0.00  0.00    +0.000 HD
ENDBRANCH   1  11
BRANCH   4  17
ATOM     17  C   UNL     1       1.435  10.690  19.666  0.00  0.00    +0.000 C 
ATOM     18  C   UNL     1       2.394   9.952  18.721  0.00  0.00    +0.000 C 
ATOM     19  C   UNL     1       2.161   8.456  18.645  0.00  0.00    +0.000 C 
ATOM     20  N   UNL     1       1.923   7.769  19.920  0.00  0.00    +0.000 N 
ATOM     21  C   UNL     1       2.005   6.362  20.066  0.00  0.00    +0.000 C 
ATOM     22  O   UNL     1       1.812   5.794  21.141  0.00  0.00    +0.000 OA
ATOM     23  C   UNL     1       1.204   8.486  20.979  0.00  0.00    +0.000 C 
ATOM     24  C   UNL     1       1.468   9.990  21.031  0.00  0.00    +0.000 C 
BRANCH  21  25
ATOM     25  C   UNL     1       2.350   5.506  18.891  0.00  0.00    +0.000 A 
ATOM     26  C   UNL     1       1.414   4.606  18.380  0.00  0.00    +0.000 A 
ATOM     27  C   UNL     1       1.779   3.741  17.344  0.00  0.00    +0.000 A 
ATOM     28  C   UNL     1       3.094   3.735  16.857  0.00  0.00    +0.000 A 
ATOM     29  C   UNL     1       4.034   4.647  17.344  0.00  0.00    +0.000 A 
ATOM     30  C   UNL     1       3.604   5.594  18.280  0.00  0.00    +0.000 A 
BRANCH  29  31
ATOM     31  C   UNL     1       5.442   4.585  16.975  0.00  0.00    +0.000 A 
ATOM     32  C   UNL     1       6.169   4.283  15.844  0.00  0.00    +0.000 A 
ATOM     33  N   UNL     1       7.517   4.308  16.117  0.00  0.00    +0.000 NA
ATOM     34  C   UNL     1       7.564   4.612  17.393  0.00  0.00    +0.000 A 
ATOM     35  O   UNL     1       6.354   4.793  17.987  0.00  0.00    +0.000 OA
ENDBRANCH  29  31
ENDBRANCH  21  25
ENDBRANCH   4  17
BRANCH   5  36
ATOM     36  C   UNL     1       0.310  13.555  18.772  0.00  0.00    +0.000 C 
ATOM     37  F   UNL     1       0.708  13.937  20.011  0.00  0.00    +0.000 F 
ATOM     38  F   UNL     1       1.435  13.573  18.002  0.00  0.00    +0.000 F 
ATOM     39  F   UNL     1      -0.461  14.584  18.315  0.00  0.00    +0.000 F 
ENDBRANCH   5  36
TORSDOF 5
ENDMDL
MODEL 3
REMARK VINA RESULT:      -8.4      4.885      9.123
REMARK  Name = 
REMARK  5 active torsions:
REMARK  status: ('A' for Active; 'I' for Inactive)
REMARK    1  A    between atoms: C_5  and  C_7
REMARK    2  A    between atoms: C_10  and  C_11
REMARK    3  A    between atoms: C_15  and  C_17
REMARK    4  A    between atoms: C_21  and  C_22
REMARK    5  A    between atoms: C_30  and  C_31
REMARK                            x       y       z     vdW  Elec       q    Type
REMARK                         _______ _______ _______ _____ _____    ______ ____
ROOT
ATOM      1  C   UNL     1       3.178   7.338  18.183  0.00  0.00    +0.000 A 
ATOM      2  C   UNL     1       2.890   8.460  17.424  0.00  0.00    +0.000 A 
ATOM      3  C   UNL     1       1.898   9.346  17.848  0.00  0.00    +0.000 A 
ATOM      4  C   UNL     1       1.155   9.170  19.037  0.00  0.00    +0.000 A 
ATOM      5  C   UNL     1       1.504   8.059  19.850  0.00  0.00    +0.000 A 
ATOM      6  C   UNL     1       2.499   7.152  19.389  0.00  0.00    +0.000 A 
ENDROOT
BRANCH   1  11
ATOM      7  N   UNL     1       5.196   3.332  19.353  0.00  0.00    +0.000 NA
ATOM      8  C   UNL     1       5.266   4.241  18.450  0.00  0.00    +0.000 C 
ATOM      9  N   UNL     1       6.089   4.184  17.389  0.00  0.00    +0.000 N 
ATOM     10  N   UNL     1       4.436   5.299  18.640  0.00  0.00    +0.000 N 
ATOM     11  C   UNL     1       4.239   6.375  17.788  0.00  0.00    +0.000 C 
ATOM     12  O   UNL     1       4.877   6.567  16.756  0.00  0.00    +0.000 OA
ATOM     13  H   UNL     1       5.881   2.606  19.128  0.00  0.00    +0.000 HD
ATOM     14  H   UNL     1       6.306   3.277  17.010  0.00  0.00    +0.000 HD
ATOM     15  H   UNL     1       5.891   4.887  16.672  0.00  0.00    +0.000 HD
ATOM     16  H   UNL     1       3.918   5.222  19.500  0.00  0.00    +0.000 HD
ENDBRANCH   1  11
BRANCH   4  17
ATOM     17  C   UNL     1       0.044  10.173  19.382  0.00  0.00    +0.000 C 
ATOM     18  C   UNL     1      -0.002  11.434  18.507  0.00  0.00    +0.000 C 
ATOM     19  C   UNL     1       1.034  12.480  18.871  0.00  0.00    +0.000 C 
ATOM     20  N   UNL     1       1.215  12.745  20.303  0.00  0.00    +0.000 N 
ATOM     21  C   UNL     1       1.890  13.890  20.797  0.00  0.00    +0.000 C 
ATOM     22  O   UNL     1       2.030  14.110  22.000  0.00  0.00    +0.000 OA
ATOM     23  C   UNL     1       1.051  11.635  21.249  0.00  0.00    +0.000 C 
ATOM     24  C   UNL     1      -0.006  10.605  20.854  0.00  0.00    +0.000 C 
BRANCH  21  25
ATOM     25  C   UNL     1       2.455  14.894  19.846  0.00  0.00    +0.000 A 
ATOM     26  C   UNL     1       1.603  15.723  19.114  0.00  0.00    +0.000 A 
ATOM     27  C   UNL     1       2.136  16.591  18.156  0.00  0.00    +0.000 A 
ATOM     28  C   UNL     1       3.513  16.590  17.888  0.00  0.00    +0.000 A 
ATOM     29  C   UNL     1       4.379  15.782  18.631  0.00  0.00    +0.000 A 
ATOM     30  C   UNL     1       3.835  15.028  19.677  0.00  0.00    +0.000 A 
BRANCH  29  31
ATOM     31  C   UNL     1       5.789  15.639  18.295  0.00  0.00    +0.000 A 
ATOM     32  C   UNL     1       6.606  14.643  17.806  0.00  0.00    +0.000 A 
ATOM     33  N   UNL     1       7.914  15.067  17.772  0.00  0.00    +0.000 NA
ATOM     34  C   UNL     1       7.851  16.290  18.243  0.00  0.00    +0.000 A 
ATOM     35  O   UNL     1       6.604  16.711  18.586  0.00  0.00    +0.000 OA
ENDBRANCH  29  31
ENDBRANCH  21  25
ENDBRANCH   4  17
BRANCH   5  36
ATOM     36  C   UNL     1       0.958   7.720  21.230  0.00  0.00    +0.000 C 
ATOM     37  F   UNL     1      -0.379   7.858  21.410  0.00  0.00    +0.000 F 
ATOM     38  F   UNL     1       1.247   6.436  21.588  0.00  0.00    +0.000 F 
ATOM     39  F   UNL     1       1.527   8.503  22.193  0.00  0.00    +0.000 F 
ENDBRANCH   5  36
TORSDOF 5
ENDMDL
MODEL 4
REMARK VINA RESULT:      -8.3      1.249      1.505
REMARK  Name = 
REMARK  5 active torsions:
REMARK  status: ('A' for Active; 'I' for Inactive)
REMARK    1  A    between atoms: C_5  and  C_7
REMARK    2  A    between atoms: C_10  and  C_11
REMARK    3  A    between atoms: C_15  and  C_17
REMARK    4  A    between atoms: C_21  and  C_22
REMARK    5  A    between atoms: C_30  and  C_31
REMARK                            x       y       z     vdW  Elec       q    Type
REMARK                         _______ _______ _______ _____ _____    ______ ____
ROOT
ATOM      1  C   UNL     1      -2.625  11.208  18.070  0.00  0.00    +0.000 A 
ATOM      2  C   UNL     1      -2.200   9.991  18.575  0.00  0.00    +0.000 A 
ATOM      3  C   UNL     1      -0.901   9.862  19.069  0.00  0.00    +0.000 A 
ATOM      4  C   UNL     1       0.030  10.925  19.095  0.00  0.00    +0.000 A 
ATOM      5  C   UNL     1      -0.433  12.190  18.645  0.00  0.00    +0.000 A 
ATOM      6  C   UNL     1      -1.751  12.296  18.120  0.00  0.00    +0.000 A 
ENDROOT
BRANCH   1  11
ATOM      7  N   UNL     1      -7.068  11.559  19.343  0.00  0.00    +0.000 NA
ATOM      8  C   UNL     1      -6.343  11.594  18.284  0.00  0.00    +0.000 C 
ATOM      9  N   UNL     1      -6.822  11.845  17.054  0.00  0.00    +0.000 N 
ATOM     10  N   UNL     1      -5.023  11.348  18.489  0.00  0.00    +0.000 N 
ATOM     11  C   UNL     1      -4.003  11.405  17.551  0.00  0.00    +0.000 C 
ATOM     12  O   UNL     1      -4.176  11.603  16.351  0.00  0.00    +0.000 OA
ATOM     13  H   UNL     1      -8.040  11.724  19.069  0.00  0.00    +0.000 HD
ATOM     14  H   UNL     1      -7.612  12.463  16.974  0.00  0.00    +0.000 HD
ATOM     15  H   UNL     1      -6.096  12.021  16.355  0.00  0.00    +0.000 HD
ATOM     16  H   UNL     1      -4.824  11.130  19.452  0.00  0.00    +0.000 HD
ENDBRANCH   1  11
BRANCH   4  17
ATOM     17  C   UNL     1       1.454  10.662  19.607  0.00  0.00    +0.000 C 
ATOM     18  C   UNL     1       2.378   9.916  18.633  0.00  0.00    +0.000 C 
ATOM     19  C   UNL     1       2.140   8.420  18.575  0.00  0.00    +0.000 C 
ATOM     20  N   UNL     1       1.946   7.742  19.862  0.00  0.00    +0.000 N 
ATOM     21  C   UNL     1       2.031   6.335  20.014  0.00  0.00    +0.000 C 
ATOM     22  O   UNL     1       1.876   5.774  21.098  0.00  0.00    +0.000 OA
ATOM     23  C   UNL     1       1.266   8.467  20.942  0.00  0.00    +0.000 C 
ATOM     24  C   UNL     1       1.535   9.970  20.975  0.00  0.00    +0.000 C 
BRANCH  21  25
ATOM     25  C   UNL     1       2.333   5.471  18.833  0.00  0.00    +0.000 A 
ATOM     26  C   UNL     1       1.505   4.391  18.524  0.00  0.00    +0.000 A 
ATOM     27  C   UNL     1       1.850   3.532  17.476  0.00  0.00    +0.000 A 
ATOM     28  C   UNL     1       3.050   3.716  16.775  0.00  0.00    +0.000 A 
ATOM     29  C   UNL     1       3.876   4.808  17.059  0.00  0.00    +0.000 A 
ATOM     30  C   UNL     1       3.437   5.730  18.016  0.00  0.00    +0.000 A 
BRANCH  29  31
ATOM     31  C   UNL     1       5.196   4.961  16.460  0.00  0.00    +0.000 A 
ATOM     32  C   UNL     1       6.247   5.845  16.568  0.00  0.00    +0.000 A 
ATOM     33  N   UNL     1       7.235   5.529  15.665  0.00  0.00    +0.000 NA
ATOM     34  C   UNL     1       6.753   4.481  15.039  0.00  0.00    +0.000 A 
ATOM     35  O   UNL     1       5.525   4.075  15.458  0.00  0.00    +0.000 OA
ENDBRANCH  29  31
ENDBRANCH  21  25
ENDBRANCH   4  17
BRANCH   5  36
ATOM     36  C   UNL     1       0.317  13.515  18.692  0.00  0.00    +0.000 C 
ATOM     37  F   UNL     1       1.475  13.589  17.990  0.00  0.00    +0.000 F 
ATOM     38  F   UNL     1      -0.452  14.548  18.243  0.00  0.00    +0.000 F 
ATOM     39  F   UNL     1       0.658  13.844  19.972  0.00  0.00    +0.000 F 
ENDBRANCH   5  36
TORSDOF 5
ENDMDL
MODEL 5
REMARK VINA RESULT:      -8.2      5.163      9.780
REMARK  Name = 
REMARK  5 active torsions:
REMARK  status: ('A' for Active; 'I' for Inactive)
REMARK    1  A    between atoms: C_5  and  C_7
REMARK    2  A    between atoms: C_10  and  C_11
REMARK    3  A    between atoms: C_15  and  C_17
REMARK    4  A    between atoms: C_21  and  C_22
REMARK    5  A    between atoms: C_30  and  C_31
REMARK                            x       y       z     vdW  Elec       q    Type
REMARK                         _______ _______ _______ _____ _____    ______ ____
ROOT
ATOM      1  C   UNL     1      -2.332  10.693  17.359  0.00  0.00    +0.000 A 
ATOM      2  C   UNL     1      -2.629  11.567  18.392  0.00  0.00    +0.000 A 
ATOM      3  C   UNL     1      -1.744  11.700  19.462  0.00  0.00    +0.000 A 
ATOM      4  C   UNL     1      -0.528  10.986  19.558  0.00  0.00    +0.000 A 
ATOM      5  C   UNL     1      -0.191  10.148  18.462  0.00  0.00    +0.000 A 
ATOM      6  C   UNL     1      -1.118  10.004  17.393  0.00  0.00    +0.000 A 
ENDROOT
BRANCH   1  11
ATOM      7  N   UNL     1      -2.412   9.631  12.848  0.00  0.00    +0.000 NA
ATOM      8  C   UNL     1      -3.215   9.950  13.797  0.00  0.00    +0.000 C 
ATOM      9  N   UNL     1      -4.552  10.005  13.664  0.00  0.00    +0.000 N 
ATOM     10  N   UNL     1      -2.613  10.241  14.979  0.00  0.00    +0.000 N 
ATOM     11  C   UNL     1      -3.230  10.530  16.187  0.00  0.00    +0.000 C 
ATOM     12  O   UNL     1      -4.444  10.654  16.332  0.00  0.00    +0.000 OA
ATOM     13  H   UNL     1      -2.967   9.466  12.004  0.00  0.00    +0.000 HD
ATOM     14  H   UNL     1      -4.986   9.368  13.017  0.00  0.00    +0.000 HD
ATOM     15  H   UNL     1      -5.053  10.089  14.552  0.00  0.00    +0.000 HD
ATOM     16  H   UNL     1      -1.609  10.203  14.911  0.00  0.00    +0.000 HD
ENDBRANCH   1  11
BRANCH   4  17
ATOM     17  C   UNL     1       0.349  11.163  20.807  0.00  0.00    +0.000 C 
ATOM     18  C   UNL     1      -0.414  11.320  22.131  0.00  0.00    +0.000 C 
ATOM     19  C   UNL     1      -0.986  12.706  22.357  0.00  0.00    +0.000 C 
ATOM     20  N   UNL     1      -0.106  13.834  22.029  0.00  0.00    +0.000 N 
ATOM     21  C   UNL     1      -0.351  15.158  22.470  0.00  0.00    +0.000 C 
ATOM     22  O   UNL     1       0.396  16.098  22.199  0.00  0.00    +0.000 OA
ATOM     23  C   UNL     1       0.830  13.691  20.908  0.00  0.00    +0.000 C 
ATOM     24  C   UNL     1       1.393  12.284  20.715  0.00  0.00    +0.000 C 
BRANCH  21  25
ATOM     25  C   UNL     1      -1.550  15.457  23.310  0.00  0.00    +0.000 A 
ATOM     26  C   UNL     1      -1.392  15.914  24.620  0.00  0.00    +0.000 A 
ATOM     27  C   UNL     1      -2.518  16.097  25.429  0.00  0.00    +0.000 A 
ATOM     28  C   UNL     1      -3.795  15.769  24.951  0.00  0.00    +0.000 A 
ATOM     29  C   UNL     1      -3.968  15.334  23.635  0.00  0.00    +0.000 A 
ATOM     30  C   UNL     1      -2.843  15.294  22.804  0.00  0.00    +0.000 A 
BRANCH  29  31
ATOM     31  C   UNL     1      -5.249  14.846  23.139  0.00  0.00    +0.000 A 
ATOM     32  C   UNL     1      -6.163  15.229  22.182  0.00  0.00    +0.000 A 
ATOM     33  N   UNL     1      -7.268  14.410  22.217  0.00  0.00    +0.000 NA
ATOM     34  C   UNL     1      -6.995  13.572  23.189  0.00  0.00    +0.000 A 
ATOM     35  O   UNL     1      -5.796  13.769  23.800  0.00  0.00    +0.000 OA
ENDBRANCH  29  31
ENDBRANCH  21  25
ENDBRANCH   4  17
BRANCH   5  36
ATOM     36  C   UNL     1       1.108   9.381  18.255  0.00  0.00    +0.000 C 
ATOM     37  F   UNL     1       1.522   8.589  19.275  0.00  0.00    +0.000 F 
ATOM     38  F   UNL     1       1.048   8.569  17.160  0.00  0.00    +0.000 F 
ATOM     39  F   UNL     1       2.151  10.230  18.021  0.00  0.00    +0.000 F 
ENDBRANCH   5  36
TORSDOF 5
ENDMDL
MODEL 6
REMARK VINA RESULT:      -7.9      4.832      9.150
REMARK  Name = 
REMARK  5 active torsions:
REMARK  status: ('A' for Active; 'I' for Inactive)
REMARK    1  A    between atoms: C_5  and  C_7
REMARK    2  A    between atoms: C_10  and  C_11
REMARK    3  A    between atoms: C_15  and  C_17
REMARK    4  A    between atoms: C_21  and  C_22
REMARK    5  A    between atoms: C_30  and  C_31
REMARK                            x       y       z     vdW  Elec       q    Type
REMARK                         _______ _______ _______ _____ _____    ______ ____
ROOT
ATOM      1  C   UNL     1       3.447   7.029  18.348  0.00  0.00    +0.000 A 
ATOM      2  C   UNL     1       3.229   8.121  17.524  0.00  0.00    +0.000 A 
ATOM      3  C   UNL     1       2.221   9.034  17.838  0.00  0.00    +0.000 A 
ATOM      4  C   UNL     1       1.392   8.916  18.976  0.00  0.00    +0.000 A 
ATOM      5  C   UNL     1       1.667   7.836  19.858  0.00  0.00    +0.000 A 
ATOM      6  C   UNL     1       2.681   6.901  19.509  0.00  0.00    +0.000 A 
ENDROOT
BRANCH   1  11
ATOM      7  N   UNL     1       7.552   5.474  19.835  0.00  0.00    +0.000 NA
ATOM      8  C   UNL     1       6.692   5.247  18.910  0.00  0.00    +0.000 C 
ATOM      9  N   UNL     1       6.802   4.258  18.008  0.00  0.00    +0.000 N 
ATOM     10  N   UNL     1       5.634   6.098  18.896  0.00  0.00    +0.000 N 
ATOM     11  C   UNL     1       4.520   6.039  18.072  0.00  0.00    +0.000 C 
ATOM     12  O   UNL     1       4.381   5.236  17.153  0.00  0.00    +0.000 OA
ATOM     13  H   UNL     1       8.316   4.800  19.732  0.00  0.00    +0.000 HD
ATOM     14  H   UNL     1       7.261   3.409  18.295  0.00  0.00    +0.000 HD
ATOM     15  H   UNL     1       5.951   4.097  17.464  0.00  0.00    +0.000 HD
ATOM     16  H   UNL     1       5.715   6.814  19.600  0.00  0.00    +0.000 HD
ENDBRANCH   1  11
BRANCH   4  17
ATOM     17  C   UNL     1       0.273   9.944  19.199  0.00  0.00    +0.000 C 
ATOM     18  C   UNL     1       0.301  11.162  18.265  0.00  0.00    +0.000 C 
ATOM     19  C   UNL     1       1.322  12.215  18.649  0.00  0.00    +0.000 C 
ATOM     20  N   UNL     1       1.409  12.546  20.076  0.00  0.00    +0.000 N 
ATOM     21  C   UNL     1       2.063  13.707  20.560  0.00  0.00    +0.000 C 
ATOM     22  O   UNL     1       2.124  13.983  21.758  0.00  0.00    +0.000 OA
ATOM     23  C   UNL     1       1.169  11.484  21.059  0.00  0.00    +0.000 C 
ATOM     24  C   UNL     1       0.129  10.445  20.642  0.00  0.00    +0.000 C 
BRANCH  21  25
ATOM     25  C   UNL     1       2.702  14.661  19.604  0.00  0.00    +0.000 A 
ATOM     26  C   UNL     1       1.911  15.485  18.802  0.00  0.00    +0.000 A 
ATOM     27  C   UNL     1       2.516  16.302  17.841  0.00  0.00    +0.000 A 
ATOM     28  C   UNL     1       3.903  16.254  17.642  0.00  0.00    +0.000 A 
ATOM     29  C   UNL     1       4.708  15.451  18.455  0.00  0.00    +0.000 A 
ATOM     30  C   UNL     1       4.093  14.751  19.499  0.00  0.00    +0.000 A 
BRANCH  29  31
ATOM     31  C   UNL     1       6.129  15.258  18.195  0.00  0.00    +0.000 A 
ATOM     32  C   UNL     1       6.946  14.211  17.829  0.00  0.00    +0.000 A 
ATOM     33  N   UNL     1       8.263  14.610  17.817  0.00  0.00    +0.000 NA
ATOM     34  C   UNL     1       8.203  15.869  18.182  0.00  0.00    +0.000 A 
ATOM     35  O   UNL     1       6.951  16.337  18.432  0.00  0.00    +0.000 OA
ENDBRANCH  29  31
ENDBRANCH  21  25
ENDBRANCH   4  17
BRANCH   5  36
ATOM     36  C   UNL     1       1.018   7.562  21.208  0.00  0.00    +0.000 C 
ATOM     37  F   UNL     1       1.438   8.316  22.254  0.00  0.00    +0.000 F 
ATOM     38  F   UNL     1      -0.336   7.718  21.161  0.00  0.00    +0.000 F 
ATOM     39  F   UNL     1       1.222   6.270  21.600  0.00  0.00    +0.000 F 
ENDBRANCH   5  36
TORSDOF 5
ENDMDL
MODEL 7
REMARK VINA RESULT:      -7.9      4.844      9.025
REMARK  Name = 
REMARK  5 active torsions:
REMARK  status: ('A' for Active; 'I' for Inactive)
REMARK    1  A    between atoms: C_5  and  C_7
REMARK    2  A    between atoms: C_10  and  C_11
REMARK    3  A    between atoms: C_15  and  C_17
REMARK    4  A    between atoms: C_21  and  C_22
REMARK    5  A    between atoms: C_30  and  C_31
REMARK                            x       y       z     vdW  Elec       q    Type
REMARK                         _______ _______ _______ _____ _____    ______ ____
ROOT
ATOM      1  C   UNL     1       3.043   7.384  18.312  0.00  0.00    +0.000 A 
ATOM      2  C   UNL     1       2.794   8.494  17.523  0.00  0.00    +0.000 A 
ATOM      3  C   UNL     1       1.812   9.409  17.907  0.00  0.00    +0.000 A 
ATOM      4  C   UNL     1       1.043   9.275  19.085  0.00  0.00    +0.000 A 
ATOM      5  C   UNL     1       1.353   8.176  19.929  0.00  0.00    +0.000 A 
ATOM      6  C   UNL     1       2.338   7.239  19.509  0.00  0.00    +0.000 A 
ENDROOT
BRANCH   1  11
ATOM      7  N   UNL     1       5.938   6.058  14.943  0.00  0.00    +0.000 NA
ATOM      8  C   UNL     1       5.613   5.737  16.143  0.00  0.00    +0.000 C 
ATOM      9  N   UNL     1       6.215   4.765  16.850  0.00  0.00    +0.000 N 
ATOM     10  N   UNL     1       4.591   6.460  16.669  0.00  0.00    +0.000 N 
ATOM     11  C   UNL     1       4.092   6.391  17.961  0.00  0.00    +0.000 C 
ATOM     12  O   UNL     1       4.460   5.576  18.803  0.00  0.00    +0.000 OA
ATOM     13  H   UNL     1       6.689   5.433  14.639  0.00  0.00    +0.000 HD
ATOM     14  H   UNL     1       7.192   4.596  16.679  0.00  0.00    +0.000 HD
ATOM     15  H   UNL     1       5.968   4.762  17.843  0.00  0.00    +0.000 HD
ATOM     16  H   UNL     1       4.211   7.116  16.005  0.00  0.00    +0.000 HD
ENDBRANCH   1  11
BRANCH   4  17
ATOM     17  C   UNL     1      -0.053  10.309  19.385  0.00  0.00    +0.000 C 
ATOM     18  C   UNL     1      -0.050  11.554  18.488  0.00  0.00    +0.000 C 
ATOM     19  C   UNL     1       0.999  12.584  18.859  0.00  0.00    +0.000 C 
ATOM     20  N   UNL     1       1.151  12.871  20.290  0.00  0.00    +0.000 N 
ATOM     21  C   UNL     1       1.839  14.009  20.780  0.00  0.00    +0.000 C 
ATOM     22  O   UNL     1       1.955  14.248  21.982  0.00  0.00    +0.000 OA
ATOM     23  C   UNL     1       0.941  11.782  21.250  0.00  0.00    +0.000 C 
ATOM     24  C   UNL     1      -0.129  10.768  20.848  0.00  0.00    +0.000 C 
BRANCH  21  25
ATOM     25  C   UNL     1       2.449  14.984  19.826  0.00  0.00    +0.000 A 
ATOM     26  C   UNL     1       1.635  15.844  19.087  0.00  0.00    +0.000 A 
ATOM     27  C   UNL     1       2.208  16.684  18.126  0.00  0.00    +0.000 A 
ATOM     28  C   UNL     1       3.584  16.623  17.863  0.00  0.00    +0.000 A 
ATOM     29  C   UNL     1       4.412  15.783  18.612  0.00  0.00    +0.000 A 
ATOM     30  C   UNL     1       3.835  15.059  19.661  0.00  0.00    +0.000 A 
BRANCH  29  31
ATOM     31  C   UNL     1       5.817  15.579  18.282  0.00  0.00    +0.000 A 
ATOM     32  C   UNL     1       6.596  14.542  17.820  0.00  0.00    +0.000 A 
ATOM     33  N   UNL     1       7.919  14.915  17.776  0.00  0.00    +0.000 NA
ATOM     34  C   UNL     1       7.901  16.152  18.216  0.00  0.00    +0.000 A 
ATOM     35  O   UNL     1       6.671  16.628  18.546  0.00  0.00    +0.000 OA
ENDBRANCH  29  31
ENDBRANCH  21  25
ENDBRANCH   4  17
BRANCH   5  36
ATOM     36  C   UNL     1       0.773   7.880  21.305  0.00  0.00    +0.000 C 
ATOM     37  F   UNL     1      -0.564   8.052  21.457  0.00  0.00    +0.000 F 
ATOM     38  F   UNL     1       1.026   6.598  21.697  0.00  0.00    +0.000 F 
ATOM     39  F   UNL     1       1.342   8.671  22.262  0.00  0.00    +0.000 F 
ENDBRANCH   5  36
TORSDOF 5
ENDMDL
MODEL 8
REMARK VINA RESULT:      -7.8      4.660      9.010
REMARK  Name = 
REMARK  5 active torsions:
REMARK  status: ('A' for Active; 'I' for Inactive)
REMARK    1  A    between atoms: C_5  and  C_7
REMARK    2  A    between atoms: C_10  and  C_11
REMARK    3  A    between atoms: C_15  and  C_17
REMARK    4  A    between atoms: C_21  and  C_22
REMARK    5  A    between atoms: C_30  and  C_31
REMARK                            x       y       z     vdW  Elec       q    Type
REMARK                         _______ _______ _______ _____ _____    ______ ____
ROOT
ATOM      1  C   UNL     1       3.362   7.036  18.390  0.00  0.00    +0.000 A 
ATOM      2  C   UNL     1       3.130   8.098  17.532  0.00  0.00    +0.000 A 
ATOM      3  C   UNL     1       2.129   9.024  17.833  0.00  0.00    +0.000 A 
ATOM      4  C   UNL     1       1.323   8.948  18.991  0.00  0.00    +0.000 A 
ATOM      5  C   UNL     1       1.614   7.900  19.905  0.00  0.00    +0.000 A 
ATOM      6  C   UNL     1       2.620   6.951  19.569  0.00  0.00    +0.000 A 
ENDROOT
BRANCH   1  11
ATOM      7  N   UNL     1       7.386   6.370  16.187  0.00  0.00    +0.000 NA
ATOM      8  C   UNL     1       6.566   5.740  16.947  0.00  0.00    +0.000 C 
ATOM      9  N   UNL     1       6.773   4.495  17.407  0.00  0.00    +0.000 N 
ATOM     10  N   UNL     1       5.439   6.429  17.263  0.00  0.00    +0.000 N 
ATOM     11  C   UNL     1       4.429   6.035  18.127  0.00  0.00    +0.000 C 
ATOM     12  O   UNL     1       4.373   4.934  18.670  0.00  0.00    +0.000 OA
ATOM     13  H   UNL     1       8.176   5.751  15.988  0.00  0.00    +0.000 HD
ATOM     14  H   UNL     1       7.723   4.210  17.580  0.00  0.00    +0.000 HD
ATOM     15  H   UNL     1       6.122   4.212  18.144  0.00  0.00    +0.000 HD
ATOM     16  H   UNL     1       5.404   7.326  16.806  0.00  0.00    +0.000 HD
ENDBRANCH   1  11
BRANCH   4  17
ATOM     17  C   UNL     1       0.210   9.986  19.198  0.00  0.00    +0.000 C 
ATOM     18  C   UNL     1       0.273  11.214  18.279  0.00  0.00    +0.000 C 
ATOM     19  C   UNL     1       1.296  12.252  18.699  0.00  0.00    +0.000 C 
ATOM     20  N   UNL     1       1.353  12.566  20.131  0.00  0.00    +0.000 N 
ATOM     21  C   UNL     1       2.008  13.714  20.644  0.00  0.00    +0.000 C 
ATOM     22  O   UNL     1       2.044  13.976  21.845  0.00  0.00    +0.000 OA
ATOM     23  C   UNL     1       1.079  11.496  21.096  0.00  0.00    +0.000 C 
ATOM     24  C   UNL     1       0.038  10.473  20.644  0.00  0.00    +0.000 C 
BRANCH  21  25
ATOM     25  C   UNL     1       2.680  14.671  19.713  0.00  0.00    +0.000 A 
ATOM     26  C   UNL     1       1.917  15.536  18.926  0.00  0.00    +0.000 A 
ATOM     27  C   UNL     1       2.550  16.357  17.988  0.00  0.00    +0.000 A 
ATOM     28  C   UNL     1       3.937  16.275  17.796  0.00  0.00    +0.000 A 
ATOM     29  C   UNL     1       4.714  15.431  18.594  0.00  0.00    +0.000 A 
ATOM     30  C   UNL     1       4.073  14.724  19.618  0.00  0.00    +0.000 A 
BRANCH  29  31
ATOM     31  C   UNL     1       6.130  15.203  18.337  0.00  0.00    +0.000 A 
ATOM     32  C   UNL     1       7.302  15.912  18.491  0.00  0.00    +0.000 A 
ATOM     33  N   UNL     1       8.364  15.203  17.979  0.00  0.00    +0.000 NA
ATOM     34  C   UNL     1       7.807  14.103  17.529  0.00  0.00    +0.000 A 
ATOM     35  O   UNL     1       6.461  14.026  17.704  0.00  0.00    +0.000 OA
ENDBRANCH  29  31
ENDBRANCH  21  25
ENDBRANCH   4  17
BRANCH   5  36
ATOM     36  C   UNL     1       0.993   7.676  21.276  0.00  0.00    +0.000 C 
ATOM     37  F   UNL     1       1.417   8.482  22.281  0.00  0.00    +0.000 F 
ATOM     38  F   UNL     1      -0.364   7.809  21.245  0.00  0.00    +0.000 F 
ATOM     39  F   UNL     1       1.223   6.406  21.721  0.00  0.00    +0.000 F 
ENDBRANCH   5  36
TORSDOF 5
ENDMDL
MODEL 9
REMARK VINA RESULT:      -7.7      2.906     10.036
REMARK  Name = 
REMARK  5 active torsions:
REMARK  status: ('A' for Active; 'I' for Inactive)
REMARK    1  A    between atoms: C_5  and  C_7
REMARK    2  A    between atoms: C_10  and  C_11
REMARK    3  A    between atoms: C_15  and  C_17
REMARK    4  A    between atoms: C_21  and  C_22
REMARK    5  A    between atoms: C_30  and  C_31
REMARK                            x       y       z     vdW  Elec       q    Type
REMARK                         _______ _______ _______ _____ _____    ______ ____
ROOT
ATOM      1  C   UNL     1       1.799   8.067  19.352  0.00  0.00    +0.000 A 
ATOM      2  C   UNL     1       1.801   8.923  18.263  0.00  0.00    +0.000 A 
ATOM      3  C   UNL     1       1.225  10.189  18.376  0.00  0.00    +0.000 A 
ATOM      4  C   UNL     1       0.631  10.669  19.565  0.00  0.00    +0.000 A 
ATOM      5  C   UNL     1       0.696   9.818  20.701  0.00  0.00    +0.000 A 
ATOM      6  C   UNL     1       1.264   8.521  20.559  0.00  0.00    +0.000 A 
ENDROOT
BRANCH   1  11
ATOM      7  N   UNL     1       2.148   4.024  21.593  0.00  0.00    +0.000 NA
ATOM      8  C   UNL     1       2.560   4.591  20.517  0.00  0.00    +0.000 C 
ATOM      9  N   UNL     1       3.303   3.976  19.581  0.00  0.00    +0.000 N 
ATOM     10  N   UNL     1       2.191   5.891  20.380  0.00  0.00    +0.000 N 
ATOM     11  C   UNL     1       2.418   6.718  19.291  0.00  0.00    +0.000 C 
ATOM     12  O   UNL     1       3.084   6.401  18.308  0.00  0.00    +0.000 OA
ATOM     13  H   UNL     1       2.509   3.067  21.606  0.00  0.00    +0.000 HD
ATOM     14  H   UNL     1       3.161   2.989  19.442  0.00  0.00    +0.000 HD
ATOM     15  H   UNL     1       3.387   4.502  18.707  0.00  0.00    +0.000 HD
ATOM     16  H   UNL     1       1.680   6.225  21.182  0.00  0.00    +0.000 HD
ENDBRANCH   1  11
BRANCH   4  17
ATOM     17  C   UNL     1      -0.028  12.057  19.567  0.00  0.00    +0.000 C 
ATOM     18  C   UNL     1      -1.222  12.219  20.518  0.00  0.00    +0.000 C 
ATOM     19  C   UNL     1      -2.516  11.624  19.997  0.00  0.00    +0.000 C 
ATOM     20  N   UNL     1      -2.828  11.881  18.586  0.00  0.00    +0.000 N 
ATOM     21  C   UNL     1      -4.117  11.680  18.032  0.00  0.00    +0.000 C 
ATOM     22  O   UNL     1      -4.374  11.907  16.850  0.00  0.00    +0.000 OA
ATOM     23  C   UNL     1      -1.721  11.971  17.627  0.00  0.00    +0.000 C 
ATOM     24  C   UNL     1      -0.437  12.583  18.184  0.00  0.00    +0.000 C 
BRANCH  21  25
ATOM     25  C   UNL     1      -5.234  11.187  18.894  0.00  0.00    +0.000 A 
ATOM     26  C   UNL     1      -5.940  10.037  18.537  0.00  0.00    +0.000 A 
ATOM     27  C   UNL     1      -7.045   9.640  19.296  0.00  0.00    +0.000 A 
ATOM     28  C   UNL     1      -7.480  10.421  20.376  0.00  0.00    +0.000 A 
ATOM     29  C   UNL     1      -6.768  11.561  20.758  0.00  0.00    +0.000 A 
ATOM     30  C   UNL     1      -5.587  11.858  20.068  0.00  0.00    +0.000 A 
BRANCH  29  31
ATOM     31  C   UNL     1      -7.259  12.481  21.776  0.00  0.00    +0.000 A 
ATOM     32  C   UNL     1      -7.565  13.822  21.851  0.00  0.00    +0.000 A 
ATOM     33  N   UNL     1      -7.914  14.165  23.136  0.00  0.00    +0.000 NA
ATOM     34  C   UNL     1      -7.802  13.035  23.795  0.00  0.00    +0.000 A 
ATOM     35  O   UNL     1      -7.408  11.970  23.047  0.00  0.00    +0.000 OA
ENDBRANCH  29  31
ENDBRANCH  21  25
ENDBRANCH   4  17
BRANCH   5  36
ATOM     36  C   UNL     1       0.257  10.144  22.122  0.00  0.00    +0.000 C 
ATOM     37  F   UNL     1       0.931   9.531  23.127  0.00  0.00    +0.000 F 
ATOM     38  F   UNL     1       0.340  11.480  22.384  0.00  0.00    +0.000 F 
ATOM     39  F   UNL     1      -1.053   9.815  22.322  0.00  0.00    +0.000 F 
ENDBRANCH   5  36
TORSDOF 5
ENDMDL
