MODEL 1
REMARK VINA RESULT:      -7.3      0.000      0.000
REMARK  Name = 
REMARK  6 active torsions:
REMARK  status: ('A' for Active; 'I' for Inactive)
REMARK    1  A    between atoms: C_1  and  O_2
REMARK    2  A    between atoms: O_2  and  C_3
REMARK    3  A    between atoms: C_7  and  N_8
REMARK    4  A    between atoms: C_15  and  C_16
REMARK    5  A    between atoms: N_18  and  C_19
REMARK    6  A    between atoms: C_19  and  C_20
REMARK                            x       y       z     vdW  Elec       q    Type
REMARK                         _______ _______ _______ _____ _____    ______ ____
ROOT
ATOM      1  N   UNL     1       3.183   8.006  18.177  0.00  0.00    +0.000 N 
ATOM      2  C   UNL     1       3.247   6.719  17.705  0.00  0.00    +0.000 C 
ATOM      3  O   UNL     1       2.278   5.968  17.612  0.00  0.00    +0.000 OA
ATOM      4  N   UNL     1       4.484   6.253  17.332  0.00  0.00    +0.000 N 
ATOM      5  C   UNL     1       5.768   6.925  17.284  0.00  0.00    +0.000 C 
ATOM      6  C   UNL     1       6.420   6.344  16.041  0.00  0.00    +0.000 C 
ATOM      7  C   UNL     1       5.940   4.898  16.011  0.00  0.00    +0.000 C 
ATOM      8  C   UNL     1       4.602   4.897  16.766  0.00  0.00    +0.000 C 
ATOM      9  H   UNL     1       3.964   8.609  17.987  0.00  0.00    +0.000 HD
ENDROOT
BRANCH   1  14
ATOM     10  C   UNL     1       0.539   8.970  20.607  0.00  0.00    +0.000 A 
ATOM     11  C   UNL     1      -0.236   9.844  19.844  0.00  0.00    +0.000 A 
ATOM     12  C   UNL     1       0.093  10.101  18.521  0.00  0.00    +0.000 A 
ATOM     13  C   UNL     1       1.211   9.488  17.952  0.00  0.00    +0.000 A 
ATOM     14  C   UNL     1       2.020   8.629  18.704  0.00  0.00    +0.000 A 
ATOM     15  C   UNL     1       1.664   8.359  20.035  0.00  0.00    +0.000 A 
BRANCH  10  17
ATOM     16  C   UNL     1      -0.202   9.979  22.629  0.00  0.00    +0.000 C 
ATOM     17  O   UNL     1       0.090   8.802  21.889  0.00  0.00    +0.000 OA
ENDBRANCH  10  17
ENDBRANCH   1  14
BRANCH   8  18
ATOM     18  C   UNL     1       4.563   3.792  17.855  0.00  0.00    +0.000 C 
ATOM     19  O   UNL     1       5.423   3.684  18.732  0.00  0.00    +0.000 OA
ATOM     20  N   UNL     1       3.544   2.879  17.729  0.00  0.00    +0.000 N 
ATOM     21  H   UNL     1       2.774   3.098  17.095  0.00  0.00    +0.000 HD
BRANCH  20  22
ATOM     22  C   UNL     1       3.394   1.784  18.653  0.00  0.00    +0.000 C 
BRANCH  22  23
ATOM     23  C   UNL     1       2.596   2.236  19.817  0.00  0.00    +0.000 A 
ATOM     24  C   UNL     1       1.250   2.480  19.999  0.00  0.00    +0.000 A 
ATOM     25  C   UNL     1       1.092   2.863  21.352  0.00  0.00    +0.000 A 
ATOM     26  C   UNL     1       2.350   2.834  21.907  0.00  0.00    +0.000 A 
ATOM     27  O   UNL     1       3.271   2.456  20.983  0.00  0.00    +0.000 OA
ENDBRANCH  22  23
ENDBRANCH  20  22
ENDBRANCH   8  18
TORSDOF 5
ENDMDL
MODEL 2
REMARK VINA RESULT:      -7.2      4.703      6.487
REMARK  Name = 
REMARK  6 active torsions:
REMARK  status: ('A' for Active; 'I' for Inactive)
REMARK    1  A    between atoms: C_1  and  O_2
REMARK    2  A    between atoms: O_2  and  C_3
REMARK    3  A    between atoms: C_7  and  N_8
REMARK    4  A    between atoms: C_15  and  C_16
REMARK    5  A    between atoms: N_18  and  C_19
REMARK    6  A    between atoms: C_19  and  C_20
REMARK                            x       y       z     vdW  Elec       q    Type
REMARK                         _______ _______ _______ _____ _____    ______ ____
ROOT
ATOM      1  N   UNL     1       8.765   8.564  18.969  0.00  0.00    +0.000 N 
ATOM      2  C   UNL     1       7.879   8.128  18.015  0.00  0.00    +0.000 C 
ATOM      3  O   UNL     1       7.397   8.844  17.140  0.00  0.00    +0.000 OA
ATOM      4  N   UNL     1       7.509   6.805  18.067  0.00  0.00    +0.000 N 
ATOM      5  C   UNL     1       7.954   5.737  18.941  0.00  0.00    +0.000 C 
ATOM      6  C   UNL     1       7.985   4.527  18.024  0.00  0.00    +0.000 C 
ATOM      7  C   UNL     1       6.812   4.748  17.077  0.00  0.00    +0.000 C 
ATOM      8  C   UNL     1       6.604   6.270  17.034  0.00  0.00    +0.000 C 
ATOM      9  H   UNL     1       9.281   7.867  19.475  0.00  0.00    +0.000 HD
ENDROOT
BRANCH   1  14
ATOM     10  C   UNL     1      10.079  11.942  18.139  0.00  0.00    +0.000 A 
ATOM     11  C   UNL     1       9.998  12.584  19.376  0.00  0.00    +0.000 A 
ATOM     12  C   UNL     1       9.535  11.901  20.491  0.00  0.00    +0.000 A 
ATOM     13  C   UNL     1       9.139  10.568  20.375  0.00  0.00    +0.000 A 
ATOM     14  C   UNL     1       9.185   9.910  19.141  0.00  0.00    +0.000 A 
ATOM     15  C   UNL     1       9.676  10.604  18.023  0.00  0.00    +0.000 A 
BRANCH  10  17
ATOM     16  C   UNL     1      10.772  14.104  17.432  0.00  0.00    +0.000 C 
ATOM     17  O   UNL     1      10.564  12.731  17.132  0.00  0.00    +0.000 OA
ENDBRANCH  10  17
ENDBRANCH   1  14
BRANCH   8  18
ATOM     18  C   UNL     1       5.120   6.649  17.288  0.00  0.00    +0.000 C 
ATOM     19  O   UNL     1       4.510   7.468  16.597  0.00  0.00    +0.000 OA
ATOM     20  N   UNL     1       4.548   6.072  18.395  0.00  0.00    +0.000 N 
ATOM     21  H   UNL     1       5.032   5.288  18.838  0.00  0.00    +0.000 HD
BRANCH  20  22
ATOM     22  C   UNL     1       3.184   6.348  18.770  0.00  0.00    +0.000 C 
BRANCH  22  23
ATOM     23  C   UNL     1       2.410   5.084  18.749  0.00  0.00    +0.000 A 
ATOM     24  C   UNL     1       2.040   4.222  17.737  0.00  0.00    +0.000 A 
ATOM     25  C   UNL     1       1.329   3.165  18.352  0.00  0.00    +0.000 A 
ATOM     26  C   UNL     1       1.305   3.451  19.697  0.00  0.00    +0.000 A 
ATOM     27  O   UNL     1       1.958   4.616  19.949  0.00  0.00    +0.000 OA
ENDBRANCH  22  23
ENDBRANCH  20  22
ENDBRANCH   8  18
TORSDOF 5
ENDMDL
MODEL 3
REMARK VINA RESULT:      -7.2      4.629      6.050
REMARK  Name = 
REMARK  6 active torsions:
REMARK  status: ('A' for Active; 'I' for Inactive)
REMARK    1  A    between atoms: C_1  and  O_2
REMARK    2  A    between atoms: O_2  and  C_3
REMARK    3  A    between atoms: C_7  and  N_8
REMARK    4  A    between atoms: C_15  and  C_16
REMARK    5  A    between atoms: N_18  and  C_19
REMARK    6  A    between atoms: C_19  and  C_20
REMARK                            x       y       z     vdW  Elec       q    Type
REMARK                         _______ _______ _______ _____ _____    ______ ____
ROOT
ATOM      1  N   UNL     1       8.736   8.591  18.913  0.00  0.00    +0.000 N 
ATOM      2  C   UNL     1       7.882   8.104  17.954  0.00  0.00    +0.000 C 
ATOM      3  O   UNL     1       7.436   8.771  17.023  0.00  0.00    +0.000 OA
ATOM      4  N   UNL     1       7.504   6.788  18.069  0.00  0.00    +0.000 N 
ATOM      5  C   UNL     1       7.911   5.770  19.018  0.00  0.00    +0.000 C 
ATOM      6  C   UNL     1       7.968   4.509  18.173  0.00  0.00    +0.000 C 
ATOM      7  C   UNL     1       6.831   4.680  17.173  0.00  0.00    +0.000 C 
ATOM      8  C   UNL     1       6.634   6.198  17.037  0.00  0.00    +0.000 C 
ATOM      9  H   UNL     1       9.230   7.923  19.477  0.00  0.00    +0.000 HD
ENDROOT
BRANCH   1  14
ATOM     10  C   UNL     1       9.648  11.846  20.462  0.00  0.00    +0.000 A 
ATOM     11  C   UNL     1      10.017  12.594  19.342  0.00  0.00    +0.000 A 
ATOM     12  C   UNL     1       9.943  12.039  18.073  0.00  0.00    +0.000 A 
ATOM     13  C   UNL     1       9.506  10.723  17.914  0.00  0.00    +0.000 A 
ATOM     14  C   UNL     1       9.157   9.944  19.023  0.00  0.00    +0.000 A 
ATOM     15  C   UNL     1       9.215  10.522  20.301  0.00  0.00    +0.000 A 
BRANCH  10  17
ATOM     16  C   UNL     1       8.768  12.269  22.630  0.00  0.00    +0.000 C 
ATOM     17  O   UNL     1       9.760  12.523  21.646  0.00  0.00    +0.000 OA
ENDBRANCH  10  17
ENDBRANCH   1  14
BRANCH   8  18
ATOM     18  C   UNL     1       5.144   6.596  17.214  0.00  0.00    +0.000 C 
ATOM     19  O   UNL     1       4.550   7.337  16.428  0.00  0.00    +0.000 OA
ATOM     20  N   UNL     1       4.545   6.134  18.361  0.00  0.00    +0.000 N 
ATOM     21  H   UNL     1       5.019   5.401  18.893  0.00  0.00    +0.000 HD
BRANCH  20  22
ATOM     22  C   UNL     1       3.172   6.442  18.672  0.00  0.00    +0.000 C 
BRANCH  22  23
ATOM     23  C   UNL     1       2.387   5.186  18.700  0.00  0.00    +0.000 A 
ATOM     24  C   UNL     1       1.988   4.301  17.718  0.00  0.00    +0.000 A 
ATOM     25  C   UNL     1       1.281   3.267  18.375  0.00  0.00    +0.000 A 
ATOM     26  C   UNL     1       1.289   3.587  19.712  0.00  0.00    +0.000 A 
ATOM     27  O   UNL     1       1.957   4.752  19.921  0.00  0.00    +0.000 OA
ENDBRANCH  22  23
ENDBRANCH  20  22
ENDBRANCH   8  18
TORSDOF 5
ENDMDL
MODEL 4
REMARK VINA RESULT:      -7.1      1.049      1.735
REMARK  Name = 
REMARK  6 active torsions:
REMARK  status: ('A' for Active; 'I' for Inactive)
REMARK    1  A    between atoms: C_1  and  O_2
REMARK    2  A    between atoms: O_2  and  C_3
REMARK    3  A    between atoms: C_7  and  N_8
REMARK    4  A    between atoms: C_15  and  C_16
REMARK    5  A    between atoms: N_18  and  C_19
REMARK    6  A    between atoms: C_19  and  C_20
REMARK                            x       y       z     vdW  Elec       q    Type
REMARK                         _______ _______ _______ _____ _____    ______ ____
ROOT
ATOM      1  N   UNL     1       3.121   8.039  18.285  0.00  0.00    +0.000 N 
ATOM      2  C   UNL     1       3.174   6.765  17.775  0.00  0.00    +0.000 C 
ATOM      3  O   UNL     1       2.204   6.015  17.685  0.00  0.00    +0.000 OA
ATOM      4  N   UNL     1       4.401   6.313  17.355  0.00  0.00    +0.000 N 
ATOM      5  C   UNL     1       5.683   6.989  17.293  0.00  0.00    +0.000 C 
ATOM      6  C   UNL     1       6.302   6.446  16.017  0.00  0.00    +0.000 C 
ATOM      7  C   UNL     1       5.824   5.001  15.957  0.00  0.00    +0.000 C 
ATOM      8  C   UNL     1       4.506   4.975  16.747  0.00  0.00    +0.000 C 
ATOM      9  H   UNL     1       3.896   8.648  18.092  0.00  0.00    +0.000 HD
ENDROOT
BRANCH   1  14
ATOM     10  C   UNL     1      -0.008  10.029  18.556  0.00  0.00    +0.000 A 
ATOM     11  C   UNL     1      -0.342   9.841  19.899  0.00  0.00    +0.000 A 
ATOM     12  C   UNL     1       0.473   9.081  20.725  0.00  0.00    +0.000 A 
ATOM     13  C   UNL     1       1.629   8.492  20.210  0.00  0.00    +0.000 A 
ATOM     14  C   UNL     1       1.971   8.643  18.861  0.00  0.00    +0.000 A 
ATOM     15  C   UNL     1       1.151   9.432  18.040  0.00  0.00    +0.000 A 
BRANCH  10  17
ATOM     16  C   UNL     1      -2.105  10.195  17.448  0.00  0.00    +0.000 C 
ATOM     17  O   UNL     1      -0.895  10.809  17.865  0.00  0.00    +0.000 OA
ENDBRANCH  10  17
ENDBRANCH   1  14
BRANCH   8  18
ATOM     18  C   UNL     1       4.498   3.838  17.804  0.00  0.00    +0.000 C 
ATOM     19  O   UNL     1       5.392   3.693  18.640  0.00  0.00    +0.000 OA
ATOM     20  N   UNL     1       3.461   2.943  17.695  0.00  0.00    +0.000 N 
ATOM     21  H   UNL     1       2.667   3.191  17.101  0.00  0.00    +0.000 HD
BRANCH  20  22
ATOM     22  C   UNL     1       3.334   1.823  18.593  0.00  0.00    +0.000 C 
BRANCH  22  23
ATOM     23  C   UNL     1       2.565   2.242  19.788  0.00  0.00    +0.000 A 
ATOM     24  C   UNL     1       1.220   2.448  20.018  0.00  0.00    +0.000 A 
ATOM     25  C   UNL     1       1.098   2.813  21.379  0.00  0.00    +0.000 A 
ATOM     26  C   UNL     1       2.374   2.813  21.891  0.00  0.00    +0.000 A 
ATOM     27  O   UNL     1       3.274   2.468  20.932  0.00  0.00    +0.000 OA
ENDBRANCH  22  23
ENDBRANCH  20  22
ENDBRANCH   8  18
TORSDOF 5
ENDMDL
MODEL 5
REMARK VINA RESULT:      -7.1      2.096      4.692
REMARK  Name = 
REMARK  6 active torsions:
REMARK  status: ('A' for Active; 'I' for Inactive)
REMARK    1  A    between atoms: C_1  and  O_2
REMARK    2  A    between atoms: O_2  and  C_3
REMARK    3  A    between atoms: C_7  and  N_8
REMARK    4  A    between atoms: C_15  and  C_16
REMARK    5  A    between atoms: N_18  and  C_19
REMARK    6  A    between atoms: C_19  and  C_20
REMARK                            x       y       z     vdW  Elec       q    Type
REMARK                         _______ _______ _______ _____ _____    ______ ____
ROOT
ATOM      1  N   UNL     1       1.980   6.541  18.737  0.00  0.00    +0.000 N 
ATOM      2  C   UNL     1       3.034   5.742  19.105  0.00  0.00    +0.000 C 
ATOM      3  O   UNL     1       3.813   6.003  20.020  0.00  0.00    +0.000 OA
ATOM      4  N   UNL     1       3.221   4.588  18.384  0.00  0.00    +0.000 N 
ATOM      5  C   UNL     1       2.437   4.012  17.307  0.00  0.00    +0.000 C 
ATOM      6  C   UNL     1       2.516   2.520  17.579  0.00  0.00    +0.000 C 
ATOM      7  C   UNL     1       3.918   2.318  18.141  0.00  0.00    +0.000 C 
ATOM      8  C   UNL     1       4.303   3.665  18.771  0.00  0.00    +0.000 C 
ATOM      9  H   UNL     1       1.270   6.133  18.156  0.00  0.00    +0.000 HD
ENDROOT
BRANCH   1  14
ATOM     10  C   UNL     1       1.267   9.160  21.279  0.00  0.00    +0.000 A 
ATOM     11  C   UNL     1       1.148  10.298  20.481  0.00  0.00    +0.000 A 
ATOM     12  C   UNL     1       1.275  10.205  19.103  0.00  0.00    +0.000 A 
ATOM     13  C   UNL     1       1.535   8.967  18.511  0.00  0.00    +0.000 A 
ATOM     14  C   UNL     1       1.686   7.816  19.292  0.00  0.00    +0.000 A 
ATOM     15  C   UNL     1       1.533   7.918  20.683  0.00  0.00    +0.000 A 
BRANCH  10  17
ATOM     16  C   UNL     1      -0.208   9.699  23.065  0.00  0.00    +0.000 C 
ATOM     17  O   UNL     1       1.106   9.398  22.617  0.00  0.00    +0.000 OA
ENDBRANCH  10  17
ENDBRANCH   1  14
BRANCH   8  18
ATOM     18  C   UNL     1       5.697   4.144  18.284  0.00  0.00    +0.000 C 
ATOM     19  O   UNL     1       6.608   4.450  19.056  0.00  0.00    +0.000 OA
ATOM     20  N   UNL     1       5.826   4.288  16.924  0.00  0.00    +0.000 N 
ATOM     21  H   UNL     1       5.111   3.874  16.323  0.00  0.00    +0.000 HD
BRANCH  20  22
ATOM     22  C   UNL     1       7.056   4.745  16.327  0.00  0.00    +0.000 C 
BRANCH  22  23
ATOM     23  C   UNL     1       6.973   4.580  14.857  0.00  0.00    +0.000 A 
ATOM     24  C   UNL     1       6.166   3.816  14.038  0.00  0.00    +0.000 A 
ATOM     25  C   UNL     1       6.549   4.114  12.709  0.00  0.00    +0.000 A 
ATOM     26  C   UNL     1       7.567   5.033  12.801  0.00  0.00    +0.000 A 
ATOM     27  O   UNL     1       7.833   5.323  14.101  0.00  0.00    +0.000 OA
ENDBRANCH  22  23
ENDBRANCH  20  22
ENDBRANCH   8  18
TORSDOF 5
ENDMDL
MODEL 6
REMARK VINA RESULT:      -7.0      2.189      7.378
REMARK  Name = 
REMARK  6 active torsions:
REMARK  status: ('A' for Active; 'I' for Inactive)
REMARK    1  A    between atoms: C_1  and  O_2
REMARK    2  A    between atoms: O_2  and  C_3
REMARK    3  A    between atoms: C_7  and  N_8
REMARK    4  A    between atoms: C_15  and  C_16
REMARK    5  A    between atoms: N_18  and  C_19
REMARK    6  A    between atoms: C_19  and  C_20
REMARK                            x       y       z     vdW  Elec       q    Type
REMARK                         _______ _______ _______ _____ _____    ______ ____
ROOT
ATOM      1  N   UNL     1       4.614   3.434  17.141  0.00  0.00    +0.000 N 
ATOM      2  C   UNL     1       3.546   4.119  17.667  0.00  0.00    +0.000 C 
ATOM      3  O   UNL     1       3.249   5.273  17.365  0.00  0.00    +0.000 OA
ATOM      4  N   UNL     1       2.781   3.460  18.599  0.00  0.00    +0.000 N 
ATOM      5  C   UNL     1       2.866   2.100  19.095  0.00  0.00    +0.000 C 
ATOM      6  C   UNL     1       1.411   1.703  19.274  0.00  0.00    +0.000 C 
ATOM      7  C   UNL     1       0.727   2.990  19.720  0.00  0.00    +0.000 C 
ATOM      8  C   UNL     1       1.591   4.128  19.154  0.00  0.00    +0.000 C 
ATOM      9  H   UNL     1       4.629   2.437  17.261  0.00  0.00    +0.000 HD
ENDROOT
BRANCH   1  14
ATOM     10  C   UNL     1       6.440   4.115  13.975  0.00  0.00    +0.000 A 
ATOM     11  C   UNL     1       7.405   5.029  14.401  0.00  0.00    +0.000 A 
ATOM     12  C   UNL     1       7.475   5.406  15.734  0.00  0.00    +0.000 A 
ATOM     13  C   UNL     1       6.569   4.875  16.654  0.00  0.00    +0.000 A 
ATOM     14  C   UNL     1       5.575   3.977  16.247  0.00  0.00    +0.000 A 
ATOM     15  C   UNL     1       5.528   3.587  14.900  0.00  0.00    +0.000 A 
BRANCH  10  17
ATOM     16  C   UNL     1       5.375   3.162  12.074  0.00  0.00    +0.000 C 
ATOM     17  O   UNL     1       6.497   3.827  12.638  0.00  0.00    +0.000 OA
ENDBRANCH  10  17
ENDBRANCH   1  14
BRANCH   8  18
ATOM     18  C   UNL     1       1.948   5.169  20.249  0.00  0.00    +0.000 C 
ATOM     19  O   UNL     1       2.349   4.853  21.371  0.00  0.00    +0.000 OA
ATOM     20  N   UNL     1       1.707   6.479  19.912  0.00  0.00    +0.000 N 
ATOM     21  H   UNL     1       1.532   6.704  18.931  0.00  0.00    +0.000 HD
BRANCH  20  22
ATOM     22  C   UNL     1       1.969   7.555  20.835  0.00  0.00    +0.000 C 
BRANCH  22  23
ATOM     23  C   UNL     1       1.117   8.716  20.483  0.00  0.00    +0.000 A 
ATOM     24  C   UNL     1       0.182   9.447  21.188  0.00  0.00    +0.000 A 
ATOM     25  C   UNL     1      -0.275  10.460  20.313  0.00  0.00    +0.000 A 
ATOM     26  C   UNL     1       0.403  10.280  19.131  0.00  0.00    +0.000 A 
ATOM     27  O   UNL     1       1.250   9.222  19.222  0.00  0.00    +0.000 OA
ENDBRANCH  22  23
ENDBRANCH  20  22
ENDBRANCH   8  18
TORSDOF 5
ENDMDL
MODEL 7
REMARK VINA RESULT:      -6.9      3.602      6.990
REMARK  Name = 
REMARK  6 active torsions:
REMARK  status: ('A' for Active; 'I' for Inactive)
REMARK    1  A    between atoms: C_1  and  O_2
REMARK    2  A    between atoms: O_2  and  C_3
REMARK    3  A    between atoms: C_7  and  N_8
REMARK    4  A    between atoms: C_15  and  C_16
REMARK    5  A    between atoms: N_18  and  C_19
REMARK    6  A    between atoms: C_19  and  C_20
REMARK                            x       y       z     vdW  Elec       q    Type
REMARK                         _______ _______ _______ _____ _____    ______ ____
ROOT
ATOM      1  N   UNL     1       6.376   4.597  14.324  0.00  0.00    +0.000 N 
ATOM      2  C   UNL     1       6.008   4.278  15.608  0.00  0.00    +0.000 C 
ATOM      3  O   UNL     1       5.475   3.219  15.932  0.00  0.00    +0.000 OA
ATOM      4  N   UNL     1       6.246   5.223  16.576  0.00  0.00    +0.000 N 
ATOM      5  C   UNL     1       6.899   6.516  16.490  0.00  0.00    +0.000 C 
ATOM      6  C   UNL     1       7.658   6.610  17.803  0.00  0.00    +0.000 C 
ATOM      7  C   UNL     1       6.753   5.907  18.807  0.00  0.00    +0.000 C 
ATOM      8  C   UNL     1       5.922   4.913  17.980  0.00  0.00    +0.000 C 
ATOM      9  H   UNL     1       7.014   5.363  14.201  0.00  0.00    +0.000 HD
ENDROOT
BRANCH   1  14
ATOM     10  C   UNL     1       4.554   3.107  11.445  0.00  0.00    +0.000 A 
ATOM     11  C   UNL     1       5.538   2.288  10.886  0.00  0.00    +0.000 A 
ATOM     12  C   UNL     1       6.794   2.205  11.468  0.00  0.00    +0.000 A 
ATOM     13  C   UNL     1       7.081   2.949  12.614  0.00  0.00    +0.000 A 
ATOM     14  C   UNL     1       6.121   3.798  13.177  0.00  0.00    +0.000 A 
ATOM     15  C   UNL     1       4.846   3.858  12.593  0.00  0.00    +0.000 A 
BRANCH  10  17
ATOM     16  C   UNL     1       3.141   4.104   9.813  0.00  0.00    +0.000 C 
ATOM     17  O   UNL     1       3.362   3.082  10.775  0.00  0.00    +0.000 OA
ENDBRANCH  10  17
ENDBRANCH   1  14
BRANCH   8  18
ATOM     18  C   UNL     1       4.406   5.046  18.285  0.00  0.00    +0.000 C 
ATOM     19  O   UNL     1       3.905   6.067  18.760  0.00  0.00    +0.000 OA
ATOM     20  N   UNL     1       3.662   3.912  18.068  0.00  0.00    +0.000 N 
ATOM     21  H   UNL     1       4.083   3.152  17.529  0.00  0.00    +0.000 HD
BRANCH  20  22
ATOM     22  C   UNL     1       2.245   3.878  18.328  0.00  0.00    +0.000 C 
BRANCH  22  23
ATOM     23  C   UNL     1       2.016   3.405  19.713  0.00  0.00    +0.000 A 
ATOM     24  C   UNL     1       0.916   3.424  20.546  0.00  0.00    +0.000 A 
ATOM     25  C   UNL     1       1.312   2.791  21.747  0.00  0.00    +0.000 A 
ATOM     26  C   UNL     1       2.628   2.431  21.574  0.00  0.00    +0.000 A 
ATOM     27  O   UNL     1       3.066   2.800  20.342  0.00  0.00    +0.000 OA
ENDBRANCH  22  23
ENDBRANCH  20  22
ENDBRANCH   8  18
TORSDOF 5
ENDMDL
MODEL 8
REMARK VINA RESULT:      -6.9      3.866      6.979
REMARK  Name = 
REMARK  6 active torsions:
REMARK  status: ('A' for Active; 'I' for Inactive)
REMARK    1  A    between atoms: C_1  and  O_2
REMARK    2  A    between atoms: O_2  and  C_3
REMARK    3  A    between atoms: C_7  and  N_8
REMARK    4  A    between atoms: C_15  and  C_16
REMARK    5  A    between atoms: N_18  and  C_19
REMARK    6  A    between atoms: C_19  and  C_20
REMARK                            x       y       z     vdW  Elec       q    Type
REMARK                         _______ _______ _______ _____ _____    ______ ____
ROOT
ATOM      1  N   UNL     1       6.527   5.159  14.524  0.00  0.00    +0.000 N 
ATOM      2  C   UNL     1       6.720   4.734  15.815  0.00  0.00    +0.000 C 
ATOM      3  O   UNL     1       6.787   3.554  16.152  0.00  0.00    +0.000 OA
ATOM      4  N   UNL     1       6.828   5.706  16.781  0.00  0.00    +0.000 N 
ATOM      5  C   UNL     1       6.840   7.152  16.664  0.00  0.00    +0.000 C 
ATOM      6  C   UNL     1       7.846   7.578  17.719  0.00  0.00    +0.000 C 
ATOM      7  C   UNL     1       7.650   6.573  18.847  0.00  0.00    +0.000 C 
ATOM      8  C   UNL     1       7.092   5.309  18.175  0.00  0.00    +0.000 C 
ATOM      9  H   UNL     1       6.729   6.121  14.317  0.00  0.00    +0.000 HD
ENDROOT
BRANCH   1  14
ATOM     10  C   UNL     1       4.686   3.306  11.877  0.00  0.00    +0.000 A 
ATOM     11  C   UNL     1       5.733   2.684  11.194  0.00  0.00    +0.000 A 
ATOM     12  C   UNL     1       7.044   2.851  11.616  0.00  0.00    +0.000 A 
ATOM     13  C   UNL     1       7.320   3.653  12.724  0.00  0.00    +0.000 A 
ATOM     14  C   UNL     1       6.291   4.309  13.410  0.00  0.00    +0.000 A 
ATOM     15  C   UNL     1       4.967   4.115  12.987  0.00  0.00    +0.000 A 
BRANCH  10  17
ATOM     16  C   UNL     1       3.129   3.648  10.113  0.00  0.00    +0.000 C 
ATOM     17  O   UNL     1       3.448   3.043  11.358  0.00  0.00    +0.000 OA
ENDBRANCH  10  17
ENDBRANCH   1  14
BRANCH   8  18
ATOM     18  C   UNL     1       5.819   4.794  18.899  0.00  0.00    +0.000 C 
ATOM     19  O   UNL     1       5.024   5.542  19.472  0.00  0.00    +0.000 OA
ATOM     20  N   UNL     1       5.676   3.428  18.933  0.00  0.00    +0.000 N 
ATOM     21  H   UNL     1       6.262   2.864  18.316  0.00  0.00    +0.000 HD
BRANCH  20  22
ATOM     22  C   UNL     1       4.555   2.804  19.590  0.00  0.00    +0.000 C 
BRANCH  22  23
ATOM     23  C   UNL     1       3.305   3.204  18.903  0.00  0.00    +0.000 A 
ATOM     24  C   UNL     1       2.931   3.246  17.575  0.00  0.00    +0.000 A 
ATOM     25  C   UNL     1       1.588   3.691  17.551  0.00  0.00    +0.000 A 
ATOM     26  C   UNL     1       1.231   3.898  18.862  0.00  0.00    +0.000 A 
ATOM     27  O   UNL     1       2.266   3.606  19.692  0.00  0.00    +0.000 OA
ENDBRANCH  22  23
ENDBRANCH  20  22
ENDBRANCH   8  18
TORSDOF 5
ENDMDL
MODEL 9
REMARK VINA RESULT:      -6.9      3.714      6.851
REMARK  Name = 
REMARK  6 active torsions:
REMARK  status: ('A' for Active; 'I' for Inactive)
REMARK    1  A    between atoms: C_1  and  O_2
REMARK    2  A    between atoms: O_2  and  C_3
REMARK    3  A    between atoms: C_7  and  N_8
REMARK    4  A    between atoms: C_15  and  C_16
REMARK    5  A    between atoms: N_18  and  C_19
REMARK    6  A    between atoms: C_19  and  C_20
REMARK                            x       y       z     vdW  Elec       q    Type
REMARK                         _______ _______ _______ _____ _____    ______ ____
ROOT
ATOM      1  N   UNL     1       7.267   5.355  15.077  0.00  0.00    +0.000 N 
ATOM      2  C   UNL     1       6.714   4.765  16.186  0.00  0.00    +0.000 C 
ATOM      3  O   UNL     1       6.115   3.692  16.173  0.00  0.00    +0.000 OA
ATOM      4  N   UNL     1       6.837   5.440  17.377  0.00  0.00    +0.000 N 
ATOM      5  C   UNL     1       7.527   6.677  17.691  0.00  0.00    +0.000 C 
ATOM      6  C   UNL     1       8.095   6.415  19.076  0.00  0.00    +0.000 C 
ATOM      7  C   UNL     1       7.041   5.549  19.753  0.00  0.00    +0.000 C 
ATOM      8  C   UNL     1       6.311   4.827  18.609  0.00  0.00    +0.000 C 
ATOM      9  H   UNL     1       7.935   6.090  15.227  0.00  0.00    +0.000 HD
ENDROOT
BRANCH   1  14
ATOM     10  C   UNL     1       6.003   3.413  12.169  0.00  0.00    +0.000 A 
ATOM     11  C   UNL     1       6.835   3.870  11.145  0.00  0.00    +0.000 A 
ATOM     12  C   UNL     1       7.831   4.798  11.413  0.00  0.00    +0.000 A 
ATOM     13  C   UNL     1       7.996   5.286  12.711  0.00  0.00    +0.000 A 
ATOM     14  C   UNL     1       7.157   4.864  13.748  0.00  0.00    +0.000 A 
ATOM     15  C   UNL     1       6.167   3.908  13.470  0.00  0.00    +0.000 A 
BRANCH  10  17
ATOM     16  C   UNL     1       3.925   2.987  11.095  0.00  0.00    +0.000 C 
ATOM     17  O   UNL     1       5.076   2.492  11.763  0.00  0.00    +0.000 OA
ENDBRANCH  10  17
ENDBRANCH   1  14
BRANCH   8  18
ATOM     18  C   UNL     1       4.771   4.972  18.736  0.00  0.00    +0.000 C 
ATOM     19  O   UNL     1       4.229   5.955  19.246  0.00  0.00    +0.000 OA
ATOM     20  N   UNL     1       4.043   3.885  18.316  0.00  0.00    +0.000 N 
ATOM     21  H   UNL     1       4.516   3.171  17.760  0.00  0.00    +0.000 HD
BRANCH  20  22
ATOM     22  C   UNL     1       2.604   3.866  18.394  0.00  0.00    +0.000 C 
BRANCH  22  23
ATOM     23  C   UNL     1       2.196   3.389  19.736  0.00  0.00    +0.000 A 
ATOM     24  C   UNL     1       0.999   3.417  20.423  0.00  0.00    +0.000 A 
ATOM     25  C   UNL     1       1.233   2.773  21.661  0.00  0.00    +0.000 A 
ATOM     26  C   UNL     1       2.556   2.400  21.654  0.00  0.00    +0.000 A 
ATOM     27  O   UNL     1       3.151   2.770  20.489  0.00  0.00    +0.000 OA
ENDBRANCH  22  23
ENDBRANCH  20  22
ENDBRANCH   8  18
TORSDOF 5
ENDMDL
