MODEL 1
REMARK VINA RESULT:      -5.9      0.000      0.000
REMARK  Name = 
REMARK  7 active torsions:
REMARK  status: ('A' for Active; 'I' for Inactive)
REMARK    1  A    between atoms: C_7  and  S_8
REMARK    2  A    between atoms: N_9  and  C_10
REMARK    3  A    between atoms: C_10  and  C_11
REMARK    4  A    between atoms: C_11  and  C_12
REMARK    5  A    between atoms: C_12  and  C_13
REMARK    6  A    between atoms: C_13  and  C_14
REMARK    7  A    between atoms: C_14  and  O_15
REMARK                            x       y       z     vdW  Elec       q    Type
REMARK                         _______ _______ _______ _____ _____    ______ ____
ROOT
ATOM      1  N   UNL     1       5.807   3.349  16.194  0.00  0.00    +0.000 N 
ATOM      2  C   UNL     1       6.193   4.572  16.602  0.00  0.00    +0.000 A 
ATOM      3  N   UNL     1       7.383   5.106  16.477  0.00  0.00    +0.000 NA
ATOM      4  C   UNL     1       7.232   6.341  17.034  0.00  0.00    +0.000 A 
ATOM      5  N   UNL     1       6.013   6.624  17.521  0.00  0.00    +0.000 NA
ATOM      6  N   UNL     1       5.337   5.470  17.239  0.00  0.00    +0.000 N 
ATOM      7  C   UNL     1       3.958   5.291  17.583  0.00  0.00    +0.000 C 
ATOM      8  N   UNL     1       3.400   4.159  17.267  0.00  0.00    +0.000 NA
ATOM      9  H   UNL     1       6.451   2.711  15.735  0.00  0.00    +0.000 HD
ATOM     10  H   UNL     1       4.855   3.020  16.352  0.00  0.00    +0.000 HD
ENDROOT
BRANCH   7  11
ATOM     11  S   UNL     1       3.047   6.577  18.411  0.00  0.00    +0.000 S 
ATOM     12  H   UNL     1       2.497   7.226  17.378  0.00  0.00    +0.000 HD
ENDBRANCH   7  11
BRANCH   8  13
ATOM     13  C   UNL     1       1.994   3.920  17.601  0.00  0.00    +0.000 C 
BRANCH  13  14
ATOM     14  C   UNL     1       1.868   2.627  18.404  0.00  0.00    +0.000 C 
BRANCH  14  15
ATOM     15  C   UNL     1       0.784   2.755  19.468  0.00  0.00    +0.000 C 
BRANCH  15  16
ATOM     16  C   UNL     1       1.039   3.956  20.364  0.00  0.00    +0.000 C 
BRANCH  16  17
ATOM     17  C   UNL     1       2.062   3.613  21.434  0.00  0.00    +0.000 C 
BRANCH  17  18
ATOM     18  O   UNL     1       1.607   2.511  22.204  0.00  0.00    +0.000 OA
ATOM     19  H   UNL     1       1.564   1.738  21.616  0.00  0.00    +0.000 HD
ENDBRANCH  17  18
ENDBRANCH  16  17
ENDBRANCH  15  16
ENDBRANCH  14  15
ENDBRANCH  13  14
ENDBRANCH   8  13
TORSDOF 7
ENDMDL
MODEL 2
REMARK VINA RESULT:      -5.8      2.811      5.332
REMARK  Name = 
REMARK  7 active torsions:
REMARK  status: ('A' for Active; 'I' for Inactive)
REMARK    1  A    between atoms: C_7  and  S_8
REMARK    2  A    between atoms: N_9  and  C_10
REMARK    3  A    between atoms: C_10  and  C_11
REMARK    4  A    between atoms: C_11  and  C_12
REMARK    5  A    between atoms: C_12  and  C_13
REMARK    6  A    between atoms: C_13  and  C_14
REMARK    7  A    between atoms: C_14  and  O_15
REMARK                            x       y       z     vdW  Elec       q    Type
REMARK                         _______ _______ _______ _____ _____    ______ ____
ROOT
ATOM      1  N   UNL     1       4.959   2.200  20.122  0.00  0.00    +0.000 N 
ATOM      2  C   UNL     1       3.748   2.574  20.576  0.00  0.00    +0.000 A 
ATOM      3  N   UNL     1       3.193   2.237  21.714  0.00  0.00    +0.000 NA
ATOM      4  C   UNL     1       1.995   2.887  21.683  0.00  0.00    +0.000 A 
ATOM      5  N   UNL     1       1.747   3.614  20.583  0.00  0.00    +0.000 NA
ATOM      6  N   UNL     1       2.890   3.409  19.862  0.00  0.00    +0.000 N 
ATOM      7  C   UNL     1       3.094   3.999  18.572  0.00  0.00    +0.000 C 
ATOM      8  N   UNL     1       4.218   3.750  17.966  0.00  0.00    +0.000 NA
ATOM      9  H   UNL     1       5.564   1.586  20.660  0.00  0.00    +0.000 HD
ATOM     10  H   UNL     1       5.295   2.508  19.211  0.00  0.00    +0.000 HD
ENDROOT
BRANCH   7  11
ATOM     11  S   UNL     1       1.850   5.036  17.833  0.00  0.00    +0.000 S 
ATOM     12  H   UNL     1       2.028   6.184  18.497  0.00  0.00    +0.000 HD
ENDBRANCH   7  11
BRANCH   8  13
ATOM     13  C   UNL     1       4.476   4.322  16.643  0.00  0.00    +0.000 C 
BRANCH  13  14
ATOM     14  C   UNL     1       5.863   3.901  16.162  0.00  0.00    +0.000 C 
BRANCH  14  15
ATOM     15  C   UNL     1       6.894   4.979  16.474  0.00  0.00    +0.000 C 
BRANCH  15  16
ATOM     16  C   UNL     1       7.688   4.628  17.722  0.00  0.00    +0.000 C 
BRANCH  16  17
ATOM     17  C   UNL     1       7.352   5.587  18.852  0.00  0.00    +0.000 C 
BRANCH  17  18
ATOM     18  O   UNL     1       6.363   5.017  19.694  0.00  0.00    +0.000 OA
ATOM     19  H   UNL     1       5.501   5.376  19.423  0.00  0.00    +0.000 HD
ENDBRANCH  17  18
ENDBRANCH  16  17
ENDBRANCH  15  16
ENDBRANCH  14  15
ENDBRANCH  13  14
ENDBRANCH   8  13
TORSDOF 7
ENDMDL
MODEL 3
REMARK VINA RESULT:      -5.8      1.627      1.908
REMARK  Name = 
REMARK  7 active torsions:
REMARK  status: ('A' for Active; 'I' for Inactive)
REMARK    1  A    between atoms: C_7  and  S_8
REMARK    2  A    between atoms: N_9  and  C_10
REMARK    3  A    between atoms: C_10  and  C_11
REMARK    4  A    between atoms: C_11  and  C_12
REMARK    5  A    between atoms: C_12  and  C_13
REMARK    6  A    between atoms: C_13  and  C_14
REMARK    7  A    between atoms: C_14  and  O_15
REMARK                            x       y       z     vdW  Elec       q    Type
REMARK                         _______ _______ _______ _____ _____    ______ ____
ROOT
ATOM      1  N   UNL     1       5.826   3.692  16.555  0.00  0.00    +0.000 N 
ATOM      2  C   UNL     1       6.218   4.959  16.785  0.00  0.00    +0.000 A 
ATOM      3  N   UNL     1       7.420   5.455  16.617  0.00  0.00    +0.000 NA
ATOM      4  C   UNL     1       7.271   6.762  16.974  0.00  0.00    +0.000 A 
ATOM      5  N   UNL     1       6.042   7.129  17.373  0.00  0.00    +0.000 NA
ATOM      6  N   UNL     1       5.358   5.952  17.248  0.00  0.00    +0.000 N 
ATOM      7  C   UNL     1       3.967   5.842  17.571  0.00  0.00    +0.000 C 
ATOM      8  N   UNL     1       3.401   4.681  17.414  0.00  0.00    +0.000 NA
ATOM      9  H   UNL     1       6.474   2.984  16.221  0.00  0.00    +0.000 HD
ATOM     10  H   UNL     1       4.866   3.401  16.731  0.00  0.00    +0.000 HD
ENDROOT
BRANCH   7  11
ATOM     11  S   UNL     1       3.050   7.249  18.164  0.00  0.00    +0.000 S 
ATOM     12  H   UNL     1       3.664   7.499  19.327  0.00  0.00    +0.000 HD
ENDBRANCH   7  11
BRANCH   8  13
ATOM     13  C   UNL     1       1.982   4.511  17.735  0.00  0.00    +0.000 C 
BRANCH  13  14
ATOM     14  C   UNL     1       1.744   3.107  18.288  0.00  0.00    +0.000 C 
BRANCH  14  15
ATOM     15  C   UNL     1       2.702   2.106  17.653  0.00  0.00    +0.000 C 
BRANCH  15  16
ATOM     16  C   UNL     1       3.487   1.355  18.715  0.00  0.00    +0.000 C 
BRANCH  16  17
ATOM     17  C   UNL     1       3.963   2.308  19.799  0.00  0.00    +0.000 C 
BRANCH  17  18
ATOM     18  O   UNL     1       5.161   2.948  19.390  0.00  0.00    +0.000 OA
ATOM     19  H   UNL     1       5.890   2.317  19.513  0.00  0.00    +0.000 HD
ENDBRANCH  17  18
ENDBRANCH  16  17
ENDBRANCH  15  16
ENDBRANCH  14  15
ENDBRANCH  13  14
ENDBRANCH   8  13
TORSDOF 7
ENDMDL
MODEL 4
REMARK VINA RESULT:      -5.7      1.965      2.491
REMARK  Name = 
REMARK  7 active torsions:
REMARK  status: ('A' for Active; 'I' for Inactive)
REMARK    1  A    between atoms: C_7  and  S_8
REMARK    2  A    between atoms: N_9  and  C_10
REMARK    3  A    between atoms: C_10  and  C_11
REMARK    4  A    between atoms: C_11  and  C_12
REMARK    5  A    between atoms: C_12  and  C_13
REMARK    6  A    between atoms: C_13  and  C_14
REMARK    7  A    between atoms: C_14  and  O_15
REMARK                            x       y       z     vdW  Elec       q    Type
REMARK                         _______ _______ _______ _____ _____    ______ ____
ROOT
ATOM      1  N   UNL     1       5.427   3.589  19.104  0.00  0.00    +0.000 N 
ATOM      2  C   UNL     1       5.615   4.557  18.188  0.00  0.00    +0.000 A 
ATOM      3  N   UNL     1       6.600   4.646  17.327  0.00  0.00    +0.000 NA
ATOM      4  C   UNL     1       6.310   5.786  16.638  0.00  0.00    +0.000 A 
ATOM      5  N   UNL     1       5.199   6.438  17.016  0.00  0.00    +0.000 NA
ATOM      6  N   UNL     1       4.748   5.635  18.026  0.00  0.00    +0.000 N 
ATOM      7  C   UNL     1       3.554   5.933  18.761  0.00  0.00    +0.000 C 
ATOM      8  N   UNL     1       3.202   5.105  19.701  0.00  0.00    +0.000 NA
ATOM      9  H   UNL     1       6.076   2.815  19.206  0.00  0.00    +0.000 HD
ATOM     10  H   UNL     1       4.631   3.618  19.740  0.00  0.00    +0.000 HD
ENDROOT
BRANCH   7  11
ATOM     11  S   UNL     1       2.591   7.384  18.393  0.00  0.00    +0.000 S 
ATOM     12  H   UNL     1       3.037   8.244  19.316  0.00  0.00    +0.000 HD
ENDBRANCH   7  11
BRANCH   8  13
ATOM     13  C   UNL     1       1.994   5.364  20.487  0.00  0.00    +0.000 C 
BRANCH  13  14
ATOM     14  C   UNL     1       1.057   4.161  20.403  0.00  0.00    +0.000 C 
BRANCH  14  15
ATOM     15  C   UNL     1       1.844   2.878  20.163  0.00  0.00    +0.000 C 
BRANCH  15  16
ATOM     16  C   UNL     1       1.325   2.141  18.939  0.00  0.00    +0.000 C 
BRANCH  16  17
ATOM     17  C   UNL     1       2.334   2.217  17.805  0.00  0.00    +0.000 C 
BRANCH  17  18
ATOM     18  O   UNL     1       2.153   3.420  17.075  0.00  0.00    +0.000 OA
ATOM     19  H   UNL     1       2.599   3.315  16.218  0.00  0.00    +0.000 HD
ENDBRANCH  17  18
ENDBRANCH  16  17
ENDBRANCH  15  16
ENDBRANCH  14  15
ENDBRANCH  13  14
ENDBRANCH   8  13
TORSDOF 7
ENDMDL
MODEL 5
REMARK VINA RESULT:      -5.7      1.861      2.371
REMARK  Name = 
REMARK  7 active torsions:
REMARK  status: ('A' for Active; 'I' for Inactive)
REMARK    1  A    between atoms: C_7  and  S_8
REMARK    2  A    between atoms: N_9  and  C_10
REMARK    3  A    between atoms: C_10  and  C_11
REMARK    4  A    between atoms: C_11  and  C_12
REMARK    5  A    between atoms: C_12  and  C_13
REMARK    6  A    between atoms: C_13  and  C_14
REMARK    7  A    between atoms: C_14  and  O_15
REMARK                            x       y       z     vdW  Elec       q    Type
REMARK                         _______ _______ _______ _____ _____    ______ ____
ROOT
ATOM      1  N   UNL     1       4.715   3.242  17.816  0.00  0.00    +0.000 N 
ATOM      2  C   UNL     1       5.039   4.150  16.877  0.00  0.00    +0.000 A 
ATOM      3  N   UNL     1       5.806   3.964  15.830  0.00  0.00    +0.000 NA
ATOM      4  C   UNL     1       5.793   5.179  15.212  0.00  0.00    +0.000 A 
ATOM      5  N   UNL     1       5.067   6.137  15.810  0.00  0.00    +0.000 NA
ATOM      6  N   UNL     1       4.577   5.465  16.895  0.00  0.00    +0.000 N 
ATOM      7  C   UNL     1       3.725   6.094  17.860  0.00  0.00    +0.000 C 
ATOM      8  N   UNL     1       3.304   5.370  18.855  0.00  0.00    +0.000 NA
ATOM      9  H   UNL     1       5.068   2.290  17.783  0.00  0.00    +0.000 HD
ATOM     10  H   UNL     1       4.118   3.493  18.603  0.00  0.00    +0.000 HD
ENDROOT
BRANCH   7  11
ATOM     11  S   UNL     1       3.263   7.806  17.695  0.00  0.00    +0.000 S 
ATOM     12  H   UNL     1       2.985   7.885  16.388  0.00  0.00    +0.000 HD
ENDBRANCH   7  11
BRANCH   8  13
ATOM     13  C   UNL     1       2.436   5.964  19.874  0.00  0.00    +0.000 C 
BRANCH  13  14
ATOM     14  C   UNL     1       2.039   4.901  20.896  0.00  0.00    +0.000 C 
BRANCH  14  15
ATOM     15  C   UNL     1       0.915   4.025  20.357  0.00  0.00    +0.000 C 
BRANCH  15  16
ATOM     16  C   UNL     1       1.408   2.614  20.082  0.00  0.00    +0.000 C 
BRANCH  16  17
ATOM     17  C   UNL     1       1.094   2.211  18.651  0.00  0.00    +0.000 C 
BRANCH  17  18
ATOM     18  O   UNL     1       1.552   3.211  17.754  0.00  0.00    +0.000 OA
ATOM     19  H   UNL     1       0.771   3.660  17.389  0.00  0.00    +0.000 HD
ENDBRANCH  17  18
ENDBRANCH  16  17
ENDBRANCH  15  16
ENDBRANCH  14  15
ENDBRANCH  13  14
ENDBRANCH   8  13
TORSDOF 7
ENDMDL
MODEL 6
REMARK VINA RESULT:      -5.7      2.549      5.242
REMARK  Name = 
REMARK  7 active torsions:
REMARK  status: ('A' for Active; 'I' for Inactive)
REMARK    1  A    between atoms: C_7  and  S_8
REMARK    2  A    between atoms: N_9  and  C_10
REMARK    3  A    between atoms: C_10  and  C_11
REMARK    4  A    between atoms: C_11  and  C_12
REMARK    5  A    between atoms: C_12  and  C_13
REMARK    6  A    between atoms: C_13  and  C_14
REMARK    7  A    between atoms: C_14  and  O_15
REMARK                            x       y       z     vdW  Elec       q    Type
REMARK                         _______ _______ _______ _____ _____    ______ ____
ROOT
ATOM      1  N   UNL     1       3.794   2.861  18.538  0.00  0.00    +0.000 N 
ATOM      2  C   UNL     1       2.820   3.273  19.372  0.00  0.00    +0.000 A 
ATOM      3  N   UNL     1       2.098   2.526  20.171  0.00  0.00    +0.000 NA
ATOM      4  C   UNL     1       1.285   3.427  20.791  0.00  0.00    +0.000 A 
ATOM      5  N   UNL     1       1.438   4.710  20.425  0.00  0.00    +0.000 NA
ATOM      6  N   UNL     1       2.438   4.607  19.500  0.00  0.00    +0.000 N 
ATOM      7  C   UNL     1       2.957   5.749  18.809  0.00  0.00    +0.000 C 
ATOM      8  N   UNL     1       3.915   5.552  17.951  0.00  0.00    +0.000 NA
ATOM      9  H   UNL     1       4.051   1.881  18.459  0.00  0.00    +0.000 HD
ATOM     10  H   UNL     1       4.289   3.524  17.944  0.00  0.00    +0.000 HD
ENDROOT
BRANCH   7  11
ATOM     11  S   UNL     1       2.311   7.379  19.121  0.00  0.00    +0.000 S 
ATOM     12  H   UNL     1       1.373   7.125  20.041  0.00  0.00    +0.000 HD
ENDBRANCH   7  11
BRANCH   8  13
ATOM     13  C   UNL     1       4.478   6.684  17.211  0.00  0.00    +0.000 C 
BRANCH  13  14
ATOM     14  C   UNL     1       5.143   6.183  15.931  0.00  0.00    +0.000 C 
BRANCH  14  15
ATOM     15  C   UNL     1       5.551   4.721  16.070  0.00  0.00    +0.000 C 
BRANCH  15  16
ATOM     16  C   UNL     1       7.062   4.586  16.178  0.00  0.00    +0.000 C 
BRANCH  16  17
ATOM     17  C   UNL     1       7.496   4.625  17.634  0.00  0.00    +0.000 C 
BRANCH  17  18
ATOM     18  O   UNL     1       6.501   4.029  18.453  0.00  0.00    +0.000 OA
ATOM     19  H   UNL     1       5.647   4.426  18.215  0.00  0.00    +0.000 HD
ENDBRANCH  17  18
ENDBRANCH  16  17
ENDBRANCH  15  16
ENDBRANCH  14  15
ENDBRANCH  13  14
ENDBRANCH   8  13
TORSDOF 7
ENDMDL
MODEL 7
REMARK VINA RESULT:      -5.7      1.433      1.601
REMARK  Name = 
REMARK  7 active torsions:
REMARK  status: ('A' for Active; 'I' for Inactive)
REMARK    1  A    between atoms: C_7  and  S_8
REMARK    2  A    between atoms: N_9  and  C_10
REMARK    3  A    between atoms: C_10  and  C_11
REMARK    4  A    between atoms: C_11  and  C_12
REMARK    5  A    between atoms: C_12  and  C_13
REMARK    6  A    between atoms: C_13  and  C_14
REMARK    7  A    between atoms: C_14  and  O_15
REMARK                            x       y       z     vdW  Elec       q    Type
REMARK                         _______ _______ _______ _____ _____    ______ ____
ROOT
ATOM      1  N   UNL     1       5.620   3.384  16.556  0.00  0.00    +0.000 N 
ATOM      2  C   UNL     1       6.064   4.635  16.781  0.00  0.00    +0.000 A 
ATOM      3  N   UNL     1       7.283   5.083  16.605  0.00  0.00    +0.000 NA
ATOM      4  C   UNL     1       7.188   6.396  16.962  0.00  0.00    +0.000 A 
ATOM      5  N   UNL     1       5.978   6.811  17.367  0.00  0.00    +0.000 NA
ATOM      6  N   UNL     1       5.246   5.663  17.248  0.00  0.00    +0.000 N 
ATOM      7  C   UNL     1       3.854   5.608  17.580  0.00  0.00    +0.000 C 
ATOM      8  N   UNL     1       3.241   4.471  17.428  0.00  0.00    +0.000 NA
ATOM      9  H   UNL     1       6.237   2.651  16.219  0.00  0.00    +0.000 HD
ATOM     10  H   UNL     1       4.650   3.132  16.738  0.00  0.00    +0.000 HD
ENDROOT
BRANCH   7  11
ATOM     11  S   UNL     1       2.998   7.052  18.175  0.00  0.00    +0.000 S 
ATOM     12  H   UNL     1       4.016   7.878  18.442  0.00  0.00    +0.000 HD
ENDBRANCH   7  11
BRANCH   8  13
ATOM     13  C   UNL     1       1.819   4.357  17.758  0.00  0.00    +0.000 C 
BRANCH  13  14
ATOM     14  C   UNL     1       1.623   3.289  18.831  0.00  0.00    +0.000 C 
BRANCH  14  15
ATOM     15  C   UNL     1       2.132   3.779  20.181  0.00  0.00    +0.000 C 
BRANCH  15  16
ATOM     16  C   UNL     1       3.032   2.742  20.834  0.00  0.00    +0.000 C 
BRANCH  16  17
ATOM     17  C   UNL     1       3.953   2.113  19.802  0.00  0.00    +0.000 C 
BRANCH  17  18
ATOM     18  O   UNL     1       5.084   2.944  19.591  0.00  0.00    +0.000 OA
ATOM     19  H   UNL     1       5.595   2.566  18.855  0.00  0.00    +0.000 HD
ENDBRANCH  17  18
ENDBRANCH  16  17
ENDBRANCH  15  16
ENDBRANCH  14  15
ENDBRANCH  13  14
ENDBRANCH   8  13
TORSDOF 7
ENDMDL
MODEL 8
REMARK VINA RESULT:      -5.6      2.604      5.427
REMARK  Name = 
REMARK  7 active torsions:
REMARK  status: ('A' for Active; 'I' for Inactive)
REMARK    1  A    between atoms: C_7  and  S_8
REMARK    2  A    between atoms: N_9  and  C_10
REMARK    3  A    between atoms: C_10  and  C_11
REMARK    4  A    between atoms: C_11  and  C_12
REMARK    5  A    between atoms: C_12  and  C_13
REMARK    6  A    between atoms: C_13  and  C_14
REMARK    7  A    between atoms: C_14  and  O_15
REMARK                            x       y       z     vdW  Elec       q    Type
REMARK                         _______ _______ _______ _____ _____    ______ ____
ROOT
ATOM      1  N   UNL     1       5.308   3.122  19.358  0.00  0.00    +0.000 N 
ATOM      2  C   UNL     1       4.008   3.363  19.607  0.00  0.00    +0.000 A 
ATOM      3  N   UNL     1       3.163   2.572  20.222  0.00  0.00    +0.000 NA
ATOM      4  C   UNL     1       2.004   3.291  20.220  0.00  0.00    +0.000 A 
ATOM      5  N   UNL     1       2.057   4.494  19.628  0.00  0.00    +0.000 NA
ATOM      6  N   UNL     1       3.363   4.540  19.229  0.00  0.00    +0.000 N 
ATOM      7  C   UNL     1       3.907   5.665  18.529  0.00  0.00    +0.000 C 
ATOM      8  N   UNL     1       5.164   5.619  18.196  0.00  0.00    +0.000 NA
ATOM      9  H   UNL     1       5.755   2.254  19.640  0.00  0.00    +0.000 HD
ATOM     10  H   UNL     1       5.880   3.801  18.857  0.00  0.00    +0.000 HD
ENDROOT
BRANCH   7  11
ATOM     11  S   UNL     1       2.894   7.075  18.133  0.00  0.00    +0.000 S 
ATOM     12  H   UNL     1       2.991   7.111  16.799  0.00  0.00    +0.000 HD
ENDBRANCH   7  11
BRANCH   8  13
ATOM     13  C   UNL     1       5.770   6.739  17.473  0.00  0.00    +0.000 C 
BRANCH  13  14
ATOM     14  C   UNL     1       7.227   6.414  17.149  0.00  0.00    +0.000 C 
BRANCH  14  15
ATOM     15  C   UNL     1       7.380   4.951  16.753  0.00  0.00    +0.000 C 
BRANCH  15  16
ATOM     16  C   UNL     1       7.072   4.750  15.279  0.00  0.00    +0.000 C 
BRANCH  16  17
ATOM     17  C   UNL     1       5.933   3.758  15.104  0.00  0.00    +0.000 C 
BRANCH  17  18
ATOM     18  O   UNL     1       5.514   3.273  16.370  0.00  0.00    +0.000 OA
ATOM     19  H   UNL     1       5.044   2.435  16.224  0.00  0.00    +0.000 HD
ENDBRANCH  17  18
ENDBRANCH  16  17
ENDBRANCH  15  16
ENDBRANCH  14  15
ENDBRANCH  13  14
ENDBRANCH   8  13
TORSDOF 7
ENDMDL
MODEL 9
REMARK VINA RESULT:      -5.5      1.516      1.753
REMARK  Name = 
REMARK  7 active torsions:
REMARK  status: ('A' for Active; 'I' for Inactive)
REMARK    1  A    between atoms: C_7  and  S_8
REMARK    2  A    between atoms: N_9  and  C_10
REMARK    3  A    between atoms: C_10  and  C_11
REMARK    4  A    between atoms: C_11  and  C_12
REMARK    5  A    between atoms: C_12  and  C_13
REMARK    6  A    between atoms: C_13  and  C_14
REMARK    7  A    between atoms: C_14  and  O_15
REMARK                            x       y       z     vdW  Elec       q    Type
REMARK                         _______ _______ _______ _____ _____    ______ ____
ROOT
ATOM      1  N   UNL     1       5.205   6.638  15.747  0.00  0.00    +0.000 N 
ATOM      2  C   UNL     1       6.077   6.547  16.768  0.00  0.00    +0.000 A 
ATOM      3  N   UNL     1       7.146   7.281  16.959  0.00  0.00    +0.000 NA
ATOM      4  C   UNL     1       7.655   6.794  18.127  0.00  0.00    +0.000 A 
ATOM      5  N   UNL     1       6.976   5.782  18.689  0.00  0.00    +0.000 NA
ATOM      6  N   UNL     1       5.949   5.622  17.802  0.00  0.00    +0.000 N 
ATOM      7  C   UNL     1       4.935   4.626  17.982  0.00  0.00    +0.000 C 
ATOM      8  N   UNL     1       3.993   4.555  17.087  0.00  0.00    +0.000 NA
ATOM      9  H   UNL     1       5.322   7.318  15.002  0.00  0.00    +0.000 HD
ATOM     10  H   UNL     1       4.407   6.007  15.682  0.00  0.00    +0.000 HD
ENDROOT
BRANCH   7  11
ATOM     11  S   UNL     1       4.968   3.529  19.384  0.00  0.00    +0.000 S 
ATOM     12  H   UNL     1       6.081   3.927  20.011  0.00  0.00    +0.000 HD
ENDBRANCH   7  11
BRANCH   8  13
ATOM     13  C   UNL     1       2.935   3.551  17.218  0.00  0.00    +0.000 C 
BRANCH  13  14
ATOM     14  C   UNL     1       1.729   4.163  17.926  0.00  0.00    +0.000 C 
BRANCH  14  15
ATOM     15  C   UNL     1       1.197   3.221  19.000  0.00  0.00    +0.000 C 
BRANCH  15  16
ATOM     16  C   UNL     1       0.889   3.976  20.283  0.00  0.00    +0.000 C 
BRANCH  16  17
ATOM     17  C   UNL     1       1.921   3.652  21.350  0.00  0.00    +0.000 C 
BRANCH  17  18
ATOM     18  O   UNL     1       1.519   2.504  22.081  0.00  0.00    +0.000 OA
ATOM     19  H   UNL     1       0.651   2.695  22.476  0.00  0.00    +0.000 HD
ENDBRANCH  17  18
ENDBRANCH  16  17
ENDBRANCH  15  16
ENDBRANCH  14  15
ENDBRANCH  13  14
ENDBRANCH   8  13
TORSDOF 7
ENDMDL
