MODEL 1
REMARK VINA RESULT:      -8.0      0.000      0.000
REMARK  Name = 
REMARK  8 active torsions:
REMARK  status: ('A' for Active; 'I' for Inactive)
REMARK    1  A    between atoms: C_1  and  C_2
REMARK    2  A    between atoms: C_2  and  O_3
REMARK    3  A    between atoms: O_3  and  C_4
REMARK    4  A    between atoms: C_7  and  C_8
REMARK    5  A    between atoms: C_11  and  C_12
REMARK    6  A    between atoms: C_14  and  N_15
REMARK    7  A    between atoms: C_16  and  C_18
REMARK    8  A    between atoms: N_29  and  C_30
REMARK                            x       y       z     vdW  Elec       q    Type
REMARK                         _______ _______ _______ _____ _____    ______ ____
ROOT
ATOM      1  C   UNL     1       0.007  13.319  20.540  0.00  0.00    +0.000 A 
ATOM      2  N   UNL     1       1.078  13.034  21.259  0.00  0.00    +0.000 NA
ATOM      3  N   UNL     1       1.078  11.702  21.544  0.00  0.00    +0.000 NA
ATOM      4  C   UNL     1       0.016  11.153  20.984  0.00  0.00    +0.000 A 
ATOM      5  N   UNL     1      -0.684  12.129  20.272  0.00  0.00    +0.000 N 
ENDROOT
BRANCH   1   9
ATOM      6  C   UNL     1      -1.240  17.204  19.403  0.00  0.00    +0.000 A 
ATOM      7  C   UNL     1      -0.401  16.487  18.555  0.00  0.00    +0.000 A 
ATOM      8  C   UNL     1       0.041  15.211  18.924  0.00  0.00    +0.000 A 
ATOM      9  C   UNL     1      -0.374  14.677  20.138  0.00  0.00    +0.000 A 
ATOM     10  N   UNL     1      -1.182  15.356  20.989  0.00  0.00    +0.000 NA
ATOM     11  C   UNL     1      -1.604  16.588  20.592  0.00  0.00    +0.000 A 
BRANCH   6  12
ATOM     12  O   UNL     1      -1.740  18.455  19.177  0.00  0.00    +0.000 OA
BRANCH  12  14
ATOM     13  C   UNL     1      -4.143  18.630  19.124  0.00  0.00    +0.000 C 
ATOM     14  C   UNL     1      -2.868  18.534  18.304  0.00  0.00    +0.000 C 
ENDBRANCH  12  14
ENDBRANCH   6  12
ENDBRANCH   1   9
BRANCH   5  15
ATOM     15  C   UNL     1      -1.778  11.945  19.380  0.00  0.00    +0.000 A 
ATOM     16  C   UNL     1      -1.612  11.439  18.091  0.00  0.00    +0.000 A 
ATOM     17  C   UNL     1      -2.730  11.234  17.281  0.00  0.00    +0.000 A 
ATOM     18  C   UNL     1      -3.981  11.536  17.787  0.00  0.00    +0.000 A 
ATOM     19  N   UNL     1      -4.180  12.057  19.010  0.00  0.00    +0.000 NA
ATOM     20  C   UNL     1      -3.079  12.254  19.774  0.00  0.00    +0.000 A 
ENDBRANCH   5  15
BRANCH   4  21
ATOM     21  C   UNL     1      -0.193   9.622  21.026  0.00  0.00    +0.000 C 
ATOM     22  C   UNL     1      -0.059   8.946  19.628  0.00  0.00    +0.000 C 
ATOM     23  C   UNL     1       1.458   8.784  19.943  0.00  0.00    +0.000 C 
ATOM     24  C   UNL     1       1.023   8.734  21.431  0.00  0.00    +0.000 C 
BRANCH  23  25
ATOM     25  N   UNL     1       2.102   7.571  19.399  0.00  0.00    +0.000 N 
ATOM     26  C   UNL     1       2.700   7.591  18.163  0.00  0.00    +0.000 C 
ATOM     27  O   UNL     1       2.590   8.548  17.399  0.00  0.00    +0.000 OA
ATOM     28  H   UNL     1       2.350   6.791  20.011  0.00  0.00    +0.000 HD
BRANCH  26  29
ATOM     29  C   UNL     1       3.474   6.392  17.702  0.00  0.00    +0.000 A 
ATOM     30  C   UNL     1       4.618   6.658  16.934  0.00  0.00    +0.000 A 
ATOM     31  C   UNL     1       5.307   5.599  16.393  0.00  0.00    +0.000 A 
ATOM     32  N   UNL     1       4.898   4.327  16.519  0.00  0.00    +0.000 NA
ATOM     33  C   UNL     1       3.792   4.091  17.252  0.00  0.00    +0.000 A 
ATOM     34  C   UNL     1       3.309   2.796  17.293  0.00  0.00    +0.000 A 
ATOM     35  C   UNL     1       2.184   2.470  18.039  0.00  0.00    +0.000 A 
ATOM     36  C   UNL     1       1.598   3.469  18.785  0.00  0.00    +0.000 A 
ATOM     37  N   UNL     1       1.993   4.759  18.738  0.00  0.00    +0.000 NA
ATOM     38  C   UNL     1       3.056   5.081  17.940  0.00  0.00    +0.000 A 
ENDBRANCH  26  29
ENDBRANCH  23  25
ENDBRANCH   4  21
TORSDOF 7
ENDMDL
MODEL 2
REMARK VINA RESULT:      -7.6      1.217      1.412
REMARK  Name = 
REMARK  8 active torsions:
REMARK  status: ('A' for Active; 'I' for Inactive)
REMARK    1  A    between atoms: C_1  and  C_2
REMARK    2  A    between atoms: C_2  and  O_3
REMARK    3  A    between atoms: O_3  and  C_4
REMARK    4  A    between atoms: C_7  and  C_8
REMARK    5  A    between atoms: C_11  and  C_12
REMARK    6  A    between atoms: C_14  and  N_15
REMARK    7  A    between atoms: C_16  and  C_18
REMARK    8  A    between atoms: N_29  and  C_30
REMARK                            x       y       z     vdW  Elec       q    Type
REMARK                         _______ _______ _______ _____ _____    ______ ____
ROOT
ATOM      1  C   UNL     1       0.040  13.115  20.629  0.00  0.00    +0.000 A 
ATOM      2  N   UNL     1       1.183  12.776  21.196  0.00  0.00    +0.000 NA
ATOM      3  N   UNL     1       1.111  11.475  21.594  0.00  0.00    +0.000 NA
ATOM      4  C   UNL     1      -0.073  10.998  21.256  0.00  0.00    +0.000 A 
ATOM      5  N   UNL     1      -0.790  11.986  20.577  0.00  0.00    +0.000 N 
ENDROOT
BRANCH   1   9
ATOM      6  C   UNL     1      -1.027  17.010  19.350  0.00  0.00    +0.000 A 
ATOM      7  C   UNL     1      -0.329  16.178  18.478  0.00  0.00    +0.000 A 
ATOM      8  C   UNL     1       0.053  14.897  18.891  0.00  0.00    +0.000 A 
ATOM      9  C   UNL     1      -0.279  14.473  20.172  0.00  0.00    +0.000 A 
ATOM     10  N   UNL     1      -0.948  15.264  21.046  0.00  0.00    +0.000 NA
ATOM     11  C   UNL     1      -1.315  16.499  20.607  0.00  0.00    +0.000 A 
BRANCH   6  12
ATOM     12  O   UNL     1      -1.454  18.281  19.086  0.00  0.00    +0.000 OA
BRANCH  12  14
ATOM     13  C   UNL     1      -3.792  18.309  18.503  0.00  0.00    +0.000 C 
ATOM     14  C   UNL     1      -2.754  18.621  19.568  0.00  0.00    +0.000 C 
ENDBRANCH  12  14
ENDBRANCH   6  12
ENDBRANCH   1   9
BRANCH   5  15
ATOM     15  C   UNL     1      -2.025  11.850  19.885  0.00  0.00    +0.000 A 
ATOM     16  C   UNL     1      -3.212  12.409  20.359  0.00  0.00    +0.000 A 
ATOM     17  C   UNL     1      -4.382  12.284  19.608  0.00  0.00    +0.000 A 
ATOM     18  C   UNL     1      -4.329  11.607  18.404  0.00  0.00    +0.000 A 
ATOM     19  N   UNL     1      -3.214  11.025  17.928  0.00  0.00    +0.000 NA
ATOM     20  C   UNL     1      -2.094  11.154  18.678  0.00  0.00    +0.000 A 
ENDBRANCH   5  15
BRANCH   4  21
ATOM     21  C   UNL     1      -0.408   9.503  21.465  0.00  0.00    +0.000 C 
ATOM     22  C   UNL     1      -0.041   8.615  20.238  0.00  0.00    +0.000 C 
ATOM     23  C   UNL     1       1.359   8.430  20.895  0.00  0.00    +0.000 C 
ATOM     24  C   UNL     1       0.622   8.631  22.244  0.00  0.00    +0.000 C 
BRANCH  23  25
ATOM     25  N   UNL     1       2.003   7.118  20.679  0.00  0.00    +0.000 N 
ATOM     26  C   UNL     1       2.667   6.849  19.507  0.00  0.00    +0.000 C 
ATOM     27  O   UNL     1       2.620   7.607  18.541  0.00  0.00    +0.000 OA
ATOM     28  H   UNL     1       2.199   6.496  21.465  0.00  0.00    +0.000 HD
BRANCH  26  29
ATOM     29  C   UNL     1       3.435   5.568  19.377  0.00  0.00    +0.000 A 
ATOM     30  C   UNL     1       4.829   5.698  19.267  0.00  0.00    +0.000 A 
ATOM     31  C   UNL     1       5.577   4.568  19.036  0.00  0.00    +0.000 A 
ATOM     32  N   UNL     1       5.027   3.358  18.854  0.00  0.00    +0.000 NA
ATOM     33  C   UNL     1       3.687   3.254  18.954  0.00  0.00    +0.000 A 
ATOM     34  C   UNL     1       3.111   2.032  18.660  0.00  0.00    +0.000 A 
ATOM     35  C   UNL     1       1.738   1.841  18.756  0.00  0.00    +0.000 A 
ATOM     36  C   UNL     1       0.975   2.894  19.210  0.00  0.00    +0.000 A 
ATOM     37  N   UNL     1       1.477   4.123  19.456  0.00  0.00    +0.000 NA
ATOM     38  C   UNL     1       2.820   4.318  19.286  0.00  0.00    +0.000 A 
ENDBRANCH  26  29
ENDBRANCH  23  25
ENDBRANCH   4  21
TORSDOF 7
ENDMDL
MODEL 3
REMARK VINA RESULT:      -7.5      3.020     10.872
REMARK  Name = 
REMARK  8 active torsions:
REMARK  status: ('A' for Active; 'I' for Inactive)
REMARK    1  A    between atoms: C_1  and  C_2
REMARK    2  A    between atoms: C_2  and  O_3
REMARK    3  A    between atoms: O_3  and  C_4
REMARK    4  A    between atoms: C_7  and  C_8
REMARK    5  A    between atoms: C_11  and  C_12
REMARK    6  A    between atoms: C_14  and  N_15
REMARK    7  A    between atoms: C_16  and  C_18
REMARK    8  A    between atoms: N_29  and  C_30
REMARK                            x       y       z     vdW  Elec       q    Type
REMARK                         _______ _______ _______ _____ _____    ______ ____
ROOT
ATOM      1  C   UNL     1       2.936   6.678  18.753  0.00  0.00    +0.000 A 
ATOM      2  N   UNL     1       2.970   7.994  18.638  0.00  0.00    +0.000 NA
ATOM      3  N   UNL     1       2.093   8.538  19.527  0.00  0.00    +0.000 NA
ATOM      4  C   UNL     1       1.527   7.561  20.210  0.00  0.00    +0.000 A 
ATOM      5  N   UNL     1       2.070   6.341  19.802  0.00  0.00    +0.000 N 
ENDROOT
BRANCH   1   9
ATOM      6  C   UNL     1       5.079   4.134  16.130  0.00  0.00    +0.000 A 
ATOM      7  C   UNL     1       3.886   3.682  16.688  0.00  0.00    +0.000 A 
ATOM      8  C   UNL     1       3.176   4.499  17.575  0.00  0.00    +0.000 A 
ATOM      9  C   UNL     1       3.676   5.758  17.881  0.00  0.00    +0.000 A 
ATOM     10  N   UNL     1       4.839   6.221  17.362  0.00  0.00    +0.000 NA
ATOM     11  C   UNL     1       5.497   5.407  16.493  0.00  0.00    +0.000 A 
BRANCH   6  12
ATOM     12  O   UNL     1       5.877   3.445  15.261  0.00  0.00    +0.000 OA
BRANCH  12  14
ATOM     13  C   UNL     1       6.126   3.613  12.870  0.00  0.00    +0.000 C 
ATOM     14  C   UNL     1       6.482   4.212  14.219  0.00  0.00    +0.000 C 
ENDBRANCH  12  14
ENDBRANCH   6  12
ENDBRANCH   1   9
BRANCH   5  15
ATOM     15  C   UNL     1       1.883   5.059  20.393  0.00  0.00    +0.000 A 
ATOM     16  C   UNL     1       0.911   4.166  19.943  0.00  0.00    +0.000 A 
ATOM     17  C   UNL     1       0.809   2.904  20.530  0.00  0.00    +0.000 A 
ATOM     18  C   UNL     1       1.686   2.572  21.546  0.00  0.00    +0.000 A 
ATOM     19  N   UNL     1       2.614   3.416  22.032  0.00  0.00    +0.000 NA
ATOM     20  C   UNL     1       2.687   4.637  21.450  0.00  0.00    +0.000 A 
ENDBRANCH   5  15
BRANCH   4  21
ATOM     21  C   UNL     1       0.573   7.873  21.386  0.00  0.00    +0.000 C 
ATOM     22  C   UNL     1       1.082   9.028  22.300  0.00  0.00    +0.000 C 
ATOM     23  C   UNL     1       0.304  10.001  21.364  0.00  0.00    +0.000 C 
ATOM     24  C   UNL     1      -0.646   8.803  21.105  0.00  0.00    +0.000 C 
BRANCH  23  25
ATOM     25  N   UNL     1      -0.286  11.188  22.016  0.00  0.00    +0.000 N 
ATOM     26  C   UNL     1      -0.133  12.437  21.466  0.00  0.00    +0.000 C 
ATOM     27  O   UNL     1       0.619  12.645  20.517  0.00  0.00    +0.000 OA
ATOM     28  H   UNL     1      -1.022  11.087  22.717  0.00  0.00    +0.000 HD
BRANCH  26  29
ATOM     29  C   UNL     1      -0.867  13.598  22.067  0.00  0.00    +0.000 A 
ATOM     30  C   UNL     1      -0.066  14.639  22.563  0.00  0.00    +0.000 A 
ATOM     31  C   UNL     1      -0.675  15.679  23.223  0.00  0.00    +0.000 A 
ATOM     32  N   UNL     1      -1.995  15.712  23.463  0.00  0.00    +0.000 NA
ATOM     33  C   UNL     1      -2.747  14.700  22.988  0.00  0.00    +0.000 A 
ATOM     34  C   UNL     1      -4.087  14.676  23.328  0.00  0.00    +0.000 A 
ATOM     35  C   UNL     1      -4.931  13.675  22.864  0.00  0.00    +0.000 A 
ATOM     36  C   UNL     1      -4.401  12.737  22.006  0.00  0.00    +0.000 A 
ATOM     37  N   UNL     1      -3.089  12.679  21.688  0.00  0.00    +0.000 NA
ATOM     38  C   UNL     1      -2.255  13.628  22.211  0.00  0.00    +0.000 A 
ENDBRANCH  26  29
ENDBRANCH  23  25
ENDBRANCH   4  21
TORSDOF 7
ENDMDL
MODEL 4
REMARK VINA RESULT:      -7.4      2.760      4.382
REMARK  Name = 
REMARK  8 active torsions:
REMARK  status: ('A' for Active; 'I' for Inactive)
REMARK    1  A    between atoms: C_1  and  C_2
REMARK    2  A    between atoms: C_2  and  O_3
REMARK    3  A    between atoms: O_3  and  C_4
REMARK    4  A    between atoms: C_7  and  C_8
REMARK    5  A    between atoms: C_11  and  C_12
REMARK    6  A    between atoms: C_14  and  N_15
REMARK    7  A    between atoms: C_16  and  C_18
REMARK    8  A    between atoms: N_29  and  C_30
REMARK                            x       y       z     vdW  Elec       q    Type
REMARK                         _______ _______ _______ _____ _____    ______ ____
ROOT
ATOM      1  C   UNL     1      -0.312  12.852  21.696  0.00  0.00    +0.000 A 
ATOM      2  N   UNL     1      -0.332  11.556  21.953  0.00  0.00    +0.000 NA
ATOM      3  N   UNL     1      -0.127  10.872  20.793  0.00  0.00    +0.000 NA
ATOM      4  C   UNL     1       0.041  11.744  19.816  0.00  0.00    +0.000 A 
ATOM      5  N   UNL     1      -0.006  13.037  20.341  0.00  0.00    +0.000 N 
ENDROOT
BRANCH   1   9
ATOM      6  C   UNL     1      -0.998  15.835  24.624  0.00  0.00    +0.000 A 
ATOM      7  C   UNL     1      -1.891  14.771  24.519  0.00  0.00    +0.000 A 
ATOM      8  C   UNL     1      -1.694  13.789  23.542  0.00  0.00    +0.000 A 
ATOM      9  C   UNL     1      -0.600  13.891  22.692  0.00  0.00    +0.000 A 
ATOM     10  N   UNL     1       0.280  14.920  22.764  0.00  0.00    +0.000 NA
ATOM     11  C   UNL     1       0.066  15.850  23.734  0.00  0.00    +0.000 A 
BRANCH   6  12
ATOM     12  O   UNL     1      -1.070  16.864  25.520  0.00  0.00    +0.000 OA
BRANCH  12  14
ATOM     13  C   UNL     1       0.311  16.489  27.458  0.00  0.00    +0.000 C 
ATOM     14  C   UNL     1       0.157  17.240  26.147  0.00  0.00    +0.000 C 
ENDBRANCH  12  14
ENDBRANCH   6  12
ENDBRANCH   1   9
BRANCH   5  15
ATOM     15  C   UNL     1       0.304  14.260  19.682  0.00  0.00    +0.000 A 
ATOM     16  C   UNL     1      -0.683  15.148  19.254  0.00  0.00    +0.000 A 
ATOM     17  C   UNL     1      -0.315  16.355  18.659  0.00  0.00    +0.000 A 
ATOM     18  C   UNL     1       1.030  16.641  18.514  0.00  0.00    +0.000 A 
ATOM     19  N   UNL     1       2.012  15.798  18.882  0.00  0.00    +0.000 NA
ATOM     20  C   UNL     1       1.628  14.630  19.450  0.00  0.00    +0.000 A 
ENDBRANCH   5  15
BRANCH   4  21
ATOM     21  C   UNL     1       0.420  11.269  18.394  0.00  0.00    +0.000 C 
ATOM     22  C   UNL     1       1.904  10.810  18.276  0.00  0.00    +0.000 C 
ATOM     23  C   UNL     1       1.408   9.384  18.658  0.00  0.00    +0.000 C 
ATOM     24  C   UNL     1       0.068   9.803  18.001  0.00  0.00    +0.000 C 
BRANCH  23  25
ATOM     25  N   UNL     1       2.133   8.260  18.031  0.00  0.00    +0.000 N 
ATOM     26  C   UNL     1       2.423   7.126  18.750  0.00  0.00    +0.000 C 
ATOM     27  O   UNL     1       2.242   7.058  19.963  0.00  0.00    +0.000 OA
ATOM     28  H   UNL     1       2.199   8.183  17.014  0.00  0.00    +0.000 HD
BRANCH  26  29
ATOM     29  C   UNL     1       3.025   5.946  18.047  0.00  0.00    +0.000 A 
ATOM     30  C   UNL     1       2.227   4.792  17.993  0.00  0.00    +0.000 A 
ATOM     31  C   UNL     1       2.766   3.646  17.459  0.00  0.00    +0.000 A 
ATOM     32  N   UNL     1       4.039   3.569  17.041  0.00  0.00    +0.000 NA
ATOM     33  C   UNL     1       4.792   4.684  17.110  0.00  0.00    +0.000 A 
ATOM     34  C   UNL     1       6.132   4.579  16.782  0.00  0.00    +0.000 A 
ATOM     35  C   UNL     1       6.970   5.686  16.812  0.00  0.00    +0.000 A 
ATOM     36  C   UNL     1       6.410   6.906  17.122  0.00  0.00    +0.000 A 
ATOM     37  N   UNL     1       5.123   7.056  17.505  0.00  0.00    +0.000 NA
ATOM     38  C   UNL     1       4.327   5.945  17.543  0.00  0.00    +0.000 A 
ENDBRANCH  26  29
ENDBRANCH  23  25
ENDBRANCH   4  21
TORSDOF 7
ENDMDL
MODEL 5
REMARK VINA RESULT:      -7.4      3.129     10.805
REMARK  Name = 
REMARK  8 active torsions:
REMARK  status: ('A' for Active; 'I' for Inactive)
REMARK    1  A    between atoms: C_1  and  C_2
REMARK    2  A    between atoms: C_2  and  O_3
REMARK    3  A    between atoms: O_3  and  C_4
REMARK    4  A    between atoms: C_7  and  C_8
REMARK    5  A    between atoms: C_11  and  C_12
REMARK    6  A    between atoms: C_14  and  N_15
REMARK    7  A    between atoms: C_16  and  C_18
REMARK    8  A    between atoms: N_29  and  C_30
REMARK                            x       y       z     vdW  Elec       q    Type
REMARK                         _______ _______ _______ _____ _____    ______ ____
ROOT
ATOM      1  C   UNL     1       3.041   6.955  18.294  0.00  0.00    +0.000 A 
ATOM      2  N   UNL     1       3.034   8.275  18.232  0.00  0.00    +0.000 NA
ATOM      3  N   UNL     1       2.142   8.755  19.144  0.00  0.00    +0.000 NA
ATOM      4  C   UNL     1       1.609   7.734  19.787  0.00  0.00    +0.000 A 
ATOM      5  N   UNL     1       2.188   6.549  19.329  0.00  0.00    +0.000 N 
ENDROOT
BRANCH   1   9
ATOM      6  C   UNL     1       5.289   4.383  15.790  0.00  0.00    +0.000 A 
ATOM      7  C   UNL     1       5.537   5.753  15.751  0.00  0.00    +0.000 A 
ATOM      8  C   UNL     1       4.788   6.621  16.553  0.00  0.00    +0.000 A 
ATOM      9  C   UNL     1       3.807   6.095  17.385  0.00  0.00    +0.000 A 
ATOM     10  N   UNL     1       3.537   4.768  17.436  0.00  0.00    +0.000 NA
ATOM     11  C   UNL     1       4.292   3.951  16.653  0.00  0.00    +0.000 A 
BRANCH   6  12
ATOM     12  O   UNL     1       5.934   3.425  15.060  0.00  0.00    +0.000 OA
BRANCH  12  14
ATOM     13  C   UNL     1       5.548   3.472  12.682  0.00  0.00    +0.000 C 
ATOM     14  C   UNL     1       6.488   3.848  13.813  0.00  0.00    +0.000 C 
ENDBRANCH  12  14
ENDBRANCH   6  12
ENDBRANCH   1   9
BRANCH   5  15
ATOM     15  C   UNL     1       2.042   5.239  19.868  0.00  0.00    +0.000 A 
ATOM     16  C   UNL     1       2.697   4.833  21.030  0.00  0.00    +0.000 A 
ATOM     17  C   UNL     1       2.473   3.552  21.536  0.00  0.00    +0.000 A 
ATOM     18  C   UNL     1       1.598   2.717  20.867  0.00  0.00    +0.000 A 
ATOM     19  N   UNL     1       0.974   3.057  19.725  0.00  0.00    +0.000 NA
ATOM     20  C   UNL     1       1.213   4.303  19.251  0.00  0.00    +0.000 A 
ENDBRANCH   5  15
BRANCH   4  21
ATOM     21  C   UNL     1       0.649   7.968  20.976  0.00  0.00    +0.000 C 
ATOM     22  C   UNL     1       1.242   8.908  22.069  0.00  0.00    +0.000 C 
ATOM     23  C   UNL     1       0.608  10.091  21.278  0.00  0.00    +0.000 C 
ATOM     24  C   UNL     1      -0.453   9.059  20.816  0.00  0.00    +0.000 C 
BRANCH  23  25
ATOM     25  N   UNL     1       0.123  11.223  22.093  0.00  0.00    +0.000 N 
ATOM     26  C   UNL     1       0.007  12.479  21.548  0.00  0.00    +0.000 C 
ATOM     27  O   UNL     1       0.443  12.749  20.431  0.00  0.00    +0.000 OA
ATOM     28  H   UNL     1      -0.376  11.061  22.969  0.00  0.00    +0.000 HD
BRANCH  26  29
ATOM     29  C   UNL     1      -0.628  13.573  22.353  0.00  0.00    +0.000 A 
ATOM     30  C   UNL     1       0.095  14.774  22.433  0.00  0.00    +0.000 A 
ATOM     31  C   UNL     1      -0.382  15.775  23.245  0.00  0.00    +0.000 A 
ATOM     32  N   UNL     1      -1.477  15.630  24.008  0.00  0.00    +0.000 NA
ATOM     33  C   UNL     1      -2.153  14.467  23.926  0.00  0.00    +0.000 A 
ATOM     34  C   UNL     1      -3.216  14.275  24.790  0.00  0.00    +0.000 A 
ATOM     35  C   UNL     1      -3.971  13.110  24.755  0.00  0.00    +0.000 A 
ATOM     36  C   UNL     1      -3.663  12.175  23.792  0.00  0.00    +0.000 A 
ATOM     37  N   UNL     1      -2.603  12.285  22.962  0.00  0.00    +0.000 NA
ATOM     38  C   UNL     1      -1.822  13.404  23.057  0.00  0.00    +0.000 A 
ENDBRANCH  26  29
ENDBRANCH  23  25
ENDBRANCH   4  21
TORSDOF 7
ENDMDL
MODEL 6
REMARK VINA RESULT:      -7.3      2.688      4.512
REMARK  Name = 
REMARK  8 active torsions:
REMARK  status: ('A' for Active; 'I' for Inactive)
REMARK    1  A    between atoms: C_1  and  C_2
REMARK    2  A    between atoms: C_2  and  O_3
REMARK    3  A    between atoms: O_3  and  C_4
REMARK    4  A    between atoms: C_7  and  C_8
REMARK    5  A    between atoms: C_11  and  C_12
REMARK    6  A    between atoms: C_14  and  N_15
REMARK    7  A    between atoms: C_16  and  C_18
REMARK    8  A    between atoms: N_29  and  C_30
REMARK                            x       y       z     vdW  Elec       q    Type
REMARK                         _______ _______ _______ _____ _____    ______ ____
ROOT
ATOM      1  C   UNL     1      -2.653  11.072  18.360  0.00  0.00    +0.000 A 
ATOM      2  N   UNL     1      -2.320  10.102  17.527  0.00  0.00    +0.000 NA
ATOM      3  N   UNL     1      -0.972   9.916  17.581  0.00  0.00    +0.000 NA
ATOM      4  C   UNL     1      -0.467  10.758  18.463  0.00  0.00    +0.000 A 
ATOM      5  N   UNL     1      -1.504  11.490  19.045  0.00  0.00    +0.000 N 
ENDROOT
BRANCH   1   9
ATOM      6  C   UNL     1      -6.590  12.551  18.863  0.00  0.00    +0.000 A 
ATOM      7  C   UNL     1      -6.227  11.996  17.638  0.00  0.00    +0.000 A 
ATOM      8  C   UNL     1      -4.924  11.524  17.445  0.00  0.00    +0.000 A 
ATOM      9  C   UNL     1      -4.011  11.613  18.489  0.00  0.00    +0.000 A 
ATOM     10  N   UNL     1      -4.333  12.157  19.688  0.00  0.00    +0.000 NA
ATOM     11  C   UNL     1      -5.613  12.594  19.846  0.00  0.00    +0.000 A 
BRANCH   6  12
ATOM     12  O   UNL     1      -7.818  13.056  19.188  0.00  0.00    +0.000 OA
BRANCH  12  14
ATOM     13  C   UNL     1      -7.915  14.929  20.701  0.00  0.00    +0.000 C 
ATOM     14  C   UNL     1      -7.916  14.479  19.250  0.00  0.00    +0.000 C 
ENDBRANCH  12  14
ENDBRANCH   6  12
ENDBRANCH   1   9
BRANCH   5  15
ATOM     15  C   UNL     1      -1.433  12.371  20.161  0.00  0.00    +0.000 A 
ATOM     16  C   UNL     1      -1.364  13.756  20.015  0.00  0.00    +0.000 A 
ATOM     17  C   UNL     1      -1.348  14.569  21.149  0.00  0.00    +0.000 A 
ATOM     18  C   UNL     1      -1.406  13.973  22.395  0.00  0.00    +0.000 A 
ATOM     19  N   UNL     1      -1.440  12.641  22.580  0.00  0.00    +0.000 NA
ATOM     20  C   UNL     1      -1.447  11.874  21.464  0.00  0.00    +0.000 A 
ENDBRANCH   5  15
BRANCH   4  21
ATOM     21  C   UNL     1       1.031  10.699  18.839  0.00  0.00    +0.000 C 
ATOM     22  C   UNL     1       1.347   9.641  19.938  0.00  0.00    +0.000 C 
ATOM     23  C   UNL     1       1.561   8.622  18.780  0.00  0.00    +0.000 C 
ATOM     24  C   UNL     1       1.974   9.852  17.932  0.00  0.00    +0.000 C 
BRANCH  23  25
ATOM     25  N   UNL     1       2.598   7.595  19.010  0.00  0.00    +0.000 N 
ATOM     26  C   UNL     1       2.484   6.347  18.446  0.00  0.00    +0.000 C 
ATOM     27  O   UNL     1       1.461   5.981  17.871  0.00  0.00    +0.000 OA
ATOM     28  H   UNL     1       3.523   7.854  19.355  0.00  0.00    +0.000 HD
BRANCH  26  29
ATOM     29  C   UNL     1       3.621   5.378  18.573  0.00  0.00    +0.000 A 
ATOM     30  C   UNL     1       3.321   4.161  19.205  0.00  0.00    +0.000 A 
ATOM     31  C   UNL     1       4.345   3.277  19.448  0.00  0.00    +0.000 A 
ATOM     32  N   UNL     1       5.626   3.554  19.160  0.00  0.00    +0.000 NA
ATOM     33  C   UNL     1       5.897   4.732  18.562  0.00  0.00    +0.000 A 
ATOM     34  C   UNL     1       7.224   5.065  18.364  0.00  0.00    +0.000 A 
ATOM     35  C   UNL     1       7.583   6.253  17.740  0.00  0.00    +0.000 A 
ATOM     36  C   UNL     1       6.571   7.063  17.273  0.00  0.00    +0.000 A 
ATOM     37  N   UNL     1       5.262   6.814  17.490  0.00  0.00    +0.000 NA
ATOM     38  C   UNL     1       4.924   5.678  18.171  0.00  0.00    +0.000 A 
ENDBRANCH  26  29
ENDBRANCH  23  25
ENDBRANCH   4  21
TORSDOF 7
ENDMDL
MODEL 7
REMARK VINA RESULT:      -7.3      2.735      3.993
REMARK  Name = 
REMARK  8 active torsions:
REMARK  status: ('A' for Active; 'I' for Inactive)
REMARK    1  A    between atoms: C_1  and  C_2
REMARK    2  A    between atoms: C_2  and  O_3
REMARK    3  A    between atoms: O_3  and  C_4
REMARK    4  A    between atoms: C_7  and  C_8
REMARK    5  A    between atoms: C_11  and  C_12
REMARK    6  A    between atoms: C_14  and  N_15
REMARK    7  A    between atoms: C_16  and  C_18
REMARK    8  A    between atoms: N_29  and  C_30
REMARK                            x       y       z     vdW  Elec       q    Type
REMARK                         _______ _______ _______ _____ _____    ______ ____
ROOT
ATOM      1  C   UNL     1      -0.895  12.809  21.874  0.00  0.00    +0.000 A 
ATOM      2  N   UNL     1      -1.041  11.506  22.029  0.00  0.00    +0.000 NA
ATOM      3  N   UNL     1      -0.760  10.885  20.849  0.00  0.00    +0.000 NA
ATOM      4  C   UNL     1      -0.420  11.803  19.964  0.00  0.00    +0.000 A 
ATOM      5  N   UNL     1      -0.428  13.058  20.576  0.00  0.00    +0.000 N 
ENDROOT
BRANCH   1   9
ATOM      6  C   UNL     1      -1.675  15.639  24.928  0.00  0.00    +0.000 A 
ATOM      7  C   UNL     1      -2.624  14.656  24.657  0.00  0.00    +0.000 A 
ATOM      8  C   UNL     1      -2.395  13.727  23.636  0.00  0.00    +0.000 A 
ATOM      9  C   UNL     1      -1.212  13.800  22.909  0.00  0.00    +0.000 A 
ATOM     10  N   UNL     1      -0.276  14.751  23.143  0.00  0.00    +0.000 NA
ATOM     11  C   UNL     1      -0.525  15.630  24.152  0.00  0.00    +0.000 A 
BRANCH   6  12
ATOM     12  O   UNL     1      -1.769  16.610  25.884  0.00  0.00    +0.000 OA
BRANCH  12  14
ATOM     13  C   UNL     1      -0.246  18.006  27.126  0.00  0.00    +0.000 C 
ATOM     14  C   UNL     1      -0.763  16.596  26.898  0.00  0.00    +0.000 C 
ENDBRANCH  12  14
ENDBRANCH   6  12
ENDBRANCH   1   9
BRANCH   5  15
ATOM     15  C   UNL     1       0.044  14.292  20.047  0.00  0.00    +0.000 A 
ATOM     16  C   UNL     1       1.402  14.593  19.952  0.00  0.00    +0.000 A 
ATOM     17  C   UNL     1       1.804  15.799  19.377  0.00  0.00    +0.000 A 
ATOM     18  C   UNL     1       0.834  16.667  18.909  0.00  0.00    +0.000 A 
ATOM     19  N   UNL     1      -0.486  16.431  19.012  0.00  0.00    +0.000 NA
ATOM     20  C   UNL     1      -0.850  15.256  19.581  0.00  0.00    +0.000 A 
ENDBRANCH   5  15
BRANCH   4  21
ATOM     21  C   UNL     1       0.078  11.394  18.558  0.00  0.00    +0.000 C 
ATOM     22  C   UNL     1       1.596  11.047  18.521  0.00  0.00    +0.000 C 
ATOM     23  C   UNL     1       1.186   9.580  18.842  0.00  0.00    +0.000 C 
ATOM     24  C   UNL     1      -0.140   9.916  18.113  0.00  0.00    +0.000 C 
BRANCH  23  25
ATOM     25  N   UNL     1       2.029   8.529  18.237  0.00  0.00    +0.000 N 
ATOM     26  C   UNL     1       2.399   7.424  18.964  0.00  0.00    +0.000 C 
ATOM     27  O   UNL     1       2.189   7.336  20.172  0.00  0.00    +0.000 OA
ATOM     28  H   UNL     1       2.132   8.460  17.223  0.00  0.00    +0.000 HD
BRANCH  26  29
ATOM     29  C   UNL     1       3.127   6.305  18.280  0.00  0.00    +0.000 A 
ATOM     30  C   UNL     1       4.210   6.684  17.471  0.00  0.00    +0.000 A 
ATOM     31  C   UNL     1       4.848   5.715  16.733  0.00  0.00    +0.000 A 
ATOM     32  N   UNL     1       4.443   4.436  16.710  0.00  0.00    +0.000 NA
ATOM     33  C   UNL     1       3.395   4.093  17.486  0.00  0.00    +0.000 A 
ATOM     34  C   UNL     1       2.909   2.803  17.380  0.00  0.00    +0.000 A 
ATOM     35  C   UNL     1       1.843   2.369  18.159  0.00  0.00    +0.000 A 
ATOM     36  C   UNL     1       1.323   3.249  19.081  0.00  0.00    +0.000 A 
ATOM     37  N   UNL     1       1.721   4.536  19.186  0.00  0.00    +0.000 NA
ATOM     38  C   UNL     1       2.721   4.972  18.362  0.00  0.00    +0.000 A 
ENDBRANCH  26  29
ENDBRANCH  23  25
ENDBRANCH   4  21
TORSDOF 7
ENDMDL
MODEL 8
REMARK VINA RESULT:      -7.3      2.921      3.907
REMARK  Name = 
REMARK  8 active torsions:
REMARK  status: ('A' for Active; 'I' for Inactive)
REMARK    1  A    between atoms: C_1  and  C_2
REMARK    2  A    between atoms: C_2  and  O_3
REMARK    3  A    between atoms: O_3  and  C_4
REMARK    4  A    between atoms: C_7  and  C_8
REMARK    5  A    between atoms: C_11  and  C_12
REMARK    6  A    between atoms: C_14  and  N_15
REMARK    7  A    between atoms: C_16  and  C_18
REMARK    8  A    between atoms: N_29  and  C_30
REMARK                            x       y       z     vdW  Elec       q    Type
REMARK                         _______ _______ _______ _____ _____    ______ ____
ROOT
ATOM      1  C   UNL     1       2.249  13.463  19.715  0.00  0.00    +0.000 A 
ATOM      2  N   UNL     1       2.846  13.180  18.571  0.00  0.00    +0.000 NA
ATOM      3  N   UNL     1       2.345  12.008  18.089  0.00  0.00    +0.000 NA
ATOM      4  C   UNL     1       1.421  11.572  18.924  0.00  0.00    +0.000 A 
ATOM      5  N   UNL     1       1.267  12.494  19.963  0.00  0.00    +0.000 N 
ENDROOT
BRANCH   1   9
ATOM      6  C   UNL     1       3.236  16.667  22.304  0.00  0.00    +0.000 A 
ATOM      7  C   UNL     1       2.485  16.927  21.160  0.00  0.00    +0.000 A 
ATOM      8  C   UNL     1       2.170  15.886  20.281  0.00  0.00    +0.000 A 
ATOM      9  C   UNL     1       2.610  14.600  20.570  0.00  0.00    +0.000 A 
ATOM     10  N   UNL     1       3.351  14.319  21.669  0.00  0.00    +0.000 NA
ATOM     11  C   UNL     1       3.629  15.352  22.510  0.00  0.00    +0.000 A 
BRANCH   6  12
ATOM     12  O   UNL     1       3.624  17.583  23.241  0.00  0.00    +0.000 OA
BRANCH  12  14
ATOM     13  C   UNL     1       2.386  17.984  25.270  0.00  0.00    +0.000 C 
ATOM     14  C   UNL     1       3.491  17.181  24.606  0.00  0.00    +0.000 C 
ENDBRANCH  12  14
ENDBRANCH   6  12
ENDBRANCH   1   9
BRANCH   5  15
ATOM     15  C   UNL     1       0.267  12.513  20.974  0.00  0.00    +0.000 A 
ATOM     16  C   UNL     1      -0.757  13.460  20.992  0.00  0.00    +0.000 A 
ATOM     17  C   UNL     1      -1.739  13.395  21.983  0.00  0.00    +0.000 A 
ATOM     18  C   UNL     1      -1.669  12.383  22.922  0.00  0.00    +0.000 A 
ATOM     19  N   UNL     1      -0.680  11.473  22.960  0.00  0.00    +0.000 NA
ATOM     20  C   UNL     1       0.264  11.561  21.993  0.00  0.00    +0.000 A 
ENDBRANCH   5  15
BRANCH   4  21
ATOM     21  C   UNL     1       0.578  10.322  18.582  0.00  0.00    +0.000 C 
ATOM     22  C   UNL     1       1.285   9.360  17.581  0.00  0.00    +0.000 C 
ATOM     23  C   UNL     1       1.899   8.650  18.823  0.00  0.00    +0.000 C 
ATOM     24  C   UNL     1       0.627   9.121  19.574  0.00  0.00    +0.000 C 
BRANCH  23  25
ATOM     25  N   UNL     1       2.096   7.192  18.699  0.00  0.00    +0.000 N 
ATOM     26  C   UNL     1       3.269   6.684  18.196  0.00  0.00    +0.000 C 
ATOM     27  O   UNL     1       4.126   7.402  17.685  0.00  0.00    +0.000 OA
ATOM     28  H   UNL     1       1.503   6.538  19.213  0.00  0.00    +0.000 HD
BRANCH  26  29
ATOM     29  C   UNL     1       3.498   5.203  18.221  0.00  0.00    +0.000 A 
ATOM     30  C   UNL     1       4.158   4.665  17.104  0.00  0.00    +0.000 A 
ATOM     31  C   UNL     1       4.300   3.300  17.020  0.00  0.00    +0.000 A 
ATOM     32  N   UNL     1       3.784   2.459  17.929  0.00  0.00    +0.000 NA
ATOM     33  C   UNL     1       3.146   2.993  18.990  0.00  0.00    +0.000 A 
ATOM     34  C   UNL     1       2.521   2.128  19.870  0.00  0.00    +0.000 A 
ATOM     35  C   UNL     1       1.858   2.600  20.995  0.00  0.00    +0.000 A 
ATOM     36  C   UNL     1       1.891   3.956  21.237  0.00  0.00    +0.000 A 
ATOM     37  N   UNL     1       2.436   4.849  20.383  0.00  0.00    +0.000 NA
ATOM     38  C   UNL     1       3.022   4.377  19.242  0.00  0.00    +0.000 A 
ENDBRANCH  26  29
ENDBRANCH  23  25
ENDBRANCH   4  21
TORSDOF 7
ENDMDL
MODEL 9
REMARK VINA RESULT:      -7.3      3.392     10.413
REMARK  Name = 
REMARK  8 active torsions:
REMARK  status: ('A' for Active; 'I' for Inactive)
REMARK    1  A    between atoms: C_1  and  C_2
REMARK    2  A    between atoms: C_2  and  O_3
REMARK    3  A    between atoms: O_3  and  C_4
REMARK    4  A    between atoms: C_7  and  C_8
REMARK    5  A    between atoms: C_11  and  C_12
REMARK    6  A    between atoms: C_14  and  N_15
REMARK    7  A    between atoms: C_16  and  C_18
REMARK    8  A    between atoms: N_29  and  C_30
REMARK                            x       y       z     vdW  Elec       q    Type
REMARK                         _______ _______ _______ _____ _____    ______ ____
ROOT
ATOM      1  C   UNL     1       1.998   8.292  18.998  0.00  0.00    +0.000 A 
ATOM      2  N   UNL     1       2.402   8.744  17.824  0.00  0.00    +0.000 NA
ATOM      3  N   UNL     1       1.895   9.994  17.633  0.00  0.00    +0.000 NA
ATOM      4  C   UNL     1       1.192  10.329  18.698  0.00  0.00    +0.000 A 
ATOM      5  N   UNL     1       1.268   9.301  19.641  0.00  0.00    +0.000 N 
ENDROOT
BRANCH   1   9
ATOM      6  C   UNL     1       2.784   4.333  20.281  0.00  0.00    +0.000 A 
ATOM      7  C   UNL     1       1.691   5.013  20.813  0.00  0.00    +0.000 A 
ATOM      8  C   UNL     1       1.430   6.330  20.419  0.00  0.00    +0.000 A 
ATOM      9  C   UNL     1       2.268   6.938  19.493  0.00  0.00    +0.000 A 
ATOM     10  N   UNL     1       3.345   6.304  18.966  0.00  0.00    +0.000 NA
ATOM     11  C   UNL     1       3.562   5.020  19.361  0.00  0.00    +0.000 A 
BRANCH   6  12
ATOM     12  O   UNL     1       3.162   3.054  20.579  0.00  0.00    +0.000 OA
BRANCH  12  14
ATOM     13  C   UNL     1       5.023   1.527  20.459  0.00  0.00    +0.000 C 
ATOM     14  C   UNL     1       4.097   2.450  19.684  0.00  0.00    +0.000 C 
ENDBRANCH  12  14
ENDBRANCH   6  12
ENDBRANCH   1   9
BRANCH   5  15
ATOM     15  C   UNL     1       0.813   9.316  20.989  0.00  0.00    +0.000 A 
ATOM     16  C   UNL     1      -0.514   9.060  21.332  0.00  0.00    +0.000 A 
ATOM     17  C   UNL     1      -0.888   9.039  22.677  0.00  0.00    +0.000 A 
ATOM     18  C   UNL     1       0.079   9.270  23.638  0.00  0.00    +0.000 A 
ATOM     19  N   UNL     1       1.361   9.554  23.349  0.00  0.00    +0.000 NA
ATOM     20  C   UNL     1       1.697   9.576  22.037  0.00  0.00    +0.000 A 
ENDBRANCH   5  15
BRANCH   4  21
ATOM     21  C   UNL     1       0.593  11.748  18.832  0.00  0.00    +0.000 C 
ATOM     22  C   UNL     1      -0.566  12.023  17.828  0.00  0.00    +0.000 C 
ATOM     23  C   UNL     1      -1.531  11.474  18.919  0.00  0.00    +0.000 C 
ATOM     24  C   UNL     1      -0.479  11.982  19.938  0.00  0.00    +0.000 C 
BRANCH  23  25
ATOM     25  N   UNL     1      -2.866  12.104  18.973  0.00  0.00    +0.000 N 
ATOM     26  C   UNL     1      -3.945  11.513  18.362  0.00  0.00    +0.000 C 
ATOM     27  O   UNL     1      -3.823  10.540  17.621  0.00  0.00    +0.000 OA
ATOM     28  H   UNL     1      -3.076  12.826  19.665  0.00  0.00    +0.000 HD
BRANCH  26  29
ATOM     29  C   UNL     1      -5.312  12.097  18.559  0.00  0.00    +0.000 A 
ATOM     30  C   UNL     1      -6.065  12.303  17.393  0.00  0.00    +0.000 A 
ATOM     31  C   UNL     1      -7.281  12.935  17.499  0.00  0.00    +0.000 A 
ATOM     32  N   UNL     1      -7.751  13.414  18.662  0.00  0.00    +0.000 NA
ATOM     33  C   UNL     1      -7.009  13.215  19.770  0.00  0.00    +0.000 A 
ATOM     34  C   UNL     1      -7.438  13.801  20.947  0.00  0.00    +0.000 A 
ATOM     35  C   UNL     1      -6.738  13.628  22.134  0.00  0.00    +0.000 A 
ATOM     36  C   UNL     1      -5.633  12.806  22.113  0.00  0.00    +0.000 A 
ATOM     37  N   UNL     1      -5.139  12.256  20.983  0.00  0.00    +0.000 NA
ATOM     38  C   UNL     1      -5.795  12.494  19.808  0.00  0.00    +0.000 A 
ENDBRANCH  26  29
ENDBRANCH  23  25
ENDBRANCH   4  21
TORSDOF 7
ENDMDL
