MODEL 1
REMARK VINA RESULT:      -7.1      0.000      0.000
REMARK  Name = 
REMARK  8 active torsions:
REMARK  status: ('A' for Active; 'I' for Inactive)
REMARK    1  A    between atoms: C_1  and  C_2
REMARK    2  A    between atoms: C_2  and  C_3
REMARK    3  A    between atoms: C_2  and  N_11
REMARK    4  A    between atoms: C_13  and  C_14
REMARK    5  A    between atoms: C_22  and  C_23
REMARK    6  A    between atoms: N_27  and  C_28
REMARK    7  A    between atoms: C_28  and  C_29
REMARK    8  A    between atoms: C_29  and  O_30
REMARK                            x       y       z     vdW  Elec       q    Type
REMARK                         _______ _______ _______ _____ _____    ______ ____
ROOT
ATOM      1  N   UNL     1      -1.037  12.576  19.339  0.00  0.00    +0.000 N 
ATOM      2  N   UNL     1      -0.993  13.938  19.281  0.00  0.00    +0.000 NA
ATOM      3  C   UNL     1       0.243  14.186  18.804  0.00  0.00    +0.000 A 
ATOM      4  C   UNL     1       0.980  13.014  18.554  0.00  0.00    +0.000 A 
ATOM      5  N   UNL     1       2.236  12.768  18.085  0.00  0.00    +0.000 NA
ATOM      6  C   UNL     1       2.524  11.434  18.050  0.00  0.00    +0.000 A 
ATOM      7  C   UNL     1       1.660  10.403  18.437  0.00  0.00    +0.000 A 
ATOM      8  N   UNL     1       2.056   9.070  18.446  0.00  0.00    +0.000 N 
ATOM      9  C   UNL     1       1.270   7.932  18.769  0.00  0.00    +0.000 C 
ATOM     10  C   UNL     1       2.576   7.120  18.671  0.00  0.00    +0.000 C 
ATOM     11  C   UNL     1       3.092   8.317  17.825  0.00  0.00    +0.000 C 
ATOM     12  N   UNL     1       0.410  10.670  18.888  0.00  0.00    +0.000 NA
ATOM     13  C   UNL     1       0.129  11.985  18.924  0.00  0.00    +0.000 A 
ENDROOT
BRANCH  10  14
ATOM     14  C   UNL     1       2.454   5.714  18.083  0.00  0.00    +0.000 C 
ATOM     15  C   UNL     1       3.809   5.260  17.531  0.00  0.00    +0.000 C 
ATOM     16  C   UNL     1       3.765   3.787  17.139  0.00  0.00    +0.000 C 
ATOM     17  C   UNL     1       3.250   2.920  18.289  0.00  0.00    +0.000 C 
ATOM     18  N   UNL     1       1.912   3.362  18.731  0.00  0.00    +0.000 NA
ATOM     19  C   UNL     1       1.975   4.755  19.193  0.00  0.00    +0.000 C 
BRANCH  18  20
ATOM     20  C   UNL     1       1.421   2.445  19.790  0.00  0.00    +0.000 C 
BRANCH  20  21
ATOM     21  C   UNL     1       1.466   3.025  21.215  0.00  0.00    +0.000 C 
BRANCH  21  22
ATOM     22  O   UNL     1       2.580   2.515  21.941  0.00  0.00    +0.000 OA
ATOM     23  H   UNL     1       3.101   3.298  22.204  0.00  0.00    +0.000 HD
ENDBRANCH  21  22
ENDBRANCH  20  21
ENDBRANCH  18  20
ENDBRANCH  10  14
BRANCH   1  25
ATOM     24  C   UNL     1      -3.214  11.526  18.694  0.00  0.00    +0.000 C 
ATOM     25  C   UNL     1      -2.230  11.863  19.818  0.00  0.00    +0.000 C 
BRANCH  25  26
ATOM     26  C   UNL     1      -2.893  12.634  20.956  0.00  0.00    +0.000 A 
ATOM     27  C   UNL     1      -4.040  13.414  20.701  0.00  0.00    +0.000 A 
ATOM     28  C   UNL     1      -4.616  14.202  21.701  0.00  0.00    +0.000 A 
ATOM     29  C   UNL     1      -4.068  14.209  22.978  0.00  0.00    +0.000 A 
ATOM     30 CL   UNL     1      -4.740  15.223  24.194  0.00  0.00    +0.000 Cl
ATOM     31  C   UNL     1      -2.974  13.403  23.276  0.00  0.00    +0.000 A 
ATOM     32  C   UNL     1      -2.393  12.616  22.271  0.00  0.00    +0.000 A 
ATOM     33 CL   UNL     1      -1.064  11.617  22.749  0.00  0.00    +0.000 Cl
ENDBRANCH  25  26
ENDBRANCH   1  25
BRANCH   3  34
ATOM     34  C   UNL     1       0.675  15.536  18.613  0.00  0.00    +0.000 C 
ATOM     35  N   UNL     1       1.030  16.634  18.465  0.00  0.00    +0.000 NA
ENDBRANCH   3  34
TORSDOF 7
ENDMDL
MODEL 2
REMARK VINA RESULT:      -6.8      1.613      2.236
REMARK  Name = 
REMARK  8 active torsions:
REMARK  status: ('A' for Active; 'I' for Inactive)
REMARK    1  A    between atoms: C_1  and  C_2
REMARK    2  A    between atoms: C_2  and  C_3
REMARK    3  A    between atoms: C_2  and  N_11
REMARK    4  A    between atoms: C_13  and  C_14
REMARK    5  A    between atoms: C_22  and  C_23
REMARK    6  A    between atoms: N_27  and  C_28
REMARK    7  A    between atoms: C_28  and  C_29
REMARK    8  A    between atoms: C_29  and  O_30
REMARK                            x       y       z     vdW  Elec       q    Type
REMARK                         _______ _______ _______ _____ _____    ______ ____
ROOT
ATOM      1  N   UNL     1      -0.484  13.036  20.024  0.00  0.00    +0.000 N 
ATOM      2  N   UNL     1      -0.424  14.392  19.889  0.00  0.00    +0.000 NA
ATOM      3  C   UNL     1       0.633  14.573  19.072  0.00  0.00    +0.000 A 
ATOM      4  C   UNL     1       1.238  13.365  18.681  0.00  0.00    +0.000 A 
ATOM      5  N   UNL     1       2.303  13.052  17.890  0.00  0.00    +0.000 NA
ATOM      6  C   UNL     1       2.535  11.707  17.841  0.00  0.00    +0.000 A 
ATOM      7  C   UNL     1       1.790  10.727  18.505  0.00  0.00    +0.000 A 
ATOM      8  N   UNL     1       2.137   9.381  18.468  0.00  0.00    +0.000 N 
ATOM      9  C   UNL     1       1.446   8.288  19.054  0.00  0.00    +0.000 C 
ATOM     10  C   UNL     1       2.650   7.423  18.632  0.00  0.00    +0.000 C 
ATOM     11  C   UNL     1       2.935   8.565  17.618  0.00  0.00    +0.000 C 
ATOM     12  N   UNL     1       0.726  11.059  19.277  0.00  0.00    +0.000 NA
ATOM     13  C   UNL     1       0.501  12.385  19.327  0.00  0.00    +0.000 A 
ENDROOT
BRANCH  10  14
ATOM     14  C   UNL     1       2.330   6.001  18.172  0.00  0.00    +0.000 C 
ATOM     15  C   UNL     1       3.573   5.364  17.544  0.00  0.00    +0.000 C 
ATOM     16  C   UNL     1       3.343   3.880  17.277  0.00  0.00    +0.000 C 
ATOM     17  C   UNL     1       2.852   3.158  18.533  0.00  0.00    +0.000 C 
ATOM     18  N   UNL     1       1.614   3.774  19.051  0.00  0.00    +0.000 NA
ATOM     19  C   UNL     1       1.862   5.180  19.393  0.00  0.00    +0.000 C 
BRANCH  18  20
ATOM     20  C   UNL     1       1.133   2.992  20.219  0.00  0.00    +0.000 C 
BRANCH  20  21
ATOM     21  C   UNL     1       2.238   2.550  21.195  0.00  0.00    +0.000 C 
BRANCH  21  22
ATOM     22  O   UNL     1       2.202   3.317  22.394  0.00  0.00    +0.000 OA
ATOM     23  H   UNL     1       2.254   2.667  23.121  0.00  0.00    +0.000 HD
ENDBRANCH  21  22
ENDBRANCH  20  21
ENDBRANCH  18  20
ENDBRANCH  10  14
BRANCH   1  25
ATOM     24  C   UNL     1      -1.052  11.047  21.432  0.00  0.00    +0.000 C 
ATOM     25  C   UNL     1      -1.511  12.389  20.854  0.00  0.00    +0.000 C 
BRANCH  25  26
ATOM     26  C   UNL     1      -2.823  12.269  20.084  0.00  0.00    +0.000 A 
ATOM     27  C   UNL     1      -2.834  11.677  18.804  0.00  0.00    +0.000 A 
ATOM     28  C   UNL     1      -4.002  11.634  18.037  0.00  0.00    +0.000 A 
ATOM     29  C   UNL     1      -5.183  12.164  18.544  0.00  0.00    +0.000 A 
ATOM     30 CL   UNL     1      -6.606  12.164  17.578  0.00  0.00    +0.000 Cl
ATOM     31  C   UNL     1      -5.217  12.699  19.827  0.00  0.00    +0.000 A 
ATOM     32  C   UNL     1      -4.044  12.747  20.595  0.00  0.00    +0.000 A 
ATOM     33 CL   UNL     1      -4.197  13.393  22.193  0.00  0.00    +0.000 Cl
ENDBRANCH  25  26
ENDBRANCH   1  25
BRANCH   3  34
ATOM     34  C   UNL     1       1.027  15.897  18.701  0.00  0.00    +0.000 C 
ATOM     35  N   UNL     1       1.349  16.971  18.391  0.00  0.00    +0.000 NA
ENDBRANCH   3  34
TORSDOF 7
ENDMDL
MODEL 3
REMARK VINA RESULT:      -6.8      3.139      5.180
REMARK  Name = 
REMARK  8 active torsions:
REMARK  status: ('A' for Active; 'I' for Inactive)
REMARK    1  A    between atoms: C_1  and  C_2
REMARK    2  A    between atoms: C_2  and  C_3
REMARK    3  A    between atoms: C_2  and  N_11
REMARK    4  A    between atoms: C_13  and  C_14
REMARK    5  A    between atoms: C_22  and  C_23
REMARK    6  A    between atoms: N_27  and  C_28
REMARK    7  A    between atoms: C_28  and  C_29
REMARK    8  A    between atoms: C_29  and  O_30
REMARK                            x       y       z     vdW  Elec       q    Type
REMARK                         _______ _______ _______ _____ _____    ______ ____
ROOT
ATOM      1  N   UNL     1      -1.133  12.296  20.190  0.00  0.00    +0.000 N 
ATOM      2  N   UNL     1      -1.945  13.051  20.984  0.00  0.00    +0.000 NA
ATOM      3  C   UNL     1      -1.936  12.384  22.156  0.00  0.00    +0.000 A 
ATOM      4  C   UNL     1      -1.134  11.228  22.123  0.00  0.00    +0.000 A 
ATOM      5  N   UNL     1      -0.826  10.264  23.035  0.00  0.00    +0.000 NA
ATOM      6  C   UNL     1      -0.015   9.297  22.514  0.00  0.00    +0.000 A 
ATOM      7  C   UNL     1       0.472   9.262  21.203  0.00  0.00    +0.000 A 
ATOM      8  N   UNL     1       1.231   8.201  20.724  0.00  0.00    +0.000 N 
ATOM      9  C   UNL     1       1.822   8.064  19.440  0.00  0.00    +0.000 C 
ATOM     10  C   UNL     1       2.191   6.629  19.866  0.00  0.00    +0.000 C 
ATOM     11  C   UNL     1       2.007   7.163  21.314  0.00  0.00    +0.000 C 
ATOM     12  N   UNL     1       0.165  10.240  20.316  0.00  0.00    +0.000 NA
ATOM     13  C   UNL     1      -0.637  11.189  20.830  0.00  0.00    +0.000 A 
ENDROOT
BRANCH  10  14
ATOM     14  C   UNL     1       3.537   6.102  19.368  0.00  0.00    +0.000 C 
ATOM     15  C   UNL     1       3.625   4.592  19.607  0.00  0.00    +0.000 C 
ATOM     16  C   UNL     1       4.859   4.010  18.926  0.00  0.00    +0.000 C 
ATOM     17  C   UNL     1       4.917   4.401  17.449  0.00  0.00    +0.000 C 
ATOM     18  N   UNL     1       4.897   5.869  17.286  0.00  0.00    +0.000 NA
ATOM     19  C   UNL     1       3.664   6.419  17.863  0.00  0.00    +0.000 C 
BRANCH  18  20
ATOM     20  C   UNL     1       5.035   6.201  15.845  0.00  0.00    +0.000 C 
BRANCH  20  21
ATOM     21  C   UNL     1       6.106   5.386  15.097  0.00  0.00    +0.000 C 
BRANCH  21  22
ATOM     22  O   UNL     1       7.415   5.732  15.538  0.00  0.00    +0.000 OA
ATOM     23  H   UNL     1       7.305   6.056  16.452  0.00  0.00    +0.000 HD
ENDBRANCH  21  22
ENDBRANCH  20  21
ENDBRANCH  18  20
ENDBRANCH  10  14
BRANCH   1  25
ATOM     24  C   UNL     1      -1.031  11.495  17.822  0.00  0.00    +0.000 C 
ATOM     25  C   UNL     1      -0.860  12.667  18.794  0.00  0.00    +0.000 C 
BRANCH  25  26
ATOM     26  C   UNL     1       0.512  13.324  18.673  0.00  0.00    +0.000 A 
ATOM     27  C   UNL     1       1.632  12.548  18.309  0.00  0.00    +0.000 A 
ATOM     28  C   UNL     1       2.915  13.101  18.279  0.00  0.00    +0.000 A 
ATOM     29  C   UNL     1       3.098  14.443  18.591  0.00  0.00    +0.000 A 
ATOM     30 CL   UNL     1       4.684  15.109  18.611  0.00  0.00    +0.000 Cl
ATOM     31  C   UNL     1       2.005  15.248  18.893  0.00  0.00    +0.000 A 
ATOM     32  C   UNL     1       0.718  14.692  18.929  0.00  0.00    +0.000 A 
ATOM     33 CL   UNL     1      -0.581  15.782  19.275  0.00  0.00    +0.000 Cl
ENDBRANCH  25  26
ENDBRANCH   1  25
BRANCH   3  34
ATOM     34  C   UNL     1      -2.702  12.874  23.260  0.00  0.00    +0.000 C 
ATOM     35  N   UNL     1      -3.320  13.267  24.164  0.00  0.00    +0.000 NA
ENDBRANCH   3  34
TORSDOF 7
ENDMDL
MODEL 4
REMARK VINA RESULT:      -6.7      3.204      4.946
REMARK  Name = 
REMARK  8 active torsions:
REMARK  status: ('A' for Active; 'I' for Inactive)
REMARK    1  A    between atoms: C_1  and  C_2
REMARK    2  A    between atoms: C_2  and  C_3
REMARK    3  A    between atoms: C_2  and  N_11
REMARK    4  A    between atoms: C_13  and  C_14
REMARK    5  A    between atoms: C_22  and  C_23
REMARK    6  A    between atoms: N_27  and  C_28
REMARK    7  A    between atoms: C_28  and  C_29
REMARK    8  A    between atoms: C_29  and  O_30
REMARK                            x       y       z     vdW  Elec       q    Type
REMARK                         _______ _______ _______ _____ _____    ______ ____
ROOT
ATOM      1  N   UNL     1       0.675  12.888  21.189  0.00  0.00    +0.000 N 
ATOM      2  N   UNL     1      -0.170  13.681  21.908  0.00  0.00    +0.000 NA
ATOM      3  C   UNL     1      -0.909  12.793  22.603  0.00  0.00    +0.000 A 
ATOM      4  C   UNL     1      -0.547  11.458  22.346  0.00  0.00    +0.000 A 
ATOM      5  N   UNL     1      -0.996  10.252  22.796  0.00  0.00    +0.000 NA
ATOM      6  C   UNL     1      -0.340   9.205  22.215  0.00  0.00    +0.000 A 
ATOM      7  C   UNL     1       0.682   9.310  21.266  0.00  0.00    +0.000 A 
ATOM      8  N   UNL     1       1.248   8.193  20.661  0.00  0.00    +0.000 N 
ATOM      9  C   UNL     1       2.316   8.158  19.725  0.00  0.00    +0.000 C 
ATOM     10  C   UNL     1       2.020   6.652  19.586  0.00  0.00    +0.000 C 
ATOM     11  C   UNL     1       1.323   6.805  20.967  0.00  0.00    +0.000 C 
ATOM     12  N   UNL     1       1.123  10.520  20.842  0.00  0.00    +0.000 NA
ATOM     13  C   UNL     1       0.474  11.550  21.413  0.00  0.00    +0.000 A 
ENDROOT
BRANCH  10  14
ATOM     14  C   UNL     1       3.232   5.741  19.394  0.00  0.00    +0.000 C 
ATOM     15  C   UNL     1       2.882   4.312  19.820  0.00  0.00    +0.000 C 
ATOM     16  C   UNL     1       3.998   3.346  19.435  0.00  0.00    +0.000 C 
ATOM     17  C   UNL     1       4.359   3.473  17.955  0.00  0.00    +0.000 C 
ATOM     18  N   UNL     1       4.753   4.856  17.620  0.00  0.00    +0.000 NA
ATOM     19  C   UNL     1       3.644   5.774  17.907  0.00  0.00    +0.000 C 
BRANCH  18  20
ATOM     20  C   UNL     1       5.170   4.913  16.195  0.00  0.00    +0.000 C 
BRANCH  20  21
ATOM     21  C   UNL     1       6.624   4.481  15.935  0.00  0.00    +0.000 C 
BRANCH  21  22
ATOM     22  O   UNL     1       7.398   5.564  15.428  0.00  0.00    +0.000 OA
ATOM     23  H   UNL     1       8.063   5.157  14.840  0.00  0.00    +0.000 HD
ENDBRANCH  21  22
ENDBRANCH  20  21
ENDBRANCH  18  20
ENDBRANCH  10  14
BRANCH   1  25
ATOM     24  C   UNL     1       3.041  13.660  20.931  0.00  0.00    +0.000 C 
ATOM     25  C   UNL     1       1.673  13.458  20.272  0.00  0.00    +0.000 C 
BRANCH  25  26
ATOM     26  C   UNL     1       1.143  14.738  19.633  0.00  0.00    +0.000 A 
ATOM     27  C   UNL     1       1.708  15.982  19.980  0.00  0.00    +0.000 A 
ATOM     28  C   UNL     1       1.186  17.179  19.482  0.00  0.00    +0.000 A 
ATOM     29  C   UNL     1       0.101  17.152  18.612  0.00  0.00    +0.000 A 
ATOM     30 CL   UNL     1      -0.579  18.626  18.045  0.00  0.00    +0.000 Cl
ATOM     31  C   UNL     1      -0.439  15.937  18.203  0.00  0.00    +0.000 A 
ATOM     32  C   UNL     1       0.083  14.736  18.708  0.00  0.00    +0.000 A 
ATOM     33 CL   UNL     1      -0.629  13.278  18.108  0.00  0.00    +0.000 Cl
ENDBRANCH  25  26
ENDBRANCH   1  25
BRANCH   3  34
ATOM     34  C   UNL     1      -1.938  13.256  23.482  0.00  0.00    +0.000 C 
ATOM     35  N   UNL     1      -2.775  13.625  24.201  0.00  0.00    +0.000 NA
ENDBRANCH   3  34
TORSDOF 7
ENDMDL
MODEL 5
REMARK VINA RESULT:      -6.5      3.212      5.190
REMARK  Name = 
REMARK  8 active torsions:
REMARK  status: ('A' for Active; 'I' for Inactive)
REMARK    1  A    between atoms: C_1  and  C_2
REMARK    2  A    between atoms: C_2  and  C_3
REMARK    3  A    between atoms: C_2  and  N_11
REMARK    4  A    between atoms: C_13  and  C_14
REMARK    5  A    between atoms: C_22  and  C_23
REMARK    6  A    between atoms: N_27  and  C_28
REMARK    7  A    between atoms: C_28  and  C_29
REMARK    8  A    between atoms: C_29  and  O_30
REMARK                            x       y       z     vdW  Elec       q    Type
REMARK                         _______ _______ _______ _____ _____    ______ ____
ROOT
ATOM      1  N   UNL     1       0.451  12.539  20.263  0.00  0.00    +0.000 N 
ATOM      2  N   UNL     1      -0.306  13.351  21.055  0.00  0.00    +0.000 NA
ATOM      3  C   UNL     1      -0.760  12.514  22.009  0.00  0.00    +0.000 A 
ATOM      4  C   UNL     1      -0.303  11.194  21.843  0.00  0.00    +0.000 A 
ATOM      5  N   UNL     1      -0.492  10.033  22.533  0.00  0.00    +0.000 NA
ATOM      6  C   UNL     1       0.143   8.975  21.949  0.00  0.00    +0.000 A 
ATOM      7  C   UNL     1       0.912   9.028  20.782  0.00  0.00    +0.000 A 
ATOM      8  N   UNL     1       1.464   7.890  20.206  0.00  0.00    +0.000 N 
ATOM      9  C   UNL     1       2.296   7.812  19.058  0.00  0.00    +0.000 C 
ATOM     10  C   UNL     1       2.162   6.281  19.181  0.00  0.00    +0.000 C 
ATOM     11  C   UNL     1       1.773   6.575  20.656  0.00  0.00    +0.000 C 
ATOM     12  N   UNL     1       1.098  10.196  20.119  0.00  0.00    +0.000 NA
ATOM     13  C   UNL     1       0.469  11.237  20.694  0.00  0.00    +0.000 A 
ENDROOT
BRANCH  10  14
ATOM     14  C   UNL     1       3.405   5.465  18.825  0.00  0.00    +0.000 C 
ATOM     15  C   UNL     1       3.054   3.975  18.783  0.00  0.00    +0.000 C 
ATOM     16  C   UNL     1       4.216   3.163  18.220  0.00  0.00    +0.000 C 
ATOM     17  C   UNL     1       4.686   3.721  16.876  0.00  0.00    +0.000 C 
ATOM     18  N   UNL     1       5.075   5.140  16.995  0.00  0.00    +0.000 NA
ATOM     19  C   UNL     1       3.928   5.935  17.451  0.00  0.00    +0.000 C 
BRANCH  18  20
ATOM     20  C   UNL     1       5.598   5.614  15.688  0.00  0.00    +0.000 C 
BRANCH  20  21
ATOM     21  C   UNL     1       6.793   4.810  15.146  0.00  0.00    +0.000 C 
BRANCH  21  22
ATOM     22  O   UNL     1       7.812   4.678  16.132  0.00  0.00    +0.000 OA
ATOM     23  H   UNL     1       8.390   3.958  15.815  0.00  0.00    +0.000 HD
ENDBRANCH  21  22
ENDBRANCH  20  21
ENDBRANCH  18  20
ENDBRANCH  10  14
BRANCH   1  25
ATOM     24  C   UNL     1       2.030  12.001  18.398  0.00  0.00    +0.000 C 
ATOM     25  C   UNL     1       1.146  13.054  19.074  0.00  0.00    +0.000 C 
BRANCH  25  26
ATOM     26  C   UNL     1       1.918  14.326  19.414  0.00  0.00    +0.000 A 
ATOM     27  C   UNL     1       3.216  14.235  19.958  0.00  0.00    +0.000 A 
ATOM     28  C   UNL     1       3.912  15.377  20.363  0.00  0.00    +0.000 A 
ATOM     29  C   UNL     1       3.330  16.631  20.214  0.00  0.00    +0.000 A 
ATOM     30 CL   UNL     1       4.161  18.032  20.766  0.00  0.00    +0.000 Cl
ATOM     31  C   UNL     1       2.077  16.757  19.624  0.00  0.00    +0.000 A 
ATOM     32  C   UNL     1       1.377  15.610  19.222  0.00  0.00    +0.000 A 
ATOM     33 CL   UNL     1      -0.155  15.872  18.462  0.00  0.00    +0.000 Cl
ENDBRANCH  25  26
ENDBRANCH   1  25
BRANCH   3  34
ATOM     34  C   UNL     1      -1.620  13.008  23.040  0.00  0.00    +0.000 C 
ATOM     35  N   UNL     1      -2.319  13.402  23.882  0.00  0.00    +0.000 NA
ENDBRANCH   3  34
TORSDOF 7
ENDMDL
MODEL 6
REMARK VINA RESULT:      -6.4      1.766      2.290
REMARK  Name = 
REMARK  8 active torsions:
REMARK  status: ('A' for Active; 'I' for Inactive)
REMARK    1  A    between atoms: C_1  and  C_2
REMARK    2  A    between atoms: C_2  and  C_3
REMARK    3  A    between atoms: C_2  and  N_11
REMARK    4  A    between atoms: C_13  and  C_14
REMARK    5  A    between atoms: C_22  and  C_23
REMARK    6  A    between atoms: N_27  and  C_28
REMARK    7  A    between atoms: C_28  and  C_29
REMARK    8  A    between atoms: C_29  and  O_30
REMARK                            x       y       z     vdW  Elec       q    Type
REMARK                         _______ _______ _______ _____ _____    ______ ____
ROOT
ATOM      1  N   UNL     1      -1.298  13.744  21.098  0.00  0.00    +0.000 N 
ATOM      2  N   UNL     1      -1.527  15.075  20.911  0.00  0.00    +0.000 NA
ATOM      3  C   UNL     1      -0.787  15.365  19.822  0.00  0.00    +0.000 A 
ATOM      4  C   UNL     1      -0.101  14.248  19.312  0.00  0.00    +0.000 A 
ATOM      5  N   UNL     1       0.745  14.055  18.261  0.00  0.00    +0.000 NA
ATOM      6  C   UNL     1       1.197  12.769  18.188  0.00  0.00    +0.000 A 
ATOM      7  C   UNL     1       0.857  11.735  19.066  0.00  0.00    +0.000 A 
ATOM      8  N   UNL     1       1.421  10.468  18.971  0.00  0.00    +0.000 N 
ATOM      9  C   UNL     1       1.130   9.325  19.763  0.00  0.00    +0.000 C 
ATOM     10  C   UNL     1       2.310   8.642  19.042  0.00  0.00    +0.000 C 
ATOM     11  C   UNL     1       2.092   9.731  17.955  0.00  0.00    +0.000 C 
ATOM     12  N   UNL     1       0.003  11.945  20.098  0.00  0.00    +0.000 NA
ATOM     13  C   UNL     1      -0.439  13.213  20.169  0.00  0.00    +0.000 A 
ENDROOT
BRANCH  10  14
ATOM     14  C   UNL     1       2.143   7.155  18.735  0.00  0.00    +0.000 C 
ATOM     15  C   UNL     1       3.274   6.682  17.817  0.00  0.00    +0.000 C 
ATOM     16  C   UNL     1       3.254   5.164  17.673  0.00  0.00    +0.000 C 
ATOM     17  C   UNL     1       3.245   4.475  19.039  0.00  0.00    +0.000 C 
ATOM     18  N   UNL     1       2.095   4.919  19.851  0.00  0.00    +0.000 NA
ATOM     19  C   UNL     1       2.165   6.371  20.064  0.00  0.00    +0.000 C 
BRANCH  18  20
ATOM     20  C   UNL     1       2.083   4.167  21.132  0.00  0.00    +0.000 C 
BRANCH  20  21
ATOM     21  C   UNL     1       1.355   2.813  21.074  0.00  0.00    +0.000 C 
BRANCH  21  22
ATOM     22  O   UNL     1       0.255   2.859  20.170  0.00  0.00    +0.000 OA
ATOM     23  H   UNL     1      -0.030   3.793  20.154  0.00  0.00    +0.000 HD
ENDBRANCH  21  22
ENDBRANCH  20  21
ENDBRANCH  18  20
ENDBRANCH  10  14
BRANCH   1  25
ATOM     24  C   UNL     1      -1.227  11.668  22.493  0.00  0.00    +0.000 C 
ATOM     25  C   UNL     1      -1.920  13.003  22.205  0.00  0.00    +0.000 C 
BRANCH  25  26
ATOM     26  C   UNL     1      -3.418  12.837  21.962  0.00  0.00    +0.000 A 
ATOM     27  C   UNL     1      -3.893  12.577  20.660  0.00  0.00    +0.000 A 
ATOM     28  C   UNL     1      -5.263  12.511  20.390  0.00  0.00    +0.000 A 
ATOM     29  C   UNL     1      -6.181  12.684  21.419  0.00  0.00    +0.000 A 
ATOM     30 CL   UNL     1      -7.866  12.661  21.078  0.00  0.00    +0.000 Cl
ATOM     31  C   UNL     1      -5.742  12.881  22.724  0.00  0.00    +0.000 A 
ATOM     32  C   UNL     1      -4.367  12.952  22.994  0.00  0.00    +0.000 A 
ATOM     33 CL   UNL     1      -3.919  13.159  24.653  0.00  0.00    +0.000 Cl
ENDBRANCH  25  26
ENDBRANCH   1  25
BRANCH   3  34
ATOM     34  C   UNL     1      -0.760  16.702  19.315  0.00  0.00    +0.000 C 
ATOM     35  N   UNL     1      -0.737  17.792  18.909  0.00  0.00    +0.000 NA
ENDBRANCH   3  34
TORSDOF 7
ENDMDL
MODEL 7
REMARK VINA RESULT:      -6.3      2.838      4.771
REMARK  Name = 
REMARK  8 active torsions:
REMARK  status: ('A' for Active; 'I' for Inactive)
REMARK    1  A    between atoms: C_1  and  C_2
REMARK    2  A    between atoms: C_2  and  C_3
REMARK    3  A    between atoms: C_2  and  N_11
REMARK    4  A    between atoms: C_13  and  C_14
REMARK    5  A    between atoms: C_22  and  C_23
REMARK    6  A    between atoms: N_27  and  C_28
REMARK    7  A    between atoms: C_28  and  C_29
REMARK    8  A    between atoms: C_29  and  O_30
REMARK                            x       y       z     vdW  Elec       q    Type
REMARK                         _______ _______ _______ _____ _____    ______ ____
ROOT
ATOM      1  N   UNL     1      -0.614  13.011  20.331  0.00  0.00    +0.000 N 
ATOM      2  N   UNL     1      -1.187  13.830  21.260  0.00  0.00    +0.000 NA
ATOM      3  C   UNL     1      -1.131  13.099  22.391  0.00  0.00    +0.000 A 
ATOM      4  C   UNL     1      -0.530  11.840  22.202  0.00  0.00    +0.000 A 
ATOM      5  N   UNL     1      -0.261  10.787  23.024  0.00  0.00    +0.000 NA
ATOM      6  C   UNL     1       0.314   9.743  22.357  0.00  0.00    +0.000 A 
ATOM      7  C   UNL     1       0.615   9.715  20.991  0.00  0.00    +0.000 A 
ATOM      8  N   UNL     1       1.130   8.584  20.370  0.00  0.00    +0.000 N 
ATOM      9  C   UNL     1       1.520   8.439  19.012  0.00  0.00    +0.000 C 
ATOM     10  C   UNL     1       1.712   6.941  19.325  0.00  0.00    +0.000 C 
ATOM     11  C   UNL     1       1.804   7.407  20.805  0.00  0.00    +0.000 C 
ATOM     12  N   UNL     1       0.351  10.780  20.194  0.00  0.00    +0.000 NA
ATOM     13  C   UNL     1      -0.219  11.806  20.852  0.00  0.00    +0.000 A 
ENDROOT
BRANCH  10  14
ATOM     14  C   UNL     1       2.883   6.251  18.626  0.00  0.00    +0.000 C 
ATOM     15  C   UNL     1       4.118   6.274  19.532  0.00  0.00    +0.000 C 
ATOM     16  C   UNL     1       5.229   5.406  18.951  0.00  0.00    +0.000 C 
ATOM     17  C   UNL     1       4.727   3.996  18.636  0.00  0.00    +0.000 C 
ATOM     18  N   UNL     1       3.580   4.035  17.706  0.00  0.00    +0.000 NA
ATOM     19  C   UNL     1       2.477   4.796  18.305  0.00  0.00    +0.000 C 
BRANCH  18  20
ATOM     20  C   UNL     1       3.180   2.645  17.367  0.00  0.00    +0.000 C 
BRANCH  20  21
ATOM     21  C   UNL     1       3.178   1.670  18.558  0.00  0.00    +0.000 C 
BRANCH  21  22
ATOM     22  O   UNL     1       4.093   0.599  18.346  0.00  0.00    +0.000 OA
ATOM     23  H   UNL     1       4.468   0.749  17.458  0.00  0.00    +0.000 HD
ENDBRANCH  21  22
ENDBRANCH  20  21
ENDBRANCH  18  20
ENDBRANCH  10  14
BRANCH   1  25
ATOM     24  C   UNL     1      -0.820  12.303  17.941  0.00  0.00    +0.000 C 
ATOM     25  C   UNL     1      -0.471  13.421  18.927  0.00  0.00    +0.000 C 
BRANCH  25  26
ATOM     26  C   UNL     1       0.919  14.000  18.678  0.00  0.00    +0.000 A 
ATOM     27  C   UNL     1       1.974  13.149  18.287  0.00  0.00    +0.000 A 
ATOM     28  C   UNL     1       3.277  13.633  18.139  0.00  0.00    +0.000 A 
ATOM     29  C   UNL     1       3.544  14.979  18.360  0.00  0.00    +0.000 A 
ATOM     30 CL   UNL     1       5.157  15.564  18.236  0.00  0.00    +0.000 Cl
ATOM     31  C   UNL     1       2.514  15.855  18.687  0.00  0.00    +0.000 A 
ATOM     32  C   UNL     1       1.207  15.367  18.840  0.00  0.00    +0.000 A 
ATOM     33 CL   UNL     1      -0.012  16.540  19.207  0.00  0.00    +0.000 Cl
ENDBRANCH  25  26
ENDBRANCH   1  25
BRANCH   3  34
ATOM     34  C   UNL     1      -1.660  13.629  23.609  0.00  0.00    +0.000 C 
ATOM     35  N   UNL     1      -2.097  14.064  24.596  0.00  0.00    +0.000 NA
ENDBRANCH   3  34
TORSDOF 7
ENDMDL
MODEL 8
REMARK VINA RESULT:      -6.3      1.183      1.452
REMARK  Name = 
REMARK  8 active torsions:
REMARK  status: ('A' for Active; 'I' for Inactive)
REMARK    1  A    between atoms: C_1  and  C_2
REMARK    2  A    between atoms: C_2  and  C_3
REMARK    3  A    between atoms: C_2  and  N_11
REMARK    4  A    between atoms: C_13  and  C_14
REMARK    5  A    between atoms: C_22  and  C_23
REMARK    6  A    between atoms: N_27  and  C_28
REMARK    7  A    between atoms: C_28  and  C_29
REMARK    8  A    between atoms: C_29  and  O_30
REMARK                            x       y       z     vdW  Elec       q    Type
REMARK                         _______ _______ _______ _____ _____    ______ ____
ROOT
ATOM      1  N   UNL     1       0.107  13.024  20.807  0.00  0.00    +0.000 N 
ATOM      2  N   UNL     1       0.160  14.379  20.658  0.00  0.00    +0.000 NA
ATOM      3  C   UNL     1       0.965  14.541  19.588  0.00  0.00    +0.000 A 
ATOM      4  C   UNL     1       1.416  13.321  19.053  0.00  0.00    +0.000 A 
ATOM      5  N   UNL     1       2.224  12.988  18.006  0.00  0.00    +0.000 NA
ATOM      6  C   UNL     1       2.404  11.639  17.899  0.00  0.00    +0.000 A 
ATOM      7  C   UNL     1       1.841  10.672  18.740  0.00  0.00    +0.000 A 
ATOM      8  N   UNL     1       2.135   9.320  18.613  0.00  0.00    +0.000 N 
ATOM      9  C   UNL     1       1.601   8.239  19.365  0.00  0.00    +0.000 C 
ATOM     10  C   UNL     1       2.628   7.349  18.638  0.00  0.00    +0.000 C 
ATOM     11  C   UNL     1       2.659   8.489  17.583  0.00  0.00    +0.000 C 
ATOM     12  N   UNL     1       1.029  11.025  19.767  0.00  0.00    +0.000 NA
ATOM     13  C   UNL     1       0.856  12.355  19.873  0.00  0.00    +0.000 A 
ENDROOT
BRANCH  10  14
ATOM     14  C   UNL     1       2.165   5.937  18.282  0.00  0.00    +0.000 C 
ATOM     15  C   UNL     1       3.257   5.215  17.487  0.00  0.00    +0.000 C 
ATOM     16  C   UNL     1       2.910   3.741  17.309  0.00  0.00    +0.000 C 
ATOM     17  C   UNL     1       2.590   3.079  18.650  0.00  0.00    +0.000 C 
ATOM     18  N   UNL     1       1.485   3.776  19.338  0.00  0.00    +0.000 NA
ATOM     19  C   UNL     1       1.857   5.175  19.589  0.00  0.00    +0.000 C 
BRANCH  18  20
ATOM     20  C   UNL     1       1.158   3.053  20.593  0.00  0.00    +0.000 C 
BRANCH  20  21
ATOM     21  C   UNL     1       2.075   3.384  21.784  0.00  0.00    +0.000 C 
BRANCH  21  22
ATOM     22  O   UNL     1       2.962   2.306  22.064  0.00  0.00    +0.000 OA
ATOM     23  H   UNL     1       3.817   2.562  21.668  0.00  0.00    +0.000 HD
ENDBRANCH  21  22
ENDBRANCH  20  21
ENDBRANCH  18  20
ENDBRANCH  10  14
BRANCH   1  25
ATOM     24  C   UNL     1      -0.689  10.868  21.794  0.00  0.00    +0.000 C 
ATOM     25  C   UNL     1      -0.675  12.397  21.881  0.00  0.00    +0.000 C 
BRANCH  25  26
ATOM     26  C   UNL     1      -2.082  12.987  21.933  0.00  0.00    +0.000 A 
ATOM     27  C   UNL     1      -3.047  12.582  20.988  0.00  0.00    +0.000 A 
ATOM     28  C   UNL     1      -4.315  13.170  20.953  0.00  0.00    +0.000 A 
ATOM     29  C   UNL     1      -4.646  14.157  21.874  0.00  0.00    +0.000 A 
ATOM     30 CL   UNL     1      -6.185  14.922  21.794  0.00  0.00    +0.000 Cl
ATOM     31  C   UNL     1      -3.736  14.534  22.856  0.00  0.00    +0.000 A 
ATOM     32  C   UNL     1      -2.462  13.948  22.888  0.00  0.00    +0.000 A 
ATOM     33 CL   UNL     1      -1.417  14.451  24.171  0.00  0.00    +0.000 Cl
ENDBRANCH  25  26
ENDBRANCH   1  25
BRANCH   3  34
ATOM     34  C   UNL     1       1.276  15.857  19.123  0.00  0.00    +0.000 C 
ATOM     35  N   UNL     1       1.522  16.931  18.749  0.00  0.00    +0.000 NA
ENDBRANCH   3  34
TORSDOF 7
ENDMDL
MODEL 9
REMARK VINA RESULT:      -6.3      1.275      1.642
REMARK  Name = 
REMARK  8 active torsions:
REMARK  status: ('A' for Active; 'I' for Inactive)
REMARK    1  A    between atoms: C_1  and  C_2
REMARK    2  A    between atoms: C_2  and  C_3
REMARK    3  A    between atoms: C_2  and  N_11
REMARK    4  A    between atoms: C_13  and  C_14
REMARK    5  A    between atoms: C_22  and  C_23
REMARK    6  A    between atoms: N_27  and  C_28
REMARK    7  A    between atoms: C_28  and  C_29
REMARK    8  A    between atoms: C_29  and  O_30
REMARK                            x       y       z     vdW  Elec       q    Type
REMARK                         _______ _______ _______ _____ _____    ______ ____
ROOT
ATOM      1  N   UNL     1      -0.048  12.575  21.050  0.00  0.00    +0.000 N 
ATOM      2  N   UNL     1      -0.092  13.937  20.989  0.00  0.00    +0.000 NA
ATOM      3  C   UNL     1       0.676  14.222  19.919  0.00  0.00    +0.000 A 
ATOM      4  C   UNL     1       1.200  13.073  19.297  0.00  0.00    +0.000 A 
ATOM      5  N   UNL     1       2.006  12.865  18.218  0.00  0.00    +0.000 NA
ATOM      6  C   UNL     1       2.276  11.541  18.021  0.00  0.00    +0.000 A 
ATOM      7  C   UNL     1       1.799  10.486  18.806  0.00  0.00    +0.000 A 
ATOM      8  N   UNL     1       2.183   9.168  18.587  0.00  0.00    +0.000 N 
ATOM      9  C   UNL     1       1.740   8.008  19.275  0.00  0.00    +0.000 C 
ATOM     10  C   UNL     1       2.811   7.240  18.475  0.00  0.00    +0.000 C 
ATOM     11  C   UNL     1       2.741   8.444  17.496  0.00  0.00    +0.000 C 
ATOM     12  N   UNL     1       0.987  10.715  19.867  0.00  0.00    +0.000 NA
ATOM     13  C   UNL     1       0.725  12.020  20.062  0.00  0.00    +0.000 A 
ENDROOT
BRANCH  10  14
ATOM     14  C   UNL     1       2.439   5.824  18.036  0.00  0.00    +0.000 C 
ATOM     15  C   UNL     1       3.664   5.124  17.441  0.00  0.00    +0.000 C 
ATOM     16  C   UNL     1       3.377   3.646  17.198  0.00  0.00    +0.000 C 
ATOM     17  C   UNL     1       2.836   2.969  18.458  0.00  0.00    +0.000 C 
ATOM     18  N   UNL     1       1.617   3.646  18.945  0.00  0.00    +0.000 NA
ATOM     19  C   UNL     1       1.918   5.047  19.264  0.00  0.00    +0.000 C 
BRANCH  18  20
ATOM     20  C   UNL     1       1.085   2.908  20.119  0.00  0.00    +0.000 C 
BRANCH  20  21
ATOM     21  C   UNL     1       2.036   2.854  21.328  0.00  0.00    +0.000 C 
BRANCH  21  22
ATOM     22  O   UNL     1       1.359   2.396  22.494  0.00  0.00    +0.000 OA
ATOM     23  H   UNL     1       0.788   1.664  22.193  0.00  0.00    +0.000 HD
ENDBRANCH  21  22
ENDBRANCH  20  21
ENDBRANCH  18  20
ENDBRANCH  10  14
BRANCH   1  25
ATOM     24  C   UNL     1      -0.723  10.311  21.875  0.00  0.00    +0.000 C 
ATOM     25  C   UNL     1      -0.763  11.827  22.094  0.00  0.00    +0.000 C 
BRANCH  25  26
ATOM     26  C   UNL     1      -2.187  12.352  22.249  0.00  0.00    +0.000 A 
ATOM     27  C   UNL     1      -2.647  12.771  23.515  0.00  0.00    +0.000 A 
ATOM     28  C   UNL     1      -3.972  13.171  23.707  0.00  0.00    +0.000 A 
ATOM     29  C   UNL     1      -4.855  13.179  22.634  0.00  0.00    +0.000 A 
ATOM     30 CL   UNL     1      -6.501  13.615  22.881  0.00  0.00    +0.000 Cl
ATOM     31  C   UNL     1      -4.416  12.830  21.361  0.00  0.00    +0.000 A 
ATOM     32  C   UNL     1      -3.087  12.423  21.170  0.00  0.00    +0.000 A 
ATOM     33 CL   UNL     1      -2.625  12.048  19.545  0.00  0.00    +0.000 Cl
ENDBRANCH  25  26
ENDBRANCH   1  25
BRANCH   3  34
ATOM     34  C   UNL     1       0.886  15.583  19.535  0.00  0.00    +0.000 C 
ATOM     35  N   UNL     1       1.053  16.694  19.230  0.00  0.00    +0.000 NA
ENDBRANCH   3  34
TORSDOF 7
ENDMDL
