MODEL 1
REMARK VINA RESULT:      -7.4      0.000      0.000
REMARK  Name = 
REMARK  10 active torsions:
REMARK  status: ('A' for Active; 'I' for Inactive)
REMARK    1  A    between atoms: C_1  and  C_2
REMARK    2  A    between atoms: C_5  and  C_6
REMARK    3  A    between atoms: N_8  and  C_9
REMARK    4  A    between atoms: C_9  and  C_10
REMARK    5  A    between atoms: C_10  and  C_11
REMARK    6  A    between atoms: C_11  and  N_12
REMARK    7  A    between atoms: N_12  and  C_13
REMARK    8  A    between atoms: N_12  and  S_14
REMARK    9  A    between atoms: S_14  and  C_15
REMARK   10  A    between atoms: C_19  and  N_20
REMARK                            x       y       z     vdW  Elec       q    Type
REMARK                         _______ _______ _______ _____ _____    ______ ____
ROOT
ATOM      1  C   UNL     1       2.593   5.798  19.317  0.00  0.00    +0.000 C 
ATOM      2  O   UNL     1       3.009   5.328  20.372  0.00  0.00    +0.000 OA
ATOM      3  N   UNL     1       2.465   5.050  18.164  0.00  0.00    +0.000 N 
ATOM      4  H   UNL     1       1.972   5.426  17.366  0.00  0.00    +0.000 HD
ENDROOT
BRANCH   1   9
ATOM      5  C   UNL     1       1.033  11.383  18.771  0.00  0.00    +0.000 C 
ATOM      6  C   UNL     1       1.336   9.925  18.997  0.00  0.00    +0.000 A 
ATOM      7  C   UNL     1       2.013   9.260  17.958  0.00  0.00    +0.000 A 
ATOM      8  C   UNL     1       2.419   7.932  18.086  0.00  0.00    +0.000 A 
ATOM      9  C   UNL     1       2.164   7.227  19.263  0.00  0.00    +0.000 A 
ATOM     10  C   UNL     1       1.474   7.863  20.305  0.00  0.00    +0.000 A 
ATOM     11  C   UNL     1       1.042   9.206  20.179  0.00  0.00    +0.000 A 
BRANCH  11  12
ATOM     12  N   UNL     1       0.315   9.778  21.275  0.00  0.00    +0.000 N 
ATOM     13  C   UNL     1       0.329   9.382  22.598  0.00  0.00    +0.000 A 
ATOM     14  C   UNL     1      -0.537  10.169  23.325  0.00  0.00    +0.000 A 
ATOM     15  C   UNL     1      -1.078  11.117  22.438  0.00  0.00    +0.000 A 
ATOM     16  C   UNL     1      -0.522  10.878  21.199  0.00  0.00    +0.000 A 
ENDBRANCH  11  12
ENDBRANCH   1   9
BRANCH   3  17
ATOM     17  C   UNL     1       2.877   3.654  18.125  0.00  0.00    +0.000 C 
BRANCH  17  18
ATOM     18  C   UNL     1       3.889   3.387  17.009  0.00  0.00    +0.000 C 
BRANCH  18  19
ATOM     19  C   UNL     1       4.719   4.624  16.647  0.00  0.00    +0.000 C 
BRANCH  19  20
ATOM     20  N   UNL     1       6.175   4.341  16.571  0.00  0.00    +0.000 NA
ATOM     21  C   UNL     1       6.790   4.552  15.242  0.00  0.00    +0.000 C 
BRANCH  20  22
ATOM     22  S   UNL     1       7.127   4.797  17.907  0.00  0.00    +0.000 S 
ATOM     23  C   UNL     1       7.413   6.535  17.601  0.00  0.00    +0.000 C 
ATOM     24  O   UNL     1       6.318   4.680  19.102  0.00  0.00    +0.000 OA
ATOM     25  O   UNL     1       8.404   4.127  17.797  0.00  0.00    +0.000 OA
ENDBRANCH  20  22
ENDBRANCH  19  20
ENDBRANCH  18  19
ENDBRANCH  17  18
ENDBRANCH   3  17
TORSDOF 7
ENDMDL
MODEL 2
REMARK VINA RESULT:      -7.3      4.851      7.287
REMARK  Name = 
REMARK  10 active torsions:
REMARK  status: ('A' for Active; 'I' for Inactive)
REMARK    1  A    between atoms: C_1  and  C_2
REMARK    2  A    between atoms: C_5  and  C_6
REMARK    3  A    between atoms: N_8  and  C_9
REMARK    4  A    between atoms: C_9  and  C_10
REMARK    5  A    between atoms: C_10  and  C_11
REMARK    6  A    between atoms: C_11  and  N_12
REMARK    7  A    between atoms: N_12  and  C_13
REMARK    8  A    between atoms: N_12  and  S_14
REMARK    9  A    between atoms: S_14  and  C_15
REMARK   10  A    between atoms: C_19  and  N_20
REMARK                            x       y       z     vdW  Elec       q    Type
REMARK                         _______ _______ _______ _____ _____    ______ ____
ROOT
ATOM      1  C   UNL     1       7.285   5.983  18.645  0.00  0.00    +0.000 C 
ATOM      2  O   UNL     1       8.129   5.515  19.403  0.00  0.00    +0.000 OA
ATOM      3  N   UNL     1       7.403   7.236  18.077  0.00  0.00    +0.000 N 
ATOM      4  H   UNL     1       6.775   7.520  17.338  0.00  0.00    +0.000 HD
ENDROOT
BRANCH   1   9
ATOM      5  C   UNL     1       2.771   2.757  16.874  0.00  0.00    +0.000 C 
ATOM      6  C   UNL     1       3.917   3.544  17.454  0.00  0.00    +0.000 A 
ATOM      7  C   UNL     1       4.948   3.894  16.562  0.00  0.00    +0.000 A 
ATOM      8  C   UNL     1       6.020   4.690  16.964  0.00  0.00    +0.000 A 
ATOM      9  C   UNL     1       6.091   5.167  18.273  0.00  0.00    +0.000 A 
ATOM     10  C   UNL     1       5.085   4.817  19.185  0.00  0.00    +0.000 A 
ATOM     11  C   UNL     1       4.001   3.994  18.792  0.00  0.00    +0.000 A 
BRANCH  11  12
ATOM     12  N   UNL     1       3.028   3.652  19.788  0.00  0.00    +0.000 N 
ATOM     13  C   UNL     1       3.127   2.687  20.771  0.00  0.00    +0.000 A 
ATOM     14  C   UNL     1       1.960   2.650  21.502  0.00  0.00    +0.000 A 
ATOM     15  C   UNL     1       1.119   3.655  20.989  0.00  0.00    +0.000 A 
ATOM     16  C   UNL     1       1.803   4.273  19.964  0.00  0.00    +0.000 A 
ENDBRANCH  11  12
ENDBRANCH   1   9
BRANCH   3  17
ATOM     17  C   UNL     1       8.527   8.104  18.399  0.00  0.00    +0.000 C 
BRANCH  17  18
ATOM     18  C   UNL     1       8.241   9.564  18.043  0.00  0.00    +0.000 C 
BRANCH  18  19
ATOM     19  C   UNL     1       9.459  10.476  18.236  0.00  0.00    +0.000 C 
BRANCH  19  20
ATOM     20  N   UNL     1       9.228  11.541  19.244  0.00  0.00    +0.000 NA
ATOM     21  C   UNL     1       9.412  11.128  20.653  0.00  0.00    +0.000 C 
BRANCH  20  22
ATOM     22  S   UNL     1       9.772  13.109  18.858  0.00  0.00    +0.000 S 
ATOM     23  C   UNL     1       8.303  14.097  19.103  0.00  0.00    +0.000 C 
ATOM     24  O   UNL     1      10.750  13.507  19.848  0.00  0.00    +0.000 OA
ATOM     25  O   UNL     1      10.080  13.141  17.445  0.00  0.00    +0.000 OA
ENDBRANCH  20  22
ENDBRANCH  19  20
ENDBRANCH  18  19
ENDBRANCH  17  18
ENDBRANCH   3  17
TORSDOF 7
ENDMDL
MODEL 3
REMARK VINA RESULT:      -7.3      1.746      2.135
REMARK  Name = 
REMARK  10 active torsions:
REMARK  status: ('A' for Active; 'I' for Inactive)
REMARK    1  A    between atoms: C_1  and  C_2
REMARK    2  A    between atoms: C_5  and  C_6
REMARK    3  A    between atoms: N_8  and  C_9
REMARK    4  A    between atoms: C_9  and  C_10
REMARK    5  A    between atoms: C_10  and  C_11
REMARK    6  A    between atoms: C_11  and  N_12
REMARK    7  A    between atoms: N_12  and  C_13
REMARK    8  A    between atoms: N_12  and  S_14
REMARK    9  A    between atoms: S_14  and  C_15
REMARK   10  A    between atoms: C_19  and  N_20
REMARK                            x       y       z     vdW  Elec       q    Type
REMARK                         _______ _______ _______ _____ _____    ______ ____
ROOT
ATOM      1  C   UNL     1       3.016   6.143  18.755  0.00  0.00    +0.000 C 
ATOM      2  O   UNL     1       2.390   5.236  18.214  0.00  0.00    +0.000 OA
ATOM      3  N   UNL     1       4.301   5.982  19.234  0.00  0.00    +0.000 N 
ATOM      4  H   UNL     1       4.839   6.786  19.524  0.00  0.00    +0.000 HD
ENDROOT
BRANCH   1   9
ATOM      5  C   UNL     1       0.687  11.480  18.878  0.00  0.00    +0.000 C 
ATOM      6  C   UNL     1       1.202  10.065  18.940  0.00  0.00    +0.000 A 
ATOM      7  C   UNL     1       1.837   9.582  17.780  0.00  0.00    +0.000 A 
ATOM      8  C   UNL     1       2.425   8.318  17.746  0.00  0.00    +0.000 A 
ATOM      9  C   UNL     1       2.400   7.497  18.874  0.00  0.00    +0.000 A 
ATOM     10  C   UNL     1       1.757   7.950  20.035  0.00  0.00    +0.000 A 
ATOM     11  C   UNL     1       1.141   9.225  20.076  0.00  0.00    +0.000 A 
BRANCH  11  12
ATOM     12  N   UNL     1       0.475   9.605  21.287  0.00  0.00    +0.000 N 
ATOM     13  C   UNL     1       0.696   9.121  22.561  0.00  0.00    +0.000 A 
ATOM     14  C   UNL     1      -0.178   9.720  23.442  0.00  0.00    +0.000 A 
ATOM     15  C   UNL     1      -0.942  10.643  22.703  0.00  0.00    +0.000 A 
ATOM     16  C   UNL     1      -0.505  10.577  21.397  0.00  0.00    +0.000 A 
ENDBRANCH  11  12
ENDBRANCH   1   9
BRANCH   3  17
ATOM     17  C   UNL     1       4.969   4.690  19.173  0.00  0.00    +0.000 C 
BRANCH  17  18
ATOM     18  C   UNL     1       6.482   4.820  19.357  0.00  0.00    +0.000 C 
BRANCH  18  19
ATOM     19  C   UNL     1       7.244   4.873  18.028  0.00  0.00    +0.000 C 
BRANCH  19  20
ATOM     20  N   UNL     1       6.746   5.936  17.118  0.00  0.00    +0.000 NA
ATOM     21  C   UNL     1       7.351   7.271  17.317  0.00  0.00    +0.000 C 
BRANCH  20  22
ATOM     22  S   UNL     1       6.440   5.496  15.502  0.00  0.00    +0.000 S 
ATOM     23  C   UNL     1       5.828   3.825  15.666  0.00  0.00    +0.000 C 
ATOM     24  O   UNL     1       5.359   6.321  15.004  0.00  0.00    +0.000 OA
ATOM     25  O   UNL     1       7.707   5.424  14.809  0.00  0.00    +0.000 OA
ENDBRANCH  20  22
ENDBRANCH  19  20
ENDBRANCH  18  19
ENDBRANCH  17  18
ENDBRANCH   3  17
TORSDOF 7
ENDMDL
MODEL 4
REMARK VINA RESULT:      -7.2      1.417      1.860
REMARK  Name = 
REMARK  10 active torsions:
REMARK  status: ('A' for Active; 'I' for Inactive)
REMARK    1  A    between atoms: C_1  and  C_2
REMARK    2  A    between atoms: C_5  and  C_6
REMARK    3  A    between atoms: N_8  and  C_9
REMARK    4  A    between atoms: C_9  and  C_10
REMARK    5  A    between atoms: C_10  and  C_11
REMARK    6  A    between atoms: C_11  and  N_12
REMARK    7  A    between atoms: N_12  and  C_13
REMARK    8  A    between atoms: N_12  and  S_14
REMARK    9  A    between atoms: S_14  and  C_15
REMARK   10  A    between atoms: C_19  and  N_20
REMARK                            x       y       z     vdW  Elec       q    Type
REMARK                         _______ _______ _______ _____ _____    ______ ____
ROOT
ATOM      1  C   UNL     1       2.465   5.659  19.457  0.00  0.00    +0.000 C 
ATOM      2  O   UNL     1       2.856   5.221  20.534  0.00  0.00    +0.000 OA
ATOM      3  N   UNL     1       2.291   4.861  18.343  0.00  0.00    +0.000 N 
ATOM      4  H   UNL     1       1.818   5.224  17.528  0.00  0.00    +0.000 HD
ENDROOT
BRANCH   1   9
ATOM      5  C   UNL     1       1.227  11.290  18.629  0.00  0.00    +0.000 C 
ATOM      6  C   UNL     1       1.444   9.829  18.926  0.00  0.00    +0.000 A 
ATOM      7  C   UNL     1       2.104   9.082  17.932  0.00  0.00    +0.000 A 
ATOM      8  C   UNL     1       2.433   7.741  18.128  0.00  0.00    +0.000 A 
ATOM      9  C   UNL     1       2.116   7.105  19.330  0.00  0.00    +0.000 A 
ATOM     10  C   UNL     1       1.443   7.825  20.328  0.00  0.00    +0.000 A 
ATOM     11  C   UNL     1       1.088   9.182  20.132  0.00  0.00    +0.000 A 
BRANCH  11  12
ATOM     12  N   UNL     1       0.373   9.842  21.185  0.00  0.00    +0.000 N 
ATOM     13  C   UNL     1       0.035  11.178  21.270  0.00  0.00    +0.000 A 
ATOM     14  C   UNL     1      -0.619  11.415  22.459  0.00  0.00    +0.000 A 
ATOM     15  C   UNL     1      -0.734  10.179  23.122  0.00  0.00    +0.000 A 
ATOM     16  C   UNL     1      -0.148   9.229  22.313  0.00  0.00    +0.000 A 
ENDBRANCH  11  12
ENDBRANCH   1   9
BRANCH   3  17
ATOM     17  C   UNL     1       2.623   3.444  18.375  0.00  0.00    +0.000 C 
BRANCH  17  18
ATOM     18  C   UNL     1       4.133   3.209  18.300  0.00  0.00    +0.000 C 
BRANCH  18  19
ATOM     19  C   UNL     1       4.745   3.675  16.974  0.00  0.00    +0.000 C 
BRANCH  19  20
ATOM     20  N   UNL     1       5.243   5.073  17.026  0.00  0.00    +0.000 NA
ATOM     21  C   UNL     1       5.888   5.466  18.299  0.00  0.00    +0.000 C 
BRANCH  20  22
ATOM     22  S   UNL     1       5.956   5.699  15.612  0.00  0.00    +0.000 S 
ATOM     23  C   UNL     1       5.668   4.393  14.425  0.00  0.00    +0.000 C 
ATOM     24  O   UNL     1       5.196   6.858  15.195  0.00  0.00    +0.000 OA
ATOM     25  O   UNL     1       7.384   5.776  15.826  0.00  0.00    +0.000 OA
ENDBRANCH  20  22
ENDBRANCH  19  20
ENDBRANCH  18  19
ENDBRANCH  17  18
ENDBRANCH   3  17
TORSDOF 7
ENDMDL
MODEL 5
REMARK VINA RESULT:      -7.2      1.263      1.640
REMARK  Name = 
REMARK  10 active torsions:
REMARK  status: ('A' for Active; 'I' for Inactive)
REMARK    1  A    between atoms: C_1  and  C_2
REMARK    2  A    between atoms: C_5  and  C_6
REMARK    3  A    between atoms: N_8  and  C_9
REMARK    4  A    between atoms: C_9  and  C_10
REMARK    5  A    between atoms: C_10  and  C_11
REMARK    6  A    between atoms: C_11  and  N_12
REMARK    7  A    between atoms: N_12  and  C_13
REMARK    8  A    between atoms: N_12  and  S_14
REMARK    9  A    between atoms: S_14  and  C_15
REMARK   10  A    between atoms: C_19  and  N_20
REMARK                            x       y       z     vdW  Elec       q    Type
REMARK                         _______ _______ _______ _____ _____    ______ ____
ROOT
ATOM      1  C   UNL     1       2.615   5.705  19.583  0.00  0.00    +0.000 C 
ATOM      2  O   UNL     1       1.807   4.875  19.989  0.00  0.00    +0.000 OA
ATOM      3  N   UNL     1       3.902   5.375  19.209  0.00  0.00    +0.000 N 
ATOM      4  H   UNL     1       4.481   6.051  18.731  0.00  0.00    +0.000 HD
ENDROOT
BRANCH   1   9
ATOM      5  C   UNL     1       1.123  11.264  18.693  0.00  0.00    +0.000 C 
ATOM      6  C   UNL     1       1.404   9.817  19.004  0.00  0.00    +0.000 A 
ATOM      7  C   UNL     1       2.121   9.097  18.030  0.00  0.00    +0.000 A 
ATOM      8  C   UNL     1       2.511   7.775  18.241  0.00  0.00    +0.000 A 
ATOM      9  C   UNL     1       2.199   7.131  19.439  0.00  0.00    +0.000 A 
ATOM     10  C   UNL     1       1.469   7.822  20.418  0.00  0.00    +0.000 A 
ATOM     11  C   UNL     1       1.053   9.160  20.206  0.00  0.00    +0.000 A 
BRANCH  11  12
ATOM     12  N   UNL     1       0.283   9.789  21.239  0.00  0.00    +0.000 N 
ATOM     13  C   UNL     1      -0.542  10.891  21.126  0.00  0.00    +0.000 A 
ATOM     14  C   UNL     1      -1.070  11.201  22.360  0.00  0.00    +0.000 A 
ATOM     15  C   UNL     1      -0.596  10.235  23.267  0.00  0.00    +0.000 A 
ATOM     16  C   UNL     1       0.204   9.367  22.555  0.00  0.00    +0.000 A 
ENDBRANCH  11  12
ENDBRANCH   1   9
BRANCH   3  17
ATOM     17  C   UNL     1       4.394   4.010  19.333  0.00  0.00    +0.000 C 
BRANCH  17  18
ATOM     18  C   UNL     1       4.449   3.297  17.982  0.00  0.00    +0.000 C 
BRANCH  18  19
ATOM     19  C   UNL     1       4.489   4.267  16.795  0.00  0.00    +0.000 C 
BRANCH  19  20
ATOM     20  N   UNL     1       5.834   4.362  16.172  0.00  0.00    +0.000 NA
ATOM     21  C   UNL     1       5.955   3.741  14.834  0.00  0.00    +0.000 C 
BRANCH  20  22
ATOM     22  S   UNL     1       6.692   5.817  16.391  0.00  0.00    +0.000 S 
ATOM     23  C   UNL     1       7.492   5.558  17.968  0.00  0.00    +0.000 C 
ATOM     24  O   UNL     1       7.720   5.895  15.375  0.00  0.00    +0.000 OA
ATOM     25  O   UNL     1       5.730   6.883  16.568  0.00  0.00    +0.000 OA
ENDBRANCH  20  22
ENDBRANCH  19  20
ENDBRANCH  18  19
ENDBRANCH  17  18
ENDBRANCH   3  17
TORSDOF 7
ENDMDL
MODEL 6
REMARK VINA RESULT:      -7.1      2.513      4.074
REMARK  Name = 
REMARK  10 active torsions:
REMARK  status: ('A' for Active; 'I' for Inactive)
REMARK    1  A    between atoms: C_1  and  C_2
REMARK    2  A    between atoms: C_5  and  C_6
REMARK    3  A    between atoms: N_8  and  C_9
REMARK    4  A    between atoms: C_9  and  C_10
REMARK    5  A    between atoms: C_10  and  C_11
REMARK    6  A    between atoms: C_11  and  N_12
REMARK    7  A    between atoms: N_12  and  C_13
REMARK    8  A    between atoms: N_12  and  S_14
REMARK    9  A    between atoms: S_14  and  C_15
REMARK   10  A    between atoms: C_19  and  N_20
REMARK                            x       y       z     vdW  Elec       q    Type
REMARK                         _______ _______ _______ _____ _____    ______ ____
ROOT
ATOM      1  C   UNL     1       3.191   6.985  17.963  0.00  0.00    +0.000 C 
ATOM      2  O   UNL     1       3.929   7.594  17.194  0.00  0.00    +0.000 OA
ATOM      3  N   UNL     1       3.186   5.608  18.060  0.00  0.00    +0.000 N 
ATOM      4  H   UNL     1       2.687   5.154  18.812  0.00  0.00    +0.000 HD
ENDROOT
BRANCH   1   9
ATOM      5  C   UNL     1      -0.279   9.716  21.760  0.00  0.00    +0.000 C 
ATOM      6  C   UNL     1       0.638   9.127  20.720  0.00  0.00    +0.000 A 
ATOM      7  C   UNL     1       1.303   7.939  21.076  0.00  0.00    +0.000 A 
ATOM      8  C   UNL     1       2.114   7.259  20.168  0.00  0.00    +0.000 A 
ATOM      9  C   UNL     1       2.280   7.744  18.870  0.00  0.00    +0.000 A 
ATOM     10  C   UNL     1       1.642   8.935  18.498  0.00  0.00    +0.000 A 
ATOM     11  C   UNL     1       0.830   9.645  19.417  0.00  0.00    +0.000 A 
BRANCH  11  12
ATOM     12  N   UNL     1       0.236  10.872  18.974  0.00  0.00    +0.000 N 
ATOM     13  C   UNL     1      -1.011  11.052  18.409  0.00  0.00    +0.000 A 
ATOM     14  C   UNL     1      -1.186  12.380  18.090  0.00  0.00    +0.000 A 
ATOM     15  C   UNL     1      -0.029  13.063  18.508  0.00  0.00    +0.000 A 
ATOM     16  C   UNL     1       0.813  12.127  19.071  0.00  0.00    +0.000 A 
ENDBRANCH  11  12
ENDBRANCH   1   9
BRANCH   3  17
ATOM     17  C   UNL     1       4.031   4.790  17.201  0.00  0.00    +0.000 C 
BRANCH  17  18
ATOM     18  C   UNL     1       4.120   3.346  17.694  0.00  0.00    +0.000 C 
BRANCH  18  19
ATOM     19  C   UNL     1       2.832   2.865  18.372  0.00  0.00    +0.000 C 
BRANCH  19  20
ATOM     20  N   UNL     1       3.037   2.475  19.791  0.00  0.00    +0.000 NA
ATOM     21  C   UNL     1       4.435   2.170  20.166  0.00  0.00    +0.000 C 
BRANCH  20  22
ATOM     22  S   UNL     1       2.120   3.302  20.965  0.00  0.00    +0.000 S 
ATOM     23  C   UNL     1       0.611   3.675  20.082  0.00  0.00    +0.000 C 
ATOM     24  O   UNL     1       1.798   2.371  22.027  0.00  0.00    +0.000 OA
ATOM     25  O   UNL     1       2.777   4.559  21.244  0.00  0.00    +0.000 OA
ENDBRANCH  20  22
ENDBRANCH  19  20
ENDBRANCH  18  19
ENDBRANCH  17  18
ENDBRANCH   3  17
TORSDOF 7
ENDMDL
MODEL 7
REMARK VINA RESULT:      -7.1      1.054      1.275
REMARK  Name = 
REMARK  10 active torsions:
REMARK  status: ('A' for Active; 'I' for Inactive)
REMARK    1  A    between atoms: C_1  and  C_2
REMARK    2  A    between atoms: C_5  and  C_6
REMARK    3  A    between atoms: N_8  and  C_9
REMARK    4  A    between atoms: C_9  and  C_10
REMARK    5  A    between atoms: C_10  and  C_11
REMARK    6  A    between atoms: C_11  and  N_12
REMARK    7  A    between atoms: N_12  and  C_13
REMARK    8  A    between atoms: N_12  and  S_14
REMARK    9  A    between atoms: S_14  and  C_15
REMARK   10  A    between atoms: C_19  and  N_20
REMARK                            x       y       z     vdW  Elec       q    Type
REMARK                         _______ _______ _______ _____ _____    ______ ____
ROOT
ATOM      1  C   UNL     1       2.433   5.453  20.078  0.00  0.00    +0.000 C 
ATOM      2  O   UNL     1       2.329   5.017  21.221  0.00  0.00    +0.000 OA
ATOM      3  N   UNL     1       2.837   4.673  19.013  0.00  0.00    +0.000 N 
ATOM      4  H   UNL     1       2.756   5.022  18.069  0.00  0.00    +0.000 HD
ENDROOT
BRANCH   1   9
ATOM      5  C   UNL     1       1.154  10.951  18.643  0.00  0.00    +0.000 C 
ATOM      6  C   UNL     1       1.382   9.533  19.097  0.00  0.00    +0.000 A 
ATOM      7  C   UNL     1       2.049   8.687  18.191  0.00  0.00    +0.000 A 
ATOM      8  C   UNL     1       2.388   7.378  18.532  0.00  0.00    +0.000 A 
ATOM      9  C   UNL     1       2.073   6.874  19.795  0.00  0.00    +0.000 A 
ATOM     10  C   UNL     1       1.392   7.692  20.707  0.00  0.00    +0.000 A 
ATOM     11  C   UNL     1       1.027   9.018  20.366  0.00  0.00    +0.000 A 
BRANCH  11  12
ATOM     12  N   UNL     1       0.304   9.782  21.339  0.00  0.00    +0.000 N 
ATOM     13  C   UNL     1       0.083  11.145  21.351  0.00  0.00    +0.000 A 
ATOM     14  C   UNL     1      -0.626  11.489  22.480  0.00  0.00    +0.000 A 
ATOM     15  C   UNL     1      -0.898  10.297  23.177  0.00  0.00    +0.000 A 
ATOM     16  C   UNL     1      -0.346   9.266  22.448  0.00  0.00    +0.000 A 
ENDBRANCH  11  12
ENDBRANCH   1   9
BRANCH   3  17
ATOM     17  C   UNL     1       3.222   3.282  19.205  0.00  0.00    +0.000 C 
BRANCH  17  18
ATOM     18  C   UNL     1       3.966   2.723  17.991  0.00  0.00    +0.000 C 
BRANCH  18  19
ATOM     19  C   UNL     1       4.133   3.751  16.866  0.00  0.00    +0.000 C 
BRANCH  19  20
ATOM     20  N   UNL     1       5.554   4.099  16.607  0.00  0.00    +0.000 NA
ATOM     21  C   UNL     1       6.074   3.685  15.285  0.00  0.00    +0.000 C 
BRANCH  20  22
ATOM     22  S   UNL     1       6.102   5.607  17.178  0.00  0.00    +0.000 S 
ATOM     23  C   UNL     1       5.152   6.759  16.197  0.00  0.00    +0.000 C 
ATOM     24  O   UNL     1       5.689   5.747  18.559  0.00  0.00    +0.000 OA
ATOM     25  O   UNL     1       7.488   5.755  16.792  0.00  0.00    +0.000 OA
ENDBRANCH  20  22
ENDBRANCH  19  20
ENDBRANCH  18  19
ENDBRANCH  17  18
ENDBRANCH   3  17
TORSDOF 7
ENDMDL
MODEL 8
REMARK VINA RESULT:      -7.1      4.808      8.473
REMARK  Name = 
REMARK  10 active torsions:
REMARK  status: ('A' for Active; 'I' for Inactive)
REMARK    1  A    between atoms: C_1  and  C_2
REMARK    2  A    between atoms: C_5  and  C_6
REMARK    3  A    between atoms: N_8  and  C_9
REMARK    4  A    between atoms: C_9  and  C_10
REMARK    5  A    between atoms: C_10  and  C_11
REMARK    6  A    between atoms: C_11  and  N_12
REMARK    7  A    between atoms: N_12  and  C_13
REMARK    8  A    between atoms: N_12  and  S_14
REMARK    9  A    between atoms: S_14  and  C_15
REMARK   10  A    between atoms: C_19  and  N_20
REMARK                            x       y       z     vdW  Elec       q    Type
REMARK                         _______ _______ _______ _____ _____    ______ ____
ROOT
ATOM      1  C   UNL     1       1.959   9.070  18.160  0.00  0.00    +0.000 C 
ATOM      2  O   UNL     1       2.283   9.884  17.301  0.00  0.00    +0.000 OA
ATOM      3  N   UNL     1       0.992   9.331  19.110  0.00  0.00    +0.000 N 
ATOM      4  H   UNL     1       0.641   8.585  19.695  0.00  0.00    +0.000 HD
ENDROOT
BRANCH   1   9
ATOM      5  C   UNL     1       4.697   3.932  18.013  0.00  0.00    +0.000 C 
ATOM      6  C   UNL     1       3.947   5.229  18.173  0.00  0.00    +0.000 A 
ATOM      7  C   UNL     1       4.414   6.317  17.412  0.00  0.00    +0.000 A 
ATOM      8  C   UNL     1       3.752   7.544  17.414  0.00  0.00    +0.000 A 
ATOM      9  C   UNL     1       2.595   7.720  18.176  0.00  0.00    +0.000 A 
ATOM     10  C   UNL     1       2.122   6.655  18.956  0.00  0.00    +0.000 A 
ATOM     11  C   UNL     1       2.797   5.410  18.975  0.00  0.00    +0.000 A 
BRANCH  11  12
ATOM     12  N   UNL     1       2.271   4.380  19.822  0.00  0.00    +0.000 N 
ATOM     13  C   UNL     1       2.473   4.213  21.178  0.00  0.00    +0.000 A 
ATOM     14  C   UNL     1       1.821   3.079  21.607  0.00  0.00    +0.000 A 
ATOM     15  C   UNL     1       1.151   2.540  20.493  0.00  0.00    +0.000 A 
ATOM     16  C   UNL     1       1.415   3.367  19.422  0.00  0.00    +0.000 A 
ENDBRANCH  11  12
ENDBRANCH   1   9
BRANCH   3  17
ATOM     17  C   UNL     1       0.334  10.628  19.177  0.00  0.00    +0.000 C 
BRANCH  17  18
ATOM     18  C   UNL     1      -1.128  10.550  18.735  0.00  0.00    +0.000 C 
BRANCH  18  19
ATOM     19  C   UNL     1      -1.615  11.833  18.050  0.00  0.00    +0.000 C 
BRANCH  19  20
ATOM     20  N   UNL     1      -2.851  11.629  17.253  0.00  0.00    +0.000 NA
ATOM     21  C   UNL     1      -2.696  10.773  16.055  0.00  0.00    +0.000 C 
BRANCH  20  22
ATOM     22  S   UNL     1      -4.309  11.439  18.113  0.00  0.00    +0.000 S 
ATOM     23  C   UNL     1      -5.491  12.260  17.053  0.00  0.00    +0.000 C 
ATOM     24  O   UNL     1      -4.638  10.029  18.142  0.00  0.00    +0.000 OA
ATOM     25  O   UNL     1      -4.215  12.211  19.331  0.00  0.00    +0.000 OA
ENDBRANCH  20  22
ENDBRANCH  19  20
ENDBRANCH  18  19
ENDBRANCH  17  18
ENDBRANCH   3  17
TORSDOF 7
ENDMDL
MODEL 9
REMARK VINA RESULT:      -7.1      6.556      8.444
REMARK  Name = 
REMARK  10 active torsions:
REMARK  status: ('A' for Active; 'I' for Inactive)
REMARK    1  A    between atoms: C_1  and  C_2
REMARK    2  A    between atoms: C_5  and  C_6
REMARK    3  A    between atoms: N_8  and  C_9
REMARK    4  A    between atoms: C_9  and  C_10
REMARK    5  A    between atoms: C_10  and  C_11
REMARK    6  A    between atoms: C_11  and  N_12
REMARK    7  A    between atoms: N_12  and  C_13
REMARK    8  A    between atoms: N_12  and  S_14
REMARK    9  A    between atoms: S_14  and  C_15
REMARK   10  A    between atoms: C_19  and  N_20
REMARK                            x       y       z     vdW  Elec       q    Type
REMARK                         _______ _______ _______ _____ _____    ______ ____
ROOT
ATOM      1  C   UNL     1       9.437  10.762  19.016  0.00  0.00    +0.000 C 
ATOM      2  O   UNL     1       9.612  10.484  20.199  0.00  0.00    +0.000 OA
ATOM      3  N   UNL     1       8.825   9.899  18.128  0.00  0.00    +0.000 N 
ATOM      4  H   UNL     1       8.555  10.223  17.210  0.00  0.00    +0.000 HD
ENDROOT
BRANCH   1   9
ATOM      5  C   UNL     1      11.310  15.811  16.799  0.00  0.00    +0.000 C 
ATOM      6  C   UNL     1      10.707  14.562  17.386  0.00  0.00    +0.000 A 
ATOM      7  C   UNL     1      11.326  13.347  17.038  0.00  0.00    +0.000 A 
ATOM      8  C   UNL     1      10.907  12.134  17.583  0.00  0.00    +0.000 A 
ATOM      9  C   UNL     1       9.856  12.099  18.501  0.00  0.00    +0.000 A 
ATOM     10  C   UNL     1       9.212  13.295  18.849  0.00  0.00    +0.000 A 
ATOM     11  C   UNL     1       9.617  14.530  18.288  0.00  0.00    +0.000 A 
BRANCH  11  12
ATOM     12  N   UNL     1       8.890  15.706  18.668  0.00  0.00    +0.000 N 
ATOM     13  C   UNL     1       7.664  16.132  18.195  0.00  0.00    +0.000 A 
ATOM     14  C   UNL     1       7.330  17.329  18.789  0.00  0.00    +0.000 A 
ATOM     15  C   UNL     1       8.359  17.641  19.697  0.00  0.00    +0.000 A 
ATOM     16  C   UNL     1       9.285  16.623  19.627  0.00  0.00    +0.000 A 
ENDBRANCH  11  12
ENDBRANCH   1   9
BRANCH   3  17
ATOM     17  C   UNL     1       8.401   8.570  18.543  0.00  0.00    +0.000 C 
BRANCH  17  18
ATOM     18  C   UNL     1       7.576   7.870  17.463  0.00  0.00    +0.000 C 
BRANCH  18  19
ATOM     19  C   UNL     1       6.869   6.609  17.973  0.00  0.00    +0.000 C 
BRANCH  19  20
ATOM     20  N   UNL     1       6.167   5.864  16.896  0.00  0.00    +0.000 NA
ATOM     21  C   UNL     1       5.123   6.628  16.178  0.00  0.00    +0.000 C 
BRANCH  20  22
ATOM     22  S   UNL     1       7.105   4.813  15.939  0.00  0.00    +0.000 S 
ATOM     23  C   UNL     1       5.907   3.592  15.420  0.00  0.00    +0.000 C 
ATOM     24  O   UNL     1       7.542   5.538  14.764  0.00  0.00    +0.000 OA
ATOM     25  O   UNL     1       8.053   4.145  16.803  0.00  0.00    +0.000 OA
ENDBRANCH  20  22
ENDBRANCH  19  20
ENDBRANCH  18  19
ENDBRANCH  17  18
ENDBRANCH   3  17
TORSDOF 7
ENDMDL
