MODEL 1
REMARK VINA RESULT:      -6.2      0.000      0.000
REMARK  Name = 
REMARK  5 active torsions:
REMARK  status: ('A' for Active; 'I' for Inactive)
REMARK    1  A    between atoms: C_1  and  C_2
REMARK    2  A    between atoms: C_5  and  C_6
REMARK    3  A    between atoms: N_7  and  C_8
REMARK    4  A    between atoms: C_12  and  C_13
REMARK    5  A    between atoms: C_13  and  O_15
REMARK                            x       y       z     vdW  Elec       q    Type
REMARK                         _______ _______ _______ _____ _____    ______ ____
ROOT
ATOM      1  C   UNL     1       4.909   4.717  17.779  0.00  0.00    +0.000 A 
ATOM      2  C   UNL     1       4.629   4.043  16.537  0.00  0.00    +0.000 A 
ATOM      3  C   UNL     1       5.720   3.954  15.707  0.00  0.00    +0.000 A 
ATOM      4  S   UNL     1       7.082   4.704  16.386  0.00  0.00    +0.000 S 
ATOM      5  C   UNL     1       6.249   5.086  17.853  0.00  0.00    +0.000 A 
ENDROOT
BRANCH   1  12
ATOM      6  C   UNL     1       4.023   2.635  19.937  0.00  0.00    +0.000 C 
ATOM      7  C   UNL     1       3.473   4.010  19.748  0.00  0.00    +0.000 A 
ATOM      8  C   UNL     1       2.533   4.617  20.558  0.00  0.00    +0.000 A 
ATOM      9  C   UNL     1       2.325   5.913  20.074  0.00  0.00    +0.000 A 
ATOM     10  C   UNL     1       3.111   6.081  18.949  0.00  0.00    +0.000 A 
ATOM     11  C   UNL     1       3.032   7.232  18.004  0.00  0.00    +0.000 C 
ATOM     12  N   UNL     1       3.882   4.930  18.773  0.00  0.00    +0.000 N 
ENDBRANCH   1  12
BRANCH   5  13
ATOM     13  C   UNL     1       7.082   5.653  18.897  0.00  0.00    +0.000 C 
ATOM     14  O   UNL     1       7.105   5.305  20.072  0.00  0.00    +0.000 OA
BRANCH  13  15
ATOM     15  O   UNL     1       7.854   6.684  18.468  0.00  0.00    +0.000 OA
ATOM     16  H   UNL     1       8.809   6.494  18.443  0.00  0.00    +0.000 HD
ENDBRANCH  13  15
ENDBRANCH   5  13
TORSDOF 3
ENDMDL
MODEL 2
REMARK VINA RESULT:      -6.2      0.207      2.102
REMARK  Name = 
REMARK  5 active torsions:
REMARK  status: ('A' for Active; 'I' for Inactive)
REMARK    1  A    between atoms: C_1  and  C_2
REMARK    2  A    between atoms: C_5  and  C_6
REMARK    3  A    between atoms: N_7  and  C_8
REMARK    4  A    between atoms: C_12  and  C_13
REMARK    5  A    between atoms: C_13  and  O_15
REMARK                            x       y       z     vdW  Elec       q    Type
REMARK                         _______ _______ _______ _____ _____    ______ ____
ROOT
ATOM      1  C   UNL     1       4.904   4.616  17.750  0.00  0.00    +0.000 A 
ATOM      2  C   UNL     1       4.627   3.967  16.493  0.00  0.00    +0.000 A 
ATOM      3  C   UNL     1       5.699   3.964  15.634  0.00  0.00    +0.000 A 
ATOM      4  S   UNL     1       7.037   4.765  16.303  0.00  0.00    +0.000 S 
ATOM      5  C   UNL     1       6.224   5.056  17.802  0.00  0.00    +0.000 A 
ENDROOT
BRANCH   1  12
ATOM      6  C   UNL     1       3.091   7.123  18.199  0.00  0.00    +0.000 C 
ATOM      7  C   UNL     1       3.072   5.857  18.990  0.00  0.00    +0.000 A 
ATOM      8  C   UNL     1       2.183   5.558  20.004  0.00  0.00    +0.000 A 
ATOM      9  C   UNL     1       2.465   4.263  20.452  0.00  0.00    +0.000 A 
ATOM     10  C   UNL     1       3.548   3.789  19.735  0.00  0.00    +0.000 A 
ATOM     11  C   UNL     1       4.308   2.543  20.040  0.00  0.00    +0.000 C 
ATOM     12  N   UNL     1       3.894   4.743  18.775  0.00  0.00    +0.000 N 
ENDBRANCH   1  12
BRANCH   5  13
ATOM     13  C   UNL     1       7.053   5.634  18.842  0.00  0.00    +0.000 C 
ATOM     14  O   UNL     1       7.077   5.294  20.020  0.00  0.00    +0.000 OA
BRANCH  13  15
ATOM     15  O   UNL     1       7.819   6.666  18.407  0.00  0.00    +0.000 OA
ATOM     16  H   UNL     1       8.701   6.408  18.080  0.00  0.00    +0.000 HD
ENDBRANCH  13  15
ENDBRANCH   5  13
TORSDOF 3
ENDMDL
MODEL 3
REMARK VINA RESULT:      -6.0      2.516      4.172
REMARK  Name = 
REMARK  5 active torsions:
REMARK  status: ('A' for Active; 'I' for Inactive)
REMARK    1  A    between atoms: C_1  and  C_2
REMARK    2  A    between atoms: C_5  and  C_6
REMARK    3  A    between atoms: N_7  and  C_8
REMARK    4  A    between atoms: C_12  and  C_13
REMARK    5  A    between atoms: C_13  and  O_15
REMARK                            x       y       z     vdW  Elec       q    Type
REMARK                         _______ _______ _______ _____ _____    ______ ____
ROOT
ATOM      1  C   UNL     1       2.981   4.257  18.054  0.00  0.00    +0.000 A 
ATOM      2  C   UNL     1       1.567   4.076  17.844  0.00  0.00    +0.000 A 
ATOM      3  C   UNL     1       1.066   2.952  18.455  0.00  0.00    +0.000 A 
ATOM      4  S   UNL     1       2.282   2.083  19.258  0.00  0.00    +0.000 S 
ATOM      5  C   UNL     1       3.496   3.254  18.871  0.00  0.00    +0.000 A 
ENDROOT
BRANCH   1  12
ATOM      6  C   UNL     1       2.497   7.271  18.729  0.00  0.00    +0.000 C 
ATOM      7  C   UNL     1       3.494   6.724  17.761  0.00  0.00    +0.000 A 
ATOM      8  C   UNL     1       4.427   7.468  17.065  0.00  0.00    +0.000 A 
ATOM      9  C   UNL     1       5.201   6.581  16.308  0.00  0.00    +0.000 A 
ATOM     10  C   UNL     1       4.714   5.304  16.516  0.00  0.00    +0.000 A 
ATOM     11  C   UNL     1       5.108   4.093  15.740  0.00  0.00    +0.000 C 
ATOM     12  N   UNL     1       3.696   5.368  17.470  0.00  0.00    +0.000 N 
ENDBRANCH   1  12
BRANCH   5  13
ATOM     13  C   UNL     1       4.784   3.026  19.497  0.00  0.00    +0.000 C 
ATOM     14  O   UNL     1       5.700   3.837  19.584  0.00  0.00    +0.000 OA
BRANCH  13  15
ATOM     15  O   UNL     1       4.934   1.765  19.975  0.00  0.00    +0.000 OA
ATOM     16  H   UNL     1       4.889   1.065  19.297  0.00  0.00    +0.000 HD
ENDBRANCH  13  15
ENDBRANCH   5  13
TORSDOF 3
ENDMDL
MODEL 4
REMARK VINA RESULT:      -6.0      2.530      3.918
REMARK  Name = 
REMARK  5 active torsions:
REMARK  status: ('A' for Active; 'I' for Inactive)
REMARK    1  A    between atoms: C_1  and  C_2
REMARK    2  A    between atoms: C_5  and  C_6
REMARK    3  A    between atoms: N_7  and  C_8
REMARK    4  A    between atoms: C_12  and  C_13
REMARK    5  A    between atoms: C_13  and  O_15
REMARK                            x       y       z     vdW  Elec       q    Type
REMARK                         _______ _______ _______ _____ _____    ______ ____
ROOT
ATOM      1  C   UNL     1       2.889   4.208  18.163  0.00  0.00    +0.000 A 
ATOM      2  C   UNL     1       1.480   3.986  17.955  0.00  0.00    +0.000 A 
ATOM      3  C   UNL     1       1.026   2.813  18.509  0.00  0.00    +0.000 A 
ATOM      4  S   UNL     1       2.281   1.948  19.253  0.00  0.00    +0.000 S 
ATOM      5  C   UNL     1       3.447   3.182  18.920  0.00  0.00    +0.000 A 
ENDROOT
BRANCH   1  12
ATOM      6  C   UNL     1       5.131   4.173  15.986  0.00  0.00    +0.000 C 
ATOM      7  C   UNL     1       4.562   5.378  16.659  0.00  0.00    +0.000 A 
ATOM      8  C   UNL     1       4.882   6.689  16.362  0.00  0.00    +0.000 A 
ATOM      9  C   UNL     1       4.098   7.515  17.176  0.00  0.00    +0.000 A 
ATOM     10  C   UNL     1       3.330   6.706  17.992  0.00  0.00    +0.000 A 
ATOM     11  C   UNL     1       2.518   7.172  19.153  0.00  0.00    +0.000 C 
ATOM     12  N   UNL     1       3.557   5.374  17.635  0.00  0.00    +0.000 N 
ENDBRANCH   1  12
BRANCH   5  13
ATOM     13  C   UNL     1       4.750   2.967  19.521  0.00  0.00    +0.000 C 
ATOM     14  O   UNL     1       5.654   3.792  19.602  0.00  0.00    +0.000 OA
BRANCH  13  15
ATOM     15  O   UNL     1       4.927   1.703  19.983  0.00  0.00    +0.000 OA
ATOM     16  H   UNL     1       4.179   1.349  20.497  0.00  0.00    +0.000 HD
ENDBRANCH  13  15
ENDBRANCH   5  13
TORSDOF 3
ENDMDL
MODEL 5
REMARK VINA RESULT:      -5.9      2.274      3.547
REMARK  Name = 
REMARK  5 active torsions:
REMARK  status: ('A' for Active; 'I' for Inactive)
REMARK    1  A    between atoms: C_1  and  C_2
REMARK    2  A    between atoms: C_5  and  C_6
REMARK    3  A    between atoms: N_7  and  C_8
REMARK    4  A    between atoms: C_12  and  C_13
REMARK    5  A    between atoms: C_13  and  O_15
REMARK                            x       y       z     vdW  Elec       q    Type
REMARK                         _______ _______ _______ _____ _____    ______ ____
ROOT
ATOM      1  C   UNL     1       4.963   4.653  18.200  0.00  0.00    +0.000 A 
ATOM      2  C   UNL     1       5.561   5.160  19.409  0.00  0.00    +0.000 A 
ATOM      3  C   UNL     1       6.902   5.430  19.282  0.00  0.00    +0.000 A 
ATOM      4  S   UNL     1       7.470   5.050  17.729  0.00  0.00    +0.000 S 
ATOM      5  C   UNL     1       5.898   4.596  17.170  0.00  0.00    +0.000 A 
ENDROOT
BRANCH   1  12
ATOM      6  C   UNL     1       2.575   6.665  18.053  0.00  0.00    +0.000 C 
ATOM      7  C   UNL     1       2.484   5.175  18.074  0.00  0.00    +0.000 A 
ATOM      8  C   UNL     1       1.321   4.440  17.947  0.00  0.00    +0.000 A 
ATOM      9  C   UNL     1       1.668   3.085  17.965  0.00  0.00    +0.000 A 
ATOM     10  C   UNL     1       3.036   2.996  18.141  0.00  0.00    +0.000 A 
ATOM     11  C   UNL     1       3.791   1.743  18.431  0.00  0.00    +0.000 C 
ATOM     12  N   UNL     1       3.567   4.288  18.141  0.00  0.00    +0.000 N 
ENDBRANCH   1  12
BRANCH   5  13
ATOM     13  C   UNL     1       5.817   4.303  15.751  0.00  0.00    +0.000 C 
ATOM     14  O   UNL     1       5.506   5.093  14.866  0.00  0.00    +0.000 OA
BRANCH  13  15
ATOM     15  O   UNL     1       6.088   3.007  15.454  0.00  0.00    +0.000 OA
ATOM     16  H   UNL     1       5.306   2.426  15.416  0.00  0.00    +0.000 HD
ENDBRANCH  13  15
ENDBRANCH   5  13
TORSDOF 3
ENDMDL
MODEL 6
REMARK VINA RESULT:      -5.9      1.336      2.438
REMARK  Name = 
REMARK  5 active torsions:
REMARK  status: ('A' for Active; 'I' for Inactive)
REMARK    1  A    between atoms: C_1  and  C_2
REMARK    2  A    between atoms: C_5  and  C_6
REMARK    3  A    between atoms: N_7  and  C_8
REMARK    4  A    between atoms: C_12  and  C_13
REMARK    5  A    between atoms: C_13  and  O_15
REMARK                            x       y       z     vdW  Elec       q    Type
REMARK                         _______ _______ _______ _____ _____    ______ ____
ROOT
ATOM      1  C   UNL     1       4.861   4.449  16.874  0.00  0.00    +0.000 A 
ATOM      2  C   UNL     1       4.856   4.230  15.449  0.00  0.00    +0.000 A 
ATOM      3  C   UNL     1       6.097   4.360  14.874  0.00  0.00    +0.000 A 
ATOM      4  S   UNL     1       7.275   4.778  16.020  0.00  0.00    +0.000 S 
ATOM      5  C   UNL     1       6.150   4.705  17.332  0.00  0.00    +0.000 A 
ENDROOT
BRANCH   1  12
ATOM      6  C   UNL     1       3.256   6.911  17.937  0.00  0.00    +0.000 C 
ATOM      7  C   UNL     1       2.915   5.472  18.138  0.00  0.00    +0.000 A 
ATOM      8  C   UNL     1       1.777   4.996  18.761  0.00  0.00    +0.000 A 
ATOM      9  C   UNL     1       1.808   3.599  18.699  0.00  0.00    +0.000 A 
ATOM     10  C   UNL     1       2.981   3.225  18.070  0.00  0.00    +0.000 A 
ATOM     11  C   UNL     1       3.512   1.834  17.989  0.00  0.00    +0.000 C 
ATOM     12  N   UNL     1       3.648   4.380  17.654  0.00  0.00    +0.000 N 
ENDBRANCH   1  12
BRANCH   5  13
ATOM     13  C   UNL     1       6.739   4.858  18.649  0.00  0.00    +0.000 C 
ATOM     14  O   UNL     1       6.144   5.161  19.677  0.00  0.00    +0.000 OA
BRANCH  13  15
ATOM     15  O   UNL     1       8.083   4.670  18.661  0.00  0.00    +0.000 OA
ATOM     16  H   UNL     1       8.513   4.747  17.790  0.00  0.00    +0.000 HD
ENDBRANCH  13  15
ENDBRANCH   5  13
TORSDOF 3
ENDMDL
MODEL 7
REMARK VINA RESULT:      -5.8      2.283      2.899
REMARK  Name = 
REMARK  5 active torsions:
REMARK  status: ('A' for Active; 'I' for Inactive)
REMARK    1  A    between atoms: C_1  and  C_2
REMARK    2  A    between atoms: C_5  and  C_6
REMARK    3  A    between atoms: N_7  and  C_8
REMARK    4  A    between atoms: C_12  and  C_13
REMARK    5  A    between atoms: C_13  and  O_15
REMARK                            x       y       z     vdW  Elec       q    Type
REMARK                         _______ _______ _______ _____ _____    ______ ____
ROOT
ATOM      1  C   UNL     1       4.948   4.656  18.206  0.00  0.00    +0.000 A 
ATOM      2  C   UNL     1       5.551   5.154  19.417  0.00  0.00    +0.000 A 
ATOM      3  C   UNL     1       6.895   5.409  19.291  0.00  0.00    +0.000 A 
ATOM      4  S   UNL     1       7.459   5.026  17.737  0.00  0.00    +0.000 S 
ATOM      5  C   UNL     1       5.882   4.590  17.176  0.00  0.00    +0.000 A 
ENDROOT
BRANCH   1  12
ATOM      6  C   UNL     1       3.819   1.744  18.067  0.00  0.00    +0.000 C 
ATOM      7  C   UNL     1       3.024   3.007  18.086  0.00  0.00    +0.000 A 
ATOM      8  C   UNL     1       1.645   3.087  18.128  0.00  0.00    +0.000 A 
ATOM      9  C   UNL     1       1.297   4.441  18.185  0.00  0.00    +0.000 A 
ATOM     10  C   UNL     1       2.462   5.184  18.140  0.00  0.00    +0.000 A 
ATOM     11  C   UNL     1       2.537   6.663  17.960  0.00  0.00    +0.000 C 
ATOM     12  N   UNL     1       3.548   4.306  18.147  0.00  0.00    +0.000 N 
ENDBRANCH   1  12
BRANCH   5  13
ATOM     13  C   UNL     1       5.799   4.301  15.757  0.00  0.00    +0.000 C 
ATOM     14  O   UNL     1       5.489   5.093  14.875  0.00  0.00    +0.000 OA
BRANCH  13  15
ATOM     15  O   UNL     1       6.066   3.004  15.457  0.00  0.00    +0.000 OA
ATOM     16  H   UNL     1       5.284   2.423  15.433  0.00  0.00    +0.000 HD
ENDBRANCH  13  15
ENDBRANCH   5  13
TORSDOF 3
ENDMDL
MODEL 8
REMARK VINA RESULT:      -5.8      1.947      2.978
REMARK  Name = 
REMARK  5 active torsions:
REMARK  status: ('A' for Active; 'I' for Inactive)
REMARK    1  A    between atoms: C_1  and  C_2
REMARK    2  A    between atoms: C_5  and  C_6
REMARK    3  A    between atoms: N_7  and  C_8
REMARK    4  A    between atoms: C_12  and  C_13
REMARK    5  A    between atoms: C_13  and  O_15
REMARK                            x       y       z     vdW  Elec       q    Type
REMARK                         _______ _______ _______ _____ _____    ______ ____
ROOT
ATOM      1  C   UNL     1       3.349   5.297  18.357  0.00  0.00    +0.000 A 
ATOM      2  C   UNL     1       2.974   6.490  17.642  0.00  0.00    +0.000 A 
ATOM      3  C   UNL     1       4.050   7.210  17.181  0.00  0.00    +0.000 A 
ATOM      4  S   UNL     1       5.519   6.488  17.626  0.00  0.00    +0.000 S 
ATOM      5  C   UNL     1       4.732   5.141  18.374  0.00  0.00    +0.000 A 
ENDROOT
BRANCH   1  12
ATOM      6  C   UNL     1       1.698   5.903  20.942  0.00  0.00    +0.000 C 
ATOM      7  C   UNL     1       1.609   4.677  20.096  0.00  0.00    +0.000 A 
ATOM      8  C   UNL     1       0.713   3.640  20.276  0.00  0.00    +0.000 A 
ATOM      9  C   UNL     1       0.919   2.713  19.250  0.00  0.00    +0.000 A 
ATOM     10  C   UNL     1       1.964   3.167  18.467  0.00  0.00    +0.000 A 
ATOM     11  C   UNL     1       2.648   2.382  17.399  0.00  0.00    +0.000 C 
ATOM     12  N   UNL     1       2.359   4.421  18.940  0.00  0.00    +0.000 N 
ENDBRANCH   1  12
BRANCH   5  13
ATOM     13  C   UNL     1       5.622   4.087  18.821  0.00  0.00    +0.000 C 
ATOM     14  O   UNL     1       5.356   3.215  19.641  0.00  0.00    +0.000 OA
BRANCH  13  15
ATOM     15  O   UNL     1       6.859   4.157  18.267  0.00  0.00    +0.000 OA
ATOM     16  H   UNL     1       6.933   3.749  17.385  0.00  0.00    +0.000 HD
ENDBRANCH  13  15
ENDBRANCH   5  13
TORSDOF 3
ENDMDL
MODEL 9
REMARK VINA RESULT:      -5.8      1.927      2.566
REMARK  Name = 
REMARK  5 active torsions:
REMARK  status: ('A' for Active; 'I' for Inactive)
REMARK    1  A    between atoms: C_1  and  C_2
REMARK    2  A    between atoms: C_5  and  C_6
REMARK    3  A    between atoms: N_7  and  C_8
REMARK    4  A    between atoms: C_12  and  C_13
REMARK    5  A    between atoms: C_13  and  O_15
REMARK                            x       y       z     vdW  Elec       q    Type
REMARK                         _______ _______ _______ _____ _____    ______ ____
ROOT
ATOM      1  C   UNL     1       3.446   5.498  18.384  0.00  0.00    +0.000 A 
ATOM      2  C   UNL     1       3.129   6.689  17.637  0.00  0.00    +0.000 A 
ATOM      3  C   UNL     1       4.236   7.311  17.111  0.00  0.00    +0.000 A 
ATOM      4  S   UNL     1       5.666   6.500  17.530  0.00  0.00    +0.000 S 
ATOM      5  C   UNL     1       4.813   5.242  18.357  0.00  0.00    +0.000 A 
ENDROOT
BRANCH   1  12
ATOM      6  C   UNL     1       2.439   2.692  17.441  0.00  0.00    +0.000 C 
ATOM      7  C   UNL     1       1.955   3.459  18.627  0.00  0.00    +0.000 A 
ATOM      8  C   UNL     1       1.034   3.009  19.554  0.00  0.00    +0.000 A 
ATOM      9  C   UNL     1       0.892   3.999  20.531  0.00  0.00    +0.000 A 
ATOM     10  C   UNL     1       1.698   5.066  20.180  0.00  0.00    +0.000 A 
ATOM     11  C   UNL     1       1.684   6.409  20.827  0.00  0.00    +0.000 C 
ATOM     12  N   UNL     1       2.418   4.718  19.034  0.00  0.00    +0.000 N 
ENDBRANCH   1  12
BRANCH   5  13
ATOM     13  C   UNL     1       5.642   4.141  18.811  0.00  0.00    +0.000 C 
ATOM     14  O   UNL     1       5.321   3.283  19.626  0.00  0.00    +0.000 OA
BRANCH  13  15
ATOM     15  O   UNL     1       6.887   4.147  18.271  0.00  0.00    +0.000 OA
ATOM     16  H   UNL     1       6.992   3.579  17.486  0.00  0.00    +0.000 HD
ENDBRANCH  13  15
ENDBRANCH   5  13
TORSDOF 3
ENDMDL
