MODEL 1
REMARK VINA RESULT:      -8.1      0.000      0.000
REMARK  Name = 
REMARK  11 active torsions:
REMARK  status: ('A' for Active; 'I' for Inactive)
REMARK    1  A    between atoms: C_1  and  C_2
REMARK    2  A    between atoms: C_2  and  N_3
REMARK    3  A    between atoms: C_6  and  C_7
REMARK    4  A    between atoms: C_7  and  N_8
REMARK    5  A    between atoms: C_9  and  C_11
REMARK    6  A    between atoms: C_11  and  C_12
REMARK    7  A    between atoms: C_12  and  S_13
REMARK    8  A    between atoms: S_13  and  C_14
REMARK    9  A    between atoms: C_16  and  C_17
REMARK   10  A    between atoms: C_23  and  C_24
REMARK   11  A    between atoms: C_29  and  C_30
REMARK                            x       y       z     vdW  Elec       q    Type
REMARK                         _______ _______ _______ _____ _____    ______ ____
ROOT
ATOM      1  S   UNL     1       2.957   3.469  17.372  0.00  0.00    +0.000 S 
ENDROOT
BRANCH   1   2
ATOM      2  C   UNL     1       4.556   4.142  16.974  0.00  0.00    +0.000 A 
ATOM      3  N   UNL     1       4.924   4.080  15.686  0.00  0.00    +0.000 NA
ATOM      4  C   UNL     1       6.152   4.543  15.379  0.00  0.00    +0.000 A 
ATOM      5  C   UNL     1       7.002   5.083  16.320  0.00  0.00    +0.000 A 
ATOM      6  C   UNL     1       6.556   5.093  17.627  0.00  0.00    +0.000 A 
ATOM      7  N   UNL     1       5.325   4.624  17.962  0.00  0.00    +0.000 NA
BRANCH   4   8
ATOM      8  C   UNL     1       6.568   4.362  13.993  0.00  0.00    +0.000 A 
ATOM      9  C   UNL     1       7.449   5.012  13.152  0.00  0.00    +0.000 A 
ATOM     10  C   UNL     1       7.329   4.401  11.879  0.00  0.00    +0.000 A 
ATOM     11  C   UNL     1       6.399   3.400  12.021  0.00  0.00    +0.000 A 
ATOM     12  O   UNL     1       5.936   3.363  13.297  0.00  0.00    +0.000 OA
ENDBRANCH   4   8
BRANCH   6  13
ATOM     13  C   UNL     1       7.486   5.587  18.723  0.00  0.00    +0.000 C 
ATOM     14  F   UNL     1       7.974   6.842  18.489  0.00  0.00    +0.000 F 
ATOM     15  F   UNL     1       6.888   5.651  19.944  0.00  0.00    +0.000 F 
ATOM     16  F   UNL     1       8.586   4.796  18.875  0.00  0.00    +0.000 F 
ENDBRANCH   6  13
ENDBRANCH   1   2
BRANCH   1  17
ATOM     17  C   UNL     1       3.413   2.015  18.385  0.00  0.00    +0.000 C 
BRANCH  17  18
ATOM     18  C   UNL     1       3.935   2.479  19.743  0.00  0.00    +0.000 C 
BRANCH  18  20
ATOM     19  N   UNL     1       2.944   4.673  20.142  0.00  0.00    +0.000 N 
ATOM     20  C   UNL     1       2.893   3.330  20.437  0.00  0.00    +0.000 C 
ATOM     21  O   UNL     1       2.078   2.852  21.221  0.00  0.00    +0.000 OA
ATOM     22  H   UNL     1       3.619   5.039  19.484  0.00  0.00    +0.000 HD
BRANCH  19  23
ATOM     23  C   UNL     1       2.029   5.591  20.781  0.00  0.00    +0.000 C 
BRANCH  23  27
ATOM     24  N   UNL     1       1.575   8.933  19.339  0.00  0.00    +0.000 N 
ATOM     25  N   UNL     1       2.293   8.381  18.344  0.00  0.00    +0.000 NA
ATOM     26  C   UNL     1       2.535   7.142  18.772  0.00  0.00    +0.000 A 
ATOM     27  C   UNL     1       1.996   6.888  20.054  0.00  0.00    +0.000 A 
ATOM     28  C   UNL     1       1.395   8.088  20.411  0.00  0.00    +0.000 A 
ATOM     29  C   UNL     1       0.648   8.480  21.633  0.00  0.00    +0.000 C 
BRANCH  24  31
ATOM     30  C   UNL     1      -0.285  10.300  18.470  0.00  0.00    +0.000 C 
ATOM     31  C   UNL     1       1.065  10.282  19.168  0.00  0.00    +0.000 C 
ENDBRANCH  24  31
ENDBRANCH  23  27
ENDBRANCH  19  23
ENDBRANCH  18  20
ENDBRANCH  17  18
ENDBRANCH   1  17
TORSDOF 9
ENDMDL
MODEL 2
REMARK VINA RESULT:      -7.9      1.685      2.247
REMARK  Name = 
REMARK  11 active torsions:
REMARK  status: ('A' for Active; 'I' for Inactive)
REMARK    1  A    between atoms: C_1  and  C_2
REMARK    2  A    between atoms: C_2  and  N_3
REMARK    3  A    between atoms: C_6  and  C_7
REMARK    4  A    between atoms: C_7  and  N_8
REMARK    5  A    between atoms: C_9  and  C_11
REMARK    6  A    between atoms: C_11  and  C_12
REMARK    7  A    between atoms: C_12  and  S_13
REMARK    8  A    between atoms: S_13  and  C_14
REMARK    9  A    between atoms: C_16  and  C_17
REMARK   10  A    between atoms: C_23  and  C_24
REMARK   11  A    between atoms: C_29  and  C_30
REMARK                            x       y       z     vdW  Elec       q    Type
REMARK                         _______ _______ _______ _____ _____    ______ ____
ROOT
ATOM      1  S   UNL     1       3.753   2.841  18.386  0.00  0.00    +0.000 S 
ENDROOT
BRANCH   1   2
ATOM      2  C   UNL     1       5.132   3.810  17.814  0.00  0.00    +0.000 A 
ATOM      3  N   UNL     1       5.312   3.861  16.485  0.00  0.00    +0.000 NA
ATOM      4  C   UNL     1       6.380   4.554  16.041  0.00  0.00    +0.000 A 
ATOM      5  C   UNL     1       7.249   5.208  16.886  0.00  0.00    +0.000 A 
ATOM      6  C   UNL     1       7.005   5.090  18.240  0.00  0.00    +0.000 A 
ATOM      7  N   UNL     1       5.939   4.391  18.713  0.00  0.00    +0.000 NA
BRANCH   4   8
ATOM      8  C   UNL     1       6.614   4.500  14.602  0.00  0.00    +0.000 A 
ATOM      9  C   UNL     1       6.078   3.772  13.559  0.00  0.00    +0.000 A 
ATOM     10  C   UNL     1       6.810   4.119  12.397  0.00  0.00    +0.000 A 
ATOM     11  C   UNL     1       7.737   5.053  12.792  0.00  0.00    +0.000 A 
ATOM     12  O   UNL     1       7.624   5.295  14.123  0.00  0.00    +0.000 OA
ENDBRANCH   4   8
BRANCH   6  13
ATOM     13  C   UNL     1       7.982   5.709  19.226  0.00  0.00    +0.000 C 
ATOM     14  F   UNL     1       7.441   5.912  20.465  0.00  0.00    +0.000 F 
ATOM     15  F   UNL     1       9.090   4.946  19.434  0.00  0.00    +0.000 F 
ATOM     16  F   UNL     1       8.428   6.933  18.825  0.00  0.00    +0.000 F 
ENDBRANCH   6  13
ENDBRANCH   1   2
BRANCH   1  17
ATOM     17  C   UNL     1       2.474   3.256  17.144  0.00  0.00    +0.000 C 
BRANCH  17  18
ATOM     18  C   UNL     1       1.473   4.239  17.747  0.00  0.00    +0.000 C 
BRANCH  18  20
ATOM     19  N   UNL     1       1.949   5.799  19.563  0.00  0.00    +0.000 N 
ATOM     20  C   UNL     1       2.195   5.472  18.249  0.00  0.00    +0.000 C 
ATOM     21  O   UNL     1       2.927   6.138  17.524  0.00  0.00    +0.000 OA
ATOM     22  H   UNL     1       1.348   5.226  20.141  0.00  0.00    +0.000 HD
BRANCH  19  23
ATOM     23  C   UNL     1       2.545   6.982  20.140  0.00  0.00    +0.000 C 
BRANCH  23  27
ATOM     24  N   UNL     1       0.416   9.949  19.800  0.00  0.00    +0.000 N 
ATOM     25  N   UNL     1      -0.047   9.504  20.982  0.00  0.00    +0.000 NA
ATOM     26  C   UNL     1       0.658   8.396  21.207  0.00  0.00    +0.000 A 
ATOM     27  C   UNL     1       1.567   8.102  20.165  0.00  0.00    +0.000 A 
ATOM     28  C   UNL     1       1.367   9.124  19.245  0.00  0.00    +0.000 A 
ATOM     29  C   UNL     1       2.014   9.399  17.937  0.00  0.00    +0.000 C 
BRANCH  24  31
ATOM     30  C   UNL     1      -1.437  11.576  19.878  0.00  0.00    +0.000 C 
ATOM     31  C   UNL     1      -0.089  11.208  19.280  0.00  0.00    +0.000 C 
ENDBRANCH  24  31
ENDBRANCH  23  27
ENDBRANCH  19  23
ENDBRANCH  18  20
ENDBRANCH  17  18
ENDBRANCH   1  17
TORSDOF 9
ENDMDL
MODEL 3
REMARK VINA RESULT:      -7.9      1.490      2.284
REMARK  Name = 
REMARK  11 active torsions:
REMARK  status: ('A' for Active; 'I' for Inactive)
REMARK    1  A    between atoms: C_1  and  C_2
REMARK    2  A    between atoms: C_2  and  N_3
REMARK    3  A    between atoms: C_6  and  C_7
REMARK    4  A    between atoms: C_7  and  N_8
REMARK    5  A    between atoms: C_9  and  C_11
REMARK    6  A    between atoms: C_11  and  C_12
REMARK    7  A    between atoms: C_12  and  S_13
REMARK    8  A    between atoms: S_13  and  C_14
REMARK    9  A    between atoms: C_16  and  C_17
REMARK   10  A    between atoms: C_23  and  C_24
REMARK   11  A    between atoms: C_29  and  C_30
REMARK                            x       y       z     vdW  Elec       q    Type
REMARK                         _______ _______ _______ _____ _____    ______ ____
ROOT
ATOM      1  S   UNL     1       3.631   2.833  18.034  0.00  0.00    +0.000 S 
ENDROOT
BRANCH   1   2
ATOM      2  C   UNL     1       5.045   3.794  17.541  0.00  0.00    +0.000 A 
ATOM      3  N   UNL     1       5.280   3.874  16.222  0.00  0.00    +0.000 NA
ATOM      4  C   UNL     1       6.375   4.560  15.838  0.00  0.00    +0.000 A 
ATOM      5  C   UNL     1       7.218   5.181  16.733  0.00  0.00    +0.000 A 
ATOM      6  C   UNL     1       6.917   5.036  18.073  0.00  0.00    +0.000 A 
ATOM      7  N   UNL     1       5.823   4.342  18.486  0.00  0.00    +0.000 NA
BRANCH   4   8
ATOM      8  C   UNL     1       6.667   4.537  14.409  0.00  0.00    +0.000 A 
ATOM      9  C   UNL     1       6.196   3.807  13.335  0.00  0.00    +0.000 A 
ATOM     10  C   UNL     1       6.961   4.196  12.208  0.00  0.00    +0.000 A 
ATOM     11  C   UNL     1       7.839   5.155  12.653  0.00  0.00    +0.000 A 
ATOM     12  O   UNL     1       7.666   5.373  13.981  0.00  0.00    +0.000 OA
ENDBRANCH   4   8
BRANCH   6  13
ATOM     13  C   UNL     1       7.862   5.617  19.112  0.00  0.00    +0.000 C 
ATOM     14  F   UNL     1       8.325   6.860  18.783  0.00  0.00    +0.000 F 
ATOM     15  F   UNL     1       7.290   5.756  20.340  0.00  0.00    +0.000 F 
ATOM     16  F   UNL     1       8.978   4.855  19.292  0.00  0.00    +0.000 F 
ENDBRANCH   6  13
ENDBRANCH   1   2
BRANCH   1  17
ATOM     17  C   UNL     1       2.279   4.055  17.858  0.00  0.00    +0.000 C 
BRANCH  17  18
ATOM     18  C   UNL     1       2.834   5.464  18.046  0.00  0.00    +0.000 C 
BRANCH  18  20
ATOM     19  N   UNL     1       2.037   7.318  19.419  0.00  0.00    +0.000 N 
ATOM     20  C   UNL     1       2.436   6.002  19.405  0.00  0.00    +0.000 C 
ATOM     21  O   UNL     1       2.490   5.313  20.419  0.00  0.00    +0.000 OA
ATOM     22  H   UNL     1       1.992   7.861  18.566  0.00  0.00    +0.000 HD
BRANCH  19  23
ATOM     23  C   UNL     1       1.678   7.955  20.666  0.00  0.00    +0.000 C 
BRANCH  23  27
ATOM     24  N   UNL     1      -0.057  11.029  19.672  0.00  0.00    +0.000 N 
ATOM     25  N   UNL     1      -0.702  10.800  20.830  0.00  0.00    +0.000 NA
ATOM     26  C   UNL     1      -0.154   9.674  21.286  0.00  0.00    +0.000 A 
ATOM     27  C   UNL     1       0.833   9.153  20.418  0.00  0.00    +0.000 A 
ATOM     28  C   UNL     1       0.857  10.049  19.358  0.00  0.00    +0.000 A 
ATOM     29  C   UNL     1       1.679  10.077  18.122  0.00  0.00    +0.000 C 
BRANCH  24  31
ATOM     30  C   UNL     1      -1.567  12.083  18.030  0.00  0.00    +0.000 C 
ATOM     31  C   UNL     1      -0.356  12.244  18.934  0.00  0.00    +0.000 C 
ENDBRANCH  24  31
ENDBRANCH  23  27
ENDBRANCH  19  23
ENDBRANCH  18  20
ENDBRANCH  17  18
ENDBRANCH   1  17
TORSDOF 9
ENDMDL
MODEL 4
REMARK VINA RESULT:      -7.8      1.572      2.396
REMARK  Name = 
REMARK  11 active torsions:
REMARK  status: ('A' for Active; 'I' for Inactive)
REMARK    1  A    between atoms: C_1  and  C_2
REMARK    2  A    between atoms: C_2  and  N_3
REMARK    3  A    between atoms: C_6  and  C_7
REMARK    4  A    between atoms: C_7  and  N_8
REMARK    5  A    between atoms: C_9  and  C_11
REMARK    6  A    between atoms: C_11  and  C_12
REMARK    7  A    between atoms: C_12  and  S_13
REMARK    8  A    between atoms: S_13  and  C_14
REMARK    9  A    between atoms: C_16  and  C_17
REMARK   10  A    between atoms: C_23  and  C_24
REMARK   11  A    between atoms: C_29  and  C_30
REMARK                            x       y       z     vdW  Elec       q    Type
REMARK                         _______ _______ _______ _____ _____    ______ ____
ROOT
ATOM      1  S   UNL     1       3.655   2.967  18.153  0.00  0.00    +0.000 S 
ENDROOT
BRANCH   1   2
ATOM      2  C   UNL     1       5.090   3.884  17.635  0.00  0.00    +0.000 A 
ATOM      3  N   UNL     1       5.311   3.947  16.313  0.00  0.00    +0.000 NA
ATOM      4  C   UNL     1       6.420   4.600  15.911  0.00  0.00    +0.000 A 
ATOM      5  C   UNL     1       7.290   5.204  16.791  0.00  0.00    +0.000 A 
ATOM      6  C   UNL     1       7.002   5.078  18.135  0.00  0.00    +0.000 A 
ATOM      7  N   UNL     1       5.894   4.418  18.566  0.00  0.00    +0.000 NA
BRANCH   4   8
ATOM      8  C   UNL     1       6.694   4.556  14.479  0.00  0.00    +0.000 A 
ATOM      9  C   UNL     1       6.206   3.816  13.420  0.00  0.00    +0.000 A 
ATOM     10  C   UNL     1       6.959   4.186  12.278  0.00  0.00    +0.000 A 
ATOM     11  C   UNL     1       7.848   5.145  12.701  0.00  0.00    +0.000 A 
ATOM     12  O   UNL     1       7.692   5.381  14.028  0.00  0.00    +0.000 OA
ENDBRANCH   4   8
BRANCH   6  13
ATOM     13  C   UNL     1       7.975   5.641  19.158  0.00  0.00    +0.000 C 
ATOM     14  F   UNL     1       9.079   4.856  19.340  0.00  0.00    +0.000 F 
ATOM     15  F   UNL     1       8.455   6.870  18.822  0.00  0.00    +0.000 F 
ATOM     16  F   UNL     1       7.419   5.771  20.396  0.00  0.00    +0.000 F 
ENDBRANCH   6  13
ENDBRANCH   1   2
BRANCH   1  17
ATOM     17  C   UNL     1       2.437   4.308  18.411  0.00  0.00    +0.000 C 
BRANCH  17  18
ATOM     18  C   UNL     1       3.043   5.387  19.306  0.00  0.00    +0.000 C 
BRANCH  18  20
ATOM     19  N   UNL     1       1.966   7.347  20.285  0.00  0.00    +0.000 N 
ATOM     20  C   UNL     1       1.977   5.973  20.208  0.00  0.00    +0.000 C 
ATOM     21  O   UNL     1       1.197   5.265  20.839  0.00  0.00    +0.000 OA
ATOM     22  H   UNL     1       2.614   7.906  19.746  0.00  0.00    +0.000 HD
BRANCH  19  23
ATOM     23  C   UNL     1       1.024   8.017  21.151  0.00  0.00    +0.000 C 
BRANCH  23  27
ATOM     24  N   UNL     1       0.912  11.422  19.792  0.00  0.00    +0.000 N 
ATOM     25  N   UNL     1       0.868  11.727  21.101  0.00  0.00    +0.000 NA
ATOM     26  C   UNL     1       0.889  10.541  21.708  0.00  0.00    +0.000 A 
ATOM     27  C   UNL     1       0.924   9.459  20.799  0.00  0.00    +0.000 A 
ATOM     28  C   UNL     1       0.913  10.067  19.551  0.00  0.00    +0.000 A 
ATOM     29  C   UNL     1       0.943   9.488  18.184  0.00  0.00    +0.000 C 
BRANCH  24  31
ATOM     30  C   UNL     1      -0.392  12.997  18.411  0.00  0.00    +0.000 C 
ATOM     31  C   UNL     1       0.985  12.503  18.824  0.00  0.00    +0.000 C 
ENDBRANCH  24  31
ENDBRANCH  23  27
ENDBRANCH  19  23
ENDBRANCH  18  20
ENDBRANCH  17  18
ENDBRANCH   1  17
TORSDOF 9
ENDMDL
MODEL 5
REMARK VINA RESULT:      -7.8      2.774      3.938
REMARK  Name = 
REMARK  11 active torsions:
REMARK  status: ('A' for Active; 'I' for Inactive)
REMARK    1  A    between atoms: C_1  and  C_2
REMARK    2  A    between atoms: C_2  and  N_3
REMARK    3  A    between atoms: C_6  and  C_7
REMARK    4  A    between atoms: C_7  and  N_8
REMARK    5  A    between atoms: C_9  and  C_11
REMARK    6  A    between atoms: C_11  and  C_12
REMARK    7  A    between atoms: C_12  and  S_13
REMARK    8  A    between atoms: S_13  and  C_14
REMARK    9  A    between atoms: C_16  and  C_17
REMARK   10  A    between atoms: C_23  and  C_24
REMARK   11  A    between atoms: C_29  and  C_30
REMARK                            x       y       z     vdW  Elec       q    Type
REMARK                         _______ _______ _______ _____ _____    ______ ____
ROOT
ATOM      1  S   UNL     1       4.112   3.036  18.365  0.00  0.00    +0.000 S 
ENDROOT
BRANCH   1   2
ATOM      2  C   UNL     1       5.201   3.904  17.256  0.00  0.00    +0.000 A 
ATOM      3  N   UNL     1       5.929   4.896  17.792  0.00  0.00    +0.000 NA
ATOM      4  C   UNL     1       6.723   5.591  16.954  0.00  0.00    +0.000 A 
ATOM      5  C   UNL     1       6.822   5.304  15.610  0.00  0.00    +0.000 A 
ATOM      6  C   UNL     1       6.027   4.280  15.133  0.00  0.00    +0.000 A 
ATOM      7  N   UNL     1       5.212   3.570  15.957  0.00  0.00    +0.000 NA
BRANCH   4   8
ATOM      8  C   UNL     1       7.416   6.732  17.541  0.00  0.00    +0.000 A 
ATOM      9  C   UNL     1       8.199   6.919  18.663  0.00  0.00    +0.000 A 
ATOM     10  C   UNL     1       8.497   8.303  18.730  0.00  0.00    +0.000 A 
ATOM     11  C   UNL     1       7.898   8.877  17.635  0.00  0.00    +0.000 A 
ATOM     12  O   UNL     1       7.246   7.936  16.905  0.00  0.00    +0.000 OA
ENDBRANCH   4   8
BRANCH   6  13
ATOM     13  C   UNL     1       6.020   3.979  13.644  0.00  0.00    +0.000 C 
ATOM     14  F   UNL     1       4.798   4.167  13.062  0.00  0.00    +0.000 F 
ATOM     15  F   UNL     1       6.883   4.759  12.935  0.00  0.00    +0.000 F 
ATOM     16  F   UNL     1       6.355   2.687  13.367  0.00  0.00    +0.000 F 
ENDBRANCH   6  13
ENDBRANCH   1   2
BRANCH   1  17
ATOM     17  C   UNL     1       2.565   2.980  17.388  0.00  0.00    +0.000 C 
BRANCH  17  18
ATOM     18  C   UNL     1       1.430   3.613  18.188  0.00  0.00    +0.000 C 
BRANCH  18  20
ATOM     19  N   UNL     1       2.324   5.874  18.411  0.00  0.00    +0.000 N 
ATOM     20  C   UNL     1       1.970   4.719  19.071  0.00  0.00    +0.000 C 
ATOM     21  O   UNL     1       2.098   4.580  20.283  0.00  0.00    +0.000 OA
ATOM     22  H   UNL     1       2.198   5.965  17.412  0.00  0.00    +0.000 HD
BRANCH  19  23
ATOM     23  C   UNL     1       2.895   6.981  19.143  0.00  0.00    +0.000 C 
BRANCH  23  27
ATOM     24  N   UNL     1       0.556   9.792  19.426  0.00  0.00    +0.000 N 
ATOM     25  N   UNL     1       0.808   9.873  18.108  0.00  0.00    +0.000 NA
ATOM     26  C   UNL     1       1.678   8.888  17.886  0.00  0.00    +0.000 A 
ATOM     27  C   UNL     1       2.012   8.175  19.060  0.00  0.00    +0.000 A 
ATOM     28  C   UNL     1       1.280   8.806  20.057  0.00  0.00    +0.000 A 
ATOM     29  C   UNL     1       1.181   8.536  21.514  0.00  0.00    +0.000 C 
BRANCH  24  31
ATOM     30  C   UNL     1       0.182  11.998  20.465  0.00  0.00    +0.000 C 
ATOM     31  C   UNL     1      -0.432  10.686  20.006  0.00  0.00    +0.000 C 
ENDBRANCH  24  31
ENDBRANCH  23  27
ENDBRANCH  19  23
ENDBRANCH  18  20
ENDBRANCH  17  18
ENDBRANCH   1  17
TORSDOF 9
ENDMDL
MODEL 6
REMARK VINA RESULT:      -7.6      1.423      2.082
REMARK  Name = 
REMARK  11 active torsions:
REMARK  status: ('A' for Active; 'I' for Inactive)
REMARK    1  A    between atoms: C_1  and  C_2
REMARK    2  A    between atoms: C_2  and  N_3
REMARK    3  A    between atoms: C_6  and  C_7
REMARK    4  A    between atoms: C_7  and  N_8
REMARK    5  A    between atoms: C_9  and  C_11
REMARK    6  A    between atoms: C_11  and  C_12
REMARK    7  A    between atoms: C_12  and  S_13
REMARK    8  A    between atoms: S_13  and  C_14
REMARK    9  A    between atoms: C_16  and  C_17
REMARK   10  A    between atoms: C_23  and  C_24
REMARK   11  A    between atoms: C_29  and  C_30
REMARK                            x       y       z     vdW  Elec       q    Type
REMARK                         _______ _______ _______ _____ _____    ______ ____
ROOT
ATOM      1  S   UNL     1       4.039   3.118  18.490  0.00  0.00    +0.000 S 
ENDROOT
BRANCH   1   2
ATOM      2  C   UNL     1       4.986   4.166  17.407  0.00  0.00    +0.000 A 
ATOM      3  N   UNL     1       5.004   3.821  16.110  0.00  0.00    +0.000 NA
ATOM      4  C   UNL     1       5.755   4.580  15.287  0.00  0.00    +0.000 A 
ATOM      5  C   UNL     1       6.462   5.678  15.724  0.00  0.00    +0.000 A 
ATOM      6  C   UNL     1       6.407   5.955  17.076  0.00  0.00    +0.000 A 
ATOM      7  N   UNL     1       5.663   5.200  17.927  0.00  0.00    +0.000 NA
BRANCH   4   8
ATOM      8  C   UNL     1       5.845   4.117  13.907  0.00  0.00    +0.000 A 
ATOM      9  C   UNL     1       5.008   3.413  13.064  0.00  0.00    +0.000 A 
ATOM     10  C   UNL     1       5.724   3.195  11.861  0.00  0.00    +0.000 A 
ATOM     11  C   UNL     1       6.949   3.796  12.031  0.00  0.00    +0.000 A 
ATOM     12  O   UNL     1       7.030   4.361  13.262  0.00  0.00    +0.000 OA
ENDBRANCH   4   8
BRANCH   6  13
ATOM     13  C   UNL     1       7.242   7.096  17.633  0.00  0.00    +0.000 C 
ATOM     14  F   UNL     1       7.870   6.780  18.806  0.00  0.00    +0.000 F 
ATOM     15  F   UNL     1       8.231   7.499  16.789  0.00  0.00    +0.000 F 
ATOM     16  F   UNL     1       6.499   8.204  17.911  0.00  0.00    +0.000 F 
ENDBRANCH   6  13
ENDBRANCH   1   2
BRANCH   1  17
ATOM     17  C   UNL     1       2.401   3.131  17.672  0.00  0.00    +0.000 C 
BRANCH  17  18
ATOM     18  C   UNL     1       1.329   3.547  18.676  0.00  0.00    +0.000 C 
BRANCH  18  20
ATOM     19  N   UNL     1       2.195   5.808  18.993  0.00  0.00    +0.000 N 
ATOM     20  C   UNL     1       1.871   4.617  19.602  0.00  0.00    +0.000 C 
ATOM     21  O   UNL     1       2.027   4.420  20.803  0.00  0.00    +0.000 OA
ATOM     22  H   UNL     1       2.047   5.946  18.003  0.00  0.00    +0.000 HD
BRANCH  19  23
ATOM     23  C   UNL     1       2.765   6.886  19.768  0.00  0.00    +0.000 C 
BRANCH  23  27
ATOM     24  N   UNL     1       0.505   9.773  19.878  0.00  0.00    +0.000 N 
ATOM     25  N   UNL     1       0.231   9.257  21.090  0.00  0.00    +0.000 NA
ATOM     26  C   UNL     1       1.000   8.171  21.158  0.00  0.00    +0.000 A 
ATOM     27  C   UNL     1       1.761   7.962  19.985  0.00  0.00    +0.000 A 
ATOM     28  C   UNL     1       1.397   9.014  19.155  0.00  0.00    +0.000 A 
ATOM     29  C   UNL     1       1.840   9.374  17.784  0.00  0.00    +0.000 C 
BRANCH  24  31
ATOM     30  C   UNL     1      -1.464  10.829  18.832  0.00  0.00    +0.000 C 
ATOM     31  C   UNL     1      -0.113  11.031  19.498  0.00  0.00    +0.000 C 
ENDBRANCH  24  31
ENDBRANCH  23  27
ENDBRANCH  19  23
ENDBRANCH  18  20
ENDBRANCH  17  18
ENDBRANCH   1  17
TORSDOF 9
ENDMDL
MODEL 7
REMARK VINA RESULT:      -7.6      3.755      5.958
REMARK  Name = 
REMARK  11 active torsions:
REMARK  status: ('A' for Active; 'I' for Inactive)
REMARK    1  A    between atoms: C_1  and  C_2
REMARK    2  A    between atoms: C_2  and  N_3
REMARK    3  A    between atoms: C_6  and  C_7
REMARK    4  A    between atoms: C_7  and  N_8
REMARK    5  A    between atoms: C_9  and  C_11
REMARK    6  A    between atoms: C_11  and  C_12
REMARK    7  A    between atoms: C_12  and  S_13
REMARK    8  A    between atoms: S_13  and  C_14
REMARK    9  A    between atoms: C_16  and  C_17
REMARK   10  A    between atoms: C_23  and  C_24
REMARK   11  A    between atoms: C_29  and  C_30
REMARK                            x       y       z     vdW  Elec       q    Type
REMARK                         _______ _______ _______ _____ _____    ______ ____
ROOT
ATOM      1  S   UNL     1       1.303   6.142  20.788  0.00  0.00    +0.000 S 
ENDROOT
BRANCH   1   2
ATOM      2  C   UNL     1       2.508   5.158  19.922  0.00  0.00    +0.000 A 
ATOM      3  N   UNL     1       3.677   5.756  19.647  0.00  0.00    +0.000 NA
ATOM      4  C   UNL     1       4.580   5.037  18.951  0.00  0.00    +0.000 A 
ATOM      5  C   UNL     1       4.350   3.740  18.548  0.00  0.00    +0.000 A 
ATOM      6  C   UNL     1       3.115   3.204  18.854  0.00  0.00    +0.000 A 
ATOM      7  N   UNL     1       2.185   3.911  19.548  0.00  0.00    +0.000 NA
BRANCH   4   8
ATOM      8  C   UNL     1       5.796   5.748  18.570  0.00  0.00    +0.000 A 
ATOM      9  C   UNL     1       7.100   5.751  19.024  0.00  0.00    +0.000 A 
ATOM     10  C   UNL     1       7.789   6.747  18.289  0.00  0.00    +0.000 A 
ATOM     11  C   UNL     1       6.872   7.280  17.415  0.00  0.00    +0.000 A 
ATOM     12  O   UNL     1       5.665   6.679  17.572  0.00  0.00    +0.000 OA
ENDBRANCH   4   8
BRANCH   6  13
ATOM     13  C   UNL     1       2.767   1.812  18.353  0.00  0.00    +0.000 C 
ATOM     14  F   UNL     1       2.317   1.801  17.062  0.00  0.00    +0.000 F 
ATOM     15  F   UNL     1       3.823   0.953  18.377  0.00  0.00    +0.000 F 
ATOM     16  F   UNL     1       1.777   1.223  19.083  0.00  0.00    +0.000 F 
ENDBRANCH   6  13
ENDBRANCH   1   2
BRANCH   1  17
ATOM     17  C   UNL     1       1.863   7.838  20.390  0.00  0.00    +0.000 C 
BRANCH  17  18
ATOM     18  C   UNL     1       1.334   8.813  21.440  0.00  0.00    +0.000 C 
BRANCH  18  20
ATOM     19  N   UNL     1       0.431   9.999  19.507  0.00  0.00    +0.000 N 
ATOM     20  C   UNL     1       0.933  10.117  20.783  0.00  0.00    +0.000 C 
ATOM     21  O   UNL     1       1.068  11.199  21.346  0.00  0.00    +0.000 OA
ATOM     22  H   UNL     1       0.320   9.094  19.070  0.00  0.00    +0.000 HD
BRANCH  19  23
ATOM     23  C   UNL     1       0.057  11.180  18.762  0.00  0.00    +0.000 C 
BRANCH  23  27
ATOM     24  N   UNL     1      -3.566  11.367  18.227  0.00  0.00    +0.000 N 
ATOM     25  N   UNL     1      -3.485  12.143  19.322  0.00  0.00    +0.000 NA
ATOM     26  C   UNL     1      -2.187  12.137  19.624  0.00  0.00    +0.000 A 
ATOM     27  C   UNL     1      -1.421  11.341  18.743  0.00  0.00    +0.000 A 
ATOM     28  C   UNL     1      -2.356  10.829  17.852  0.00  0.00    +0.000 A 
ATOM     29  C   UNL     1      -2.198   9.928  16.683  0.00  0.00    +0.000 C 
BRANCH  24  31
ATOM     30  C   UNL     1      -5.944  10.788  18.537  0.00  0.00    +0.000 C 
ATOM     31  C   UNL     1      -4.853  11.216  17.570  0.00  0.00    +0.000 C 
ENDBRANCH  24  31
ENDBRANCH  23  27
ENDBRANCH  19  23
ENDBRANCH  18  20
ENDBRANCH  17  18
ENDBRANCH   1  17
TORSDOF 9
ENDMDL
MODEL 8
REMARK VINA RESULT:      -7.6      2.936      4.209
REMARK  Name = 
REMARK  11 active torsions:
REMARK  status: ('A' for Active; 'I' for Inactive)
REMARK    1  A    between atoms: C_1  and  C_2
REMARK    2  A    between atoms: C_2  and  N_3
REMARK    3  A    between atoms: C_6  and  C_7
REMARK    4  A    between atoms: C_7  and  N_8
REMARK    5  A    between atoms: C_9  and  C_11
REMARK    6  A    between atoms: C_11  and  C_12
REMARK    7  A    between atoms: C_12  and  S_13
REMARK    8  A    between atoms: S_13  and  C_14
REMARK    9  A    between atoms: C_16  and  C_17
REMARK   10  A    between atoms: C_23  and  C_24
REMARK   11  A    between atoms: C_29  and  C_30
REMARK                            x       y       z     vdW  Elec       q    Type
REMARK                         _______ _______ _______ _____ _____    ______ ____
ROOT
ATOM      1  S   UNL     1       3.762   3.129  18.051  0.00  0.00    +0.000 S 
ENDROOT
BRANCH   1   2
ATOM      2  C   UNL     1       4.980   3.917  17.019  0.00  0.00    +0.000 A 
ATOM      3  N   UNL     1       5.731   4.863  17.602  0.00  0.00    +0.000 NA
ATOM      4  C   UNL     1       6.626   5.500  16.820  0.00  0.00    +0.000 A 
ATOM      5  C   UNL     1       6.800   5.197  15.488  0.00  0.00    +0.000 A 
ATOM      6  C   UNL     1       5.975   4.224  14.958  0.00  0.00    +0.000 A 
ATOM      7  N   UNL     1       5.060   3.574  15.725  0.00  0.00    +0.000 NA
BRANCH   4   8
ATOM      8  C   UNL     1       7.350   6.597  17.452  0.00  0.00    +0.000 A 
ATOM      9  C   UNL     1       8.083   6.735  18.614  0.00  0.00    +0.000 A 
ATOM     10  C   UNL     1       8.453   8.099  18.708  0.00  0.00    +0.000 A 
ATOM     11  C   UNL     1       7.943   8.712  17.589  0.00  0.00    +0.000 A 
ATOM     12  O   UNL     1       7.279   7.812  16.819  0.00  0.00    +0.000 OA
ENDBRANCH   4   8
BRANCH   6  13
ATOM     13  C   UNL     1       6.053   3.914  13.473  0.00  0.00    +0.000 C 
ATOM     14  F   UNL     1       6.951   4.700  12.806  0.00  0.00    +0.000 F 
ATOM     15  F   UNL     1       6.428   2.632  13.211  0.00  0.00    +0.000 F 
ATOM     16  F   UNL     1       4.864   4.105  12.833  0.00  0.00    +0.000 F 
ENDBRANCH   6  13
ENDBRANCH   1   2
BRANCH   1  17
ATOM     17  C   UNL     1       2.564   4.490  18.305  0.00  0.00    +0.000 C 
BRANCH  17  18
ATOM     18  C   UNL     1       3.138   5.502  19.294  0.00  0.00    +0.000 C 
BRANCH  18  20
ATOM     19  N   UNL     1       2.067   7.336  20.495  0.00  0.00    +0.000 N 
ATOM     20  C   UNL     1       2.051   5.986  20.231  0.00  0.00    +0.000 C 
ATOM     21  O   UNL     1       1.233   5.220  20.731  0.00  0.00    +0.000 OA
ATOM     22  H   UNL     1       2.746   7.947  20.062  0.00  0.00    +0.000 HD
BRANCH  19  23
ATOM     23  C   UNL     1       1.106   7.907  21.412  0.00  0.00    +0.000 C 
BRANCH  23  27
ATOM     24  N   UNL     1      -0.479  11.103  20.561  0.00  0.00    +0.000 N 
ATOM     25  N   UNL     1       0.110  10.849  19.378  0.00  0.00    +0.000 NA
ATOM     26  C   UNL     1       0.743   9.693  19.575  0.00  0.00    +0.000 A 
ATOM     27  C   UNL     1       0.588   9.199  20.891  0.00  0.00    +0.000 A 
ATOM     28  C   UNL     1      -0.196  10.157  21.520  0.00  0.00    +0.000 A 
ATOM     29  C   UNL     1      -0.721  10.231  22.907  0.00  0.00    +0.000 C 
BRANCH  24  31
ATOM     30  C   UNL     1      -2.443  12.277  19.641  0.00  0.00    +0.000 C 
ATOM     31  C   UNL     1      -1.334  12.271  20.680  0.00  0.00    +0.000 C 
ENDBRANCH  24  31
ENDBRANCH  23  27
ENDBRANCH  19  23
ENDBRANCH  18  20
ENDBRANCH  17  18
ENDBRANCH   1  17
TORSDOF 9
ENDMDL
MODEL 9
REMARK VINA RESULT:      -7.4      0.968      1.236
REMARK  Name = 
REMARK  11 active torsions:
REMARK  status: ('A' for Active; 'I' for Inactive)
REMARK    1  A    between atoms: C_1  and  C_2
REMARK    2  A    between atoms: C_2  and  N_3
REMARK    3  A    between atoms: C_6  and  C_7
REMARK    4  A    between atoms: C_7  and  N_8
REMARK    5  A    between atoms: C_9  and  C_11
REMARK    6  A    between atoms: C_11  and  C_12
REMARK    7  A    between atoms: C_12  and  S_13
REMARK    8  A    between atoms: S_13  and  C_14
REMARK    9  A    between atoms: C_16  and  C_17
REMARK   10  A    between atoms: C_23  and  C_24
REMARK   11  A    between atoms: C_29  and  C_30
REMARK                            x       y       z     vdW  Elec       q    Type
REMARK                         _______ _______ _______ _____ _____    ______ ____
ROOT
ATOM      1  S   UNL     1       3.787   2.955  17.825  0.00  0.00    +0.000 S 
ENDROOT
BRANCH   1   2
ATOM      2  C   UNL     1       4.881   4.054  16.950  0.00  0.00    +0.000 A 
ATOM      3  N   UNL     1       5.097   3.772  15.656  0.00  0.00    +0.000 NA
ATOM      4  C   UNL     1       5.959   4.569  14.995  0.00  0.00    +0.000 A 
ATOM      5  C   UNL     1       6.586   5.644  15.586  0.00  0.00    +0.000 A 
ATOM      6  C   UNL     1       6.325   5.855  16.926  0.00  0.00    +0.000 A 
ATOM      7  N   UNL     1       5.465   5.060  17.617  0.00  0.00    +0.000 NA
BRANCH   4   8
ATOM      8  C   UNL     1       6.260   4.174  13.623  0.00  0.00    +0.000 A 
ATOM      9  C   UNL     1       5.757   3.226  12.755  0.00  0.00    +0.000 A 
ATOM     10  C   UNL     1       6.551   3.280  11.582  0.00  0.00    +0.000 A 
ATOM     11  C   UNL     1       7.479   4.271  11.794  0.00  0.00    +0.000 A 
ATOM     12  O   UNL     1       7.308   4.823  13.022  0.00  0.00    +0.000 OA
ENDBRANCH   4   8
BRANCH   6  13
ATOM     13  C   UNL     1       7.059   6.966  17.658  0.00  0.00    +0.000 C 
ATOM     14  F   UNL     1       8.136   7.446  16.966  0.00  0.00    +0.000 F 
ATOM     15  F   UNL     1       6.277   8.051  17.911  0.00  0.00    +0.000 F 
ATOM     16  F   UNL     1       7.557   6.562  18.862  0.00  0.00    +0.000 F 
ENDBRANCH   6  13
ENDBRANCH   1   2
BRANCH   1  17
ATOM     17  C   UNL     1       4.525   2.963  19.500  0.00  0.00    +0.000 C 
BRANCH  17  18
ATOM     18  C   UNL     1       3.559   2.317  20.490  0.00  0.00    +0.000 C 
BRANCH  18  20
ATOM     19  N   UNL     1       2.562   4.544  20.462  0.00  0.00    +0.000 N 
ATOM     20  C   UNL     1       2.730   3.382  21.178  0.00  0.00    +0.000 C 
ATOM     21  O   UNL     1       2.264   3.219  22.302  0.00  0.00    +0.000 OA
ATOM     22  H   UNL     1       2.948   4.648  19.533  0.00  0.00    +0.000 HD
BRANCH  19  23
ATOM     23  C   UNL     1       1.829   5.650  21.036  0.00  0.00    +0.000 C 
BRANCH  23  27
ATOM     24  N   UNL     1       1.673   8.815  19.189  0.00  0.00    +0.000 N 
ATOM     25  N   UNL     1       2.381   8.098  18.299  0.00  0.00    +0.000 NA
ATOM     26  C   UNL     1       2.516   6.906  18.880  0.00  0.00    +0.000 A 
ATOM     27  C   UNL     1       1.917   6.848  20.159  0.00  0.00    +0.000 A 
ATOM     28  C   UNL     1       1.394   8.121  20.345  0.00  0.00    +0.000 A 
ATOM     29  C   UNL     1       0.637   8.709  21.479  0.00  0.00    +0.000 C 
BRANCH  24  31
ATOM     30  C   UNL     1      -0.151  10.218  18.299  0.00  0.00    +0.000 C 
ATOM     31  C   UNL     1       1.270  10.166  18.837  0.00  0.00    +0.000 C 
ENDBRANCH  24  31
ENDBRANCH  23  27
ENDBRANCH  19  23
ENDBRANCH  18  20
ENDBRANCH  17  18
ENDBRANCH   1  17
TORSDOF 9
ENDMDL
