MODEL 1
REMARK VINA RESULT:      -7.4      0.000      0.000
REMARK  Name = 
REMARK  5 active torsions:
REMARK  status: ('A' for Active; 'I' for Inactive)
REMARK    1  A    between atoms: C_1  and  O_2
REMARK    2  A    between atoms: O_2  and  C_3
REMARK    3  A    between atoms: C_5  and  N_6
REMARK    4  A    between atoms: N_22  and  C_23
REMARK    5  A    between atoms: C_23  and  C_24
REMARK                            x       y       z     vdW  Elec       q    Type
REMARK                         _______ _______ _______ _____ _____    ______ ____
ROOT
ATOM      1  C   UNL     1      -1.848  14.600  23.777  0.00  0.00    +0.000 A 
ATOM      2  C   UNL     1      -1.118  13.544  23.213  0.00  0.00    +0.000 A 
ATOM      3  C   UNL     1      -1.685  12.276  23.047  0.00  0.00    +0.000 A 
ATOM      4  C   UNL     1      -3.031  12.090  23.371  0.00  0.00    +0.000 A 
ATOM      5  C   UNL     1      -3.796  13.147  23.895  0.00  0.00    +0.000 A 
ATOM      6  C   UNL     1      -3.185  14.393  24.135  0.00  0.00    +0.000 A 
ATOM      7  O   UNL     1      -3.921  15.387  24.719  0.00  0.00    +0.000 OA
ATOM      8  C   UNL     1      -4.856  15.962  23.796  0.00  0.00    +0.000 C 
ATOM      9  C   UNL     1      -6.177  15.184  23.766  0.00  0.00    +0.000 C 
ATOM     10  N   UNL     1      -6.119  13.820  23.207  0.00  0.00    +0.000 NA
ATOM     11  C   UNL     1      -5.287  12.951  24.068  0.00  0.00    +0.000 C 
ENDROOT
BRANCH   3  12
ATOM     12  N   UNL     1      -0.929  11.195  22.505  0.00  0.00    +0.000 N 
ATOM     13  C   UNL     1      -0.497  10.102  23.238  0.00  0.00    +0.000 A 
ATOM     14  C   UNL     1       0.150   9.222  22.404  0.00  0.00    +0.000 A 
ATOM     15  C   UNL     1       0.177   9.800  21.113  0.00  0.00    +0.000 A 
ATOM     16  C   UNL     1       0.729   9.378  19.888  0.00  0.00    +0.000 A 
ATOM     17  C   UNL     1       0.638  10.216  18.779  0.00  0.00    +0.000 A 
ATOM     18  F   UNL     1       1.173   9.823  17.615  0.00  0.00    +0.000 F 
ATOM     19  C   UNL     1       0.030  11.456  18.861  0.00  0.00    +0.000 A 
ATOM     20  C   UNL     1      -0.524  11.895  20.065  0.00  0.00    +0.000 A 
ATOM     21  C   UNL     1      -0.477  11.040  21.187  0.00  0.00    +0.000 A 
ENDBRANCH   3  12
BRANCH   1  23
ATOM     22  C   UNL     1      -1.241  16.616  22.655  0.00  0.00    +0.000 C 
ATOM     23  O   UNL     1      -1.154  15.781  23.800  0.00  0.00    +0.000 OA
ENDBRANCH   1  23
BRANCH  10  24
ATOM     24  C   UNL     1      -5.693  13.761  21.793  0.00  0.00    +0.000 C 
BRANCH  24  25
ATOM     25  C   UNL     1      -6.173  12.549  21.038  0.00  0.00    +0.000 A 
ATOM     26  C   UNL     1      -5.583  12.161  19.828  0.00  0.00    +0.000 A 
ATOM     27  C   UNL     1      -6.047  11.030  19.164  0.00  0.00    +0.000 A 
ATOM     28  C   UNL     1      -7.087  10.317  19.737  0.00  0.00    +0.000 A 
ATOM     29  N   UNL     1      -7.678  10.655  20.905  0.00  0.00    +0.000 NA
ATOM     30  C   UNL     1      -7.210  11.762  21.526  0.00  0.00    +0.000 A 
ENDBRANCH  24  25
ENDBRANCH  10  24
TORSDOF 4
ENDMDL
MODEL 2
REMARK VINA RESULT:      -7.4      5.203      8.006
REMARK  Name = 
REMARK  5 active torsions:
REMARK  status: ('A' for Active; 'I' for Inactive)
REMARK    1  A    between atoms: C_1  and  O_2
REMARK    2  A    between atoms: O_2  and  C_3
REMARK    3  A    between atoms: C_5  and  N_6
REMARK    4  A    between atoms: N_22  and  C_23
REMARK    5  A    between atoms: C_23  and  C_24
REMARK                            x       y       z     vdW  Elec       q    Type
REMARK                         _______ _______ _______ _____ _____    ______ ____
ROOT
ATOM      1  C   UNL     1       0.806   9.787  21.487  0.00  0.00    +0.000 A 
ATOM      2  C   UNL     1       1.531   8.725  20.932  0.00  0.00    +0.000 A 
ATOM      3  C   UNL     1       1.692   8.597  19.548  0.00  0.00    +0.000 A 
ATOM      4  C   UNL     1       1.190   9.600  18.715  0.00  0.00    +0.000 A 
ATOM      5  C   UNL     1       0.498  10.701  19.253  0.00  0.00    +0.000 A 
ATOM      6  C   UNL     1       0.273  10.768  20.642  0.00  0.00    +0.000 A 
ATOM      7  O   UNL     1      -0.470  11.802  21.140  0.00  0.00    +0.000 OA
ATOM      8  C   UNL     1       0.273  13.029  21.147  0.00  0.00    +0.000 C 
ATOM      9  C   UNL     1       0.160  13.768  19.809  0.00  0.00    +0.000 C 
ATOM     10  N   UNL     1       0.804  13.123  18.649  0.00  0.00    +0.000 NA
ATOM     11  C   UNL     1       0.125  11.845  18.335  0.00  0.00    +0.000 C 
ENDROOT
BRANCH   3  12
ATOM     12  N   UNL     1       2.401   7.496  18.985  0.00  0.00    +0.000 N 
ATOM     13  C   UNL     1       3.156   7.566  17.827  0.00  0.00    +0.000 A 
ATOM     14  C   UNL     1       3.751   6.348  17.598  0.00  0.00    +0.000 A 
ATOM     15  C   UNL     1       3.317   5.464  18.613  0.00  0.00    +0.000 A 
ATOM     16  C   UNL     1       3.567   4.101  18.865  0.00  0.00    +0.000 A 
ATOM     17  C   UNL     1       2.931   3.483  19.938  0.00  0.00    +0.000 A 
ATOM     18  F   UNL     1       3.158   2.183  20.173  0.00  0.00    +0.000 F 
ATOM     19  C   UNL     1       2.053   4.175  20.752  0.00  0.00    +0.000 A 
ATOM     20  C   UNL     1       1.790   5.527  20.521  0.00  0.00    +0.000 A 
ATOM     21  C   UNL     1       2.458   6.179  19.462  0.00  0.00    +0.000 A 
ENDBRANCH   3  12
BRANCH   1  23
ATOM     22  C   UNL     1      -0.417   9.510  23.517  0.00  0.00    +0.000 C 
ATOM     23  O   UNL     1       0.810   9.785  22.857  0.00  0.00    +0.000 OA
ENDBRANCH   1  23
BRANCH  10  24
ATOM     24  C   UNL     1       2.265  12.949  18.784  0.00  0.00    +0.000 C 
BRANCH  24  25
ATOM     25  C   UNL     1       3.050  14.232  18.863  0.00  0.00    +0.000 A 
ATOM     26  C   UNL     1       3.068  15.145  17.801  0.00  0.00    +0.000 A 
ATOM     27  C   UNL     1       3.797  16.324  17.915  0.00  0.00    +0.000 A 
ATOM     28  C   UNL     1       4.485  16.555  19.095  0.00  0.00    +0.000 A 
ATOM     29  N   UNL     1       4.488  15.703  20.144  0.00  0.00    +0.000 NA
ATOM     30  C   UNL     1       3.774  14.562  20.004  0.00  0.00    +0.000 A 
ENDBRANCH  24  25
ENDBRANCH  10  24
TORSDOF 4
ENDMDL
MODEL 3
REMARK VINA RESULT:      -7.3      0.760      1.049
REMARK  Name = 
REMARK  5 active torsions:
REMARK  status: ('A' for Active; 'I' for Inactive)
REMARK    1  A    between atoms: C_1  and  O_2
REMARK    2  A    between atoms: O_2  and  C_3
REMARK    3  A    between atoms: C_5  and  N_6
REMARK    4  A    between atoms: N_22  and  C_23
REMARK    5  A    between atoms: C_23  and  C_24
REMARK                            x       y       z     vdW  Elec       q    Type
REMARK                         _______ _______ _______ _____ _____    ______ ____
ROOT
ATOM      1  C   UNL     1      -1.899  14.576  23.939  0.00  0.00    +0.000 A 
ATOM      2  C   UNL     1      -1.171  13.527  23.361  0.00  0.00    +0.000 A 
ATOM      3  C   UNL     1      -1.769  12.293  23.083  0.00  0.00    +0.000 A 
ATOM      4  C   UNL     1      -3.139  12.141  23.308  0.00  0.00    +0.000 A 
ATOM      5  C   UNL     1      -3.900  13.196  23.843  0.00  0.00    +0.000 A 
ATOM      6  C   UNL     1      -3.264  14.401  24.197  0.00  0.00    +0.000 A 
ATOM      7  O   UNL     1      -4.002  15.388  24.791  0.00  0.00    +0.000 OA
ATOM      8  C   UNL     1      -4.852  16.051  23.845  0.00  0.00    +0.000 C 
ATOM      9  C   UNL     1      -6.195  15.327  23.683  0.00  0.00    +0.000 C 
ATOM     10  N   UNL     1      -6.148  13.997  23.048  0.00  0.00    +0.000 NA
ATOM     11  C   UNL     1      -5.405  13.048  23.908  0.00  0.00    +0.000 C 
ENDROOT
BRANCH   3  12
ATOM     12  N   UNL     1      -1.016  11.217  22.527  0.00  0.00    +0.000 N 
ATOM     13  C   UNL     1      -0.578  10.119  23.248  0.00  0.00    +0.000 A 
ATOM     14  C   UNL     1       0.062   9.246  22.403  0.00  0.00    +0.000 A 
ATOM     15  C   UNL     1       0.079   9.833  21.116  0.00  0.00    +0.000 A 
ATOM     16  C   UNL     1       0.622   9.421  19.884  0.00  0.00    +0.000 A 
ATOM     17  C   UNL     1       0.522  10.267  18.782  0.00  0.00    +0.000 A 
ATOM     18  F   UNL     1       1.048   9.882  17.611  0.00  0.00    +0.000 F 
ATOM     19  C   UNL     1      -0.086  11.505  18.878  0.00  0.00    +0.000 A 
ATOM     20  C   UNL     1      -0.632  11.935  20.089  0.00  0.00    +0.000 A 
ATOM     21  C   UNL     1      -0.575  11.072  21.205  0.00  0.00    +0.000 A 
ENDBRANCH   3  12
BRANCH   1  23
ATOM     22  C   UNL     1      -0.699  16.054  25.378  0.00  0.00    +0.000 C 
ATOM     23  O   UNL     1      -1.167  15.727  24.078  0.00  0.00    +0.000 OA
ENDBRANCH   1  23
BRANCH  10  24
ATOM     24  C   UNL     1      -5.630  14.003  21.664  0.00  0.00    +0.000 C 
BRANCH  24  25
ATOM     25  C   UNL     1      -6.046  12.820  20.828  0.00  0.00    +0.000 A 
ATOM     26  C   UNL     1      -7.241  12.133  21.077  0.00  0.00    +0.000 A 
ATOM     27  C   UNL     1      -7.595  11.051  20.278  0.00  0.00    +0.000 A 
ATOM     28  C   UNL     1      -6.742  10.692  19.248  0.00  0.00    +0.000 A 
ATOM     29  N   UNL     1      -5.584  11.333  18.972  0.00  0.00    +0.000 NA
ATOM     30  C   UNL     1      -5.262  12.378  19.768  0.00  0.00    +0.000 A 
ENDBRANCH  24  25
ENDBRANCH  10  24
TORSDOF 4
ENDMDL
MODEL 4
REMARK VINA RESULT:      -7.2      5.329      8.269
REMARK  Name = 
REMARK  5 active torsions:
REMARK  status: ('A' for Active; 'I' for Inactive)
REMARK    1  A    between atoms: C_1  and  O_2
REMARK    2  A    between atoms: O_2  and  C_3
REMARK    3  A    between atoms: C_5  and  N_6
REMARK    4  A    between atoms: N_22  and  C_23
REMARK    5  A    between atoms: C_23  and  C_24
REMARK                            x       y       z     vdW  Elec       q    Type
REMARK                         _______ _______ _______ _____ _____    ______ ____
ROOT
ATOM      1  C   UNL     1       1.035   9.012  21.035  0.00  0.00    +0.000 A 
ATOM      2  C   UNL     1       1.838   8.081  20.362  0.00  0.00    +0.000 A 
ATOM      3  C   UNL     1       1.989   8.123  18.972  0.00  0.00    +0.000 A 
ATOM      4  C   UNL     1       1.396   9.168  18.259  0.00  0.00    +0.000 A 
ATOM      5  C   UNL     1       0.625  10.140  18.920  0.00  0.00    +0.000 A 
ATOM      6  C   UNL     1       0.414  10.033  20.308  0.00  0.00    +0.000 A 
ATOM      7  O   UNL     1      -0.405  10.941  20.923  0.00  0.00    +0.000 OA
ATOM      8  C   UNL     1       0.236  12.216  21.064  0.00  0.00    +0.000 C 
ATOM      9  C   UNL     1       0.046  13.088  19.818  0.00  0.00    +0.000 C 
ATOM     10  N   UNL     1       0.724  12.631  18.590  0.00  0.00    +0.000 NA
ATOM     11  C   UNL     1       0.147  11.345  18.138  0.00  0.00    +0.000 C 
ENDROOT
BRANCH   3  12
ATOM     12  N   UNL     1       2.778   7.153  18.286  0.00  0.00    +0.000 N 
ATOM     13  C   UNL     1       3.922   7.449  17.564  0.00  0.00    +0.000 A 
ATOM     14  C   UNL     1       4.470   6.284  17.083  0.00  0.00    +0.000 A 
ATOM     15  C   UNL     1       3.618   5.222  17.464  0.00  0.00    +0.000 A 
ATOM     16  C   UNL     1       3.652   3.835  17.225  0.00  0.00    +0.000 A 
ATOM     17  C   UNL     1       2.611   3.039  17.697  0.00  0.00    +0.000 A 
ATOM     18  F   UNL     1       2.635   1.721  17.460  0.00  0.00    +0.000 F 
ATOM     19  C   UNL     1       1.540   3.586  18.381  0.00  0.00    +0.000 A 
ATOM     20  C   UNL     1       1.485   4.958  18.630  0.00  0.00    +0.000 A 
ATOM     21  C   UNL     1       2.553   5.772  18.195  0.00  0.00    +0.000 A 
ENDBRANCH   3  12
BRANCH   1  23
ATOM     22  C   UNL     1      -0.114   9.206  23.118  0.00  0.00    +0.000 C 
ATOM     23  O   UNL     1       1.059   8.857  22.397  0.00  0.00    +0.000 OA
ENDBRANCH   1  23
BRANCH  10  24
ATOM     24  C   UNL     1       2.196  12.564  18.699  0.00  0.00    +0.000 C 
BRANCH  24  25
ATOM     25  C   UNL     1       2.881  13.898  18.842  0.00  0.00    +0.000 A 
ATOM     26  C   UNL     1       2.924  14.815  17.783  0.00  0.00    +0.000 A 
ATOM     27  C   UNL     1       3.558  16.041  17.956  0.00  0.00    +0.000 A 
ATOM     28  C   UNL     1       4.128  16.314  19.189  0.00  0.00    +0.000 A 
ATOM     29  N   UNL     1       4.102  15.459  20.236  0.00  0.00    +0.000 NA
ATOM     30  C   UNL     1       3.483  14.273  20.038  0.00  0.00    +0.000 A 
ENDBRANCH  24  25
ENDBRANCH  10  24
TORSDOF 4
ENDMDL
MODEL 5
REMARK VINA RESULT:      -7.2      7.021     11.773
REMARK  Name = 
REMARK  5 active torsions:
REMARK  status: ('A' for Active; 'I' for Inactive)
REMARK    1  A    between atoms: C_1  and  O_2
REMARK    2  A    between atoms: O_2  and  C_3
REMARK    3  A    between atoms: C_5  and  N_6
REMARK    4  A    between atoms: N_22  and  C_23
REMARK    5  A    between atoms: C_23  and  C_24
REMARK                            x       y       z     vdW  Elec       q    Type
REMARK                         _______ _______ _______ _____ _____    ______ ____
ROOT
ATOM      1  C   UNL     1       1.650   4.576  20.115  0.00  0.00    +0.000 A 
ATOM      2  C   UNL     1       1.185   5.886  19.937  0.00  0.00    +0.000 A 
ATOM      3  C   UNL     1       2.070   6.951  19.737  0.00  0.00    +0.000 A 
ATOM      4  C   UNL     1       3.437   6.682  19.626  0.00  0.00    +0.000 A 
ATOM      5  C   UNL     1       3.922   5.368  19.754  0.00  0.00    +0.000 A 
ATOM      6  C   UNL     1       3.024   4.322  20.041  0.00  0.00    +0.000 A 
ATOM      7  O   UNL     1       3.521   3.063  20.243  0.00  0.00    +0.000 OA
ATOM      8  C   UNL     1       3.925   2.453  19.009  0.00  0.00    +0.000 C 
ATOM      9  C   UNL     1       5.367   2.819  18.639  0.00  0.00    +0.000 C 
ATOM     10  N   UNL     1       5.612   4.229  18.282  0.00  0.00    +0.000 NA
ATOM     11  C   UNL     1       5.381   5.099  19.457  0.00  0.00    +0.000 C 
ENDROOT
BRANCH   3  12
ATOM     12  N   UNL     1       1.596   8.288  19.591  0.00  0.00    +0.000 N 
ATOM     13  C   UNL     1       1.726   9.039  18.436  0.00  0.00    +0.000 A 
ATOM     14  C   UNL     1       1.111  10.256  18.612  0.00  0.00    +0.000 A 
ATOM     15  C   UNL     1       0.623  10.299  19.939  0.00  0.00    +0.000 A 
ATOM     16  C   UNL     1      -0.049  11.290  20.679  0.00  0.00    +0.000 A 
ATOM     17  C   UNL     1      -0.353  11.048  22.016  0.00  0.00    +0.000 A 
ATOM     18  F   UNL     1      -0.982  11.994  22.726  0.00  0.00    +0.000 F 
ATOM     19  C   UNL     1       0.002   9.862  22.633  0.00  0.00    +0.000 A 
ATOM     20  C   UNL     1       0.669   8.864  21.918  0.00  0.00    +0.000 A 
ATOM     21  C   UNL     1       0.948   9.078  20.551  0.00  0.00    +0.000 A 
ENDBRANCH   3  12
BRANCH   1  23
ATOM     22  C   UNL     1       0.384   2.818  19.115  0.00  0.00    +0.000 C 
ATOM     23  O   UNL     1       0.639   3.658  20.231  0.00  0.00    +0.000 OA
ENDBRANCH   1  23
BRANCH  10  24
ATOM     24  C   UNL     1       4.861   4.695  17.098  0.00  0.00    +0.000 C 
BRANCH  24  25
ATOM     25  C   UNL     1       5.639   4.678  15.808  0.00  0.00    +0.000 A 
ATOM     26  C   UNL     1       5.179   3.977  14.686  0.00  0.00    +0.000 A 
ATOM     27  C   UNL     1       5.921   3.992  13.509  0.00  0.00    +0.000 A 
ATOM     28  C   UNL     1       7.102   4.714  13.492  0.00  0.00    +0.000 A 
ATOM     29  N   UNL     1       7.577   5.408  14.550  0.00  0.00    +0.000 NA
ATOM     30  C   UNL     1       6.838   5.372  15.682  0.00  0.00    +0.000 A 
ENDBRANCH  24  25
ENDBRANCH  10  24
TORSDOF 4
ENDMDL
MODEL 6
REMARK VINA RESULT:      -7.2      2.237      3.272
REMARK  Name = 
REMARK  5 active torsions:
REMARK  status: ('A' for Active; 'I' for Inactive)
REMARK    1  A    between atoms: C_1  and  O_2
REMARK    2  A    between atoms: O_2  and  C_3
REMARK    3  A    between atoms: C_5  and  N_6
REMARK    4  A    between atoms: N_22  and  C_23
REMARK    5  A    between atoms: C_23  and  C_24
REMARK                            x       y       z     vdW  Elec       q    Type
REMARK                         _______ _______ _______ _____ _____    ______ ____
ROOT
ATOM      1  C   UNL     1      -0.147  14.099  21.873  0.00  0.00    +0.000 A 
ATOM      2  C   UNL     1      -0.158  13.304  20.719  0.00  0.00    +0.000 A 
ATOM      3  C   UNL     1      -0.924  12.136  20.647  0.00  0.00    +0.000 A 
ATOM      4  C   UNL     1      -1.759  11.809  21.718  0.00  0.00    +0.000 A 
ATOM      5  C   UNL     1      -1.801  12.618  22.868  0.00  0.00    +0.000 A 
ATOM      6  C   UNL     1      -0.958  13.743  22.956  0.00  0.00    +0.000 A 
ATOM      7  O   UNL     1      -0.951  14.473  24.114  0.00  0.00    +0.000 OA
ATOM      8  C   UNL     1      -2.131  15.279  24.235  0.00  0.00    +0.000 C 
ATOM      9  C   UNL     1      -3.283  14.505  24.887  0.00  0.00    +0.000 C 
ATOM     10  N   UNL     1      -3.851  13.393  24.101  0.00  0.00    +0.000 NA
ATOM     11  C   UNL     1      -2.841  12.324  23.927  0.00  0.00    +0.000 C 
ENDROOT
BRANCH   3  12
ATOM     12  N   UNL     1      -0.906  11.311  19.484  0.00  0.00    +0.000 N 
ATOM     13  C   UNL     1       0.157  10.502  19.120  0.00  0.00    +0.000 A 
ATOM     14  C   UNL     1      -0.173   9.800  17.986  0.00  0.00    +0.000 A 
ATOM     15  C   UNL     1      -1.465  10.216  17.587  0.00  0.00    +0.000 A 
ATOM     16  C   UNL     1      -2.286   9.873  16.496  0.00  0.00    +0.000 A 
ATOM     17  C   UNL     1      -3.513  10.515  16.343  0.00  0.00    +0.000 A 
ATOM     18  F   UNL     1      -4.291  10.198  15.299  0.00  0.00    +0.000 F 
ATOM     19  C   UNL     1      -3.932  11.489  17.231  0.00  0.00    +0.000 A 
ATOM     20  C   UNL     1      -3.134  11.846  18.319  0.00  0.00    +0.000 A 
ATOM     21  C   UNL     1      -1.907  11.175  18.512  0.00  0.00    +0.000 A 
ENDBRANCH   3  12
BRANCH   1  23
ATOM     22  C   UNL     1       1.993  15.141  22.029  0.00  0.00    +0.000 C 
ATOM     23  O   UNL     1       0.607  15.235  21.737  0.00  0.00    +0.000 OA
ENDBRANCH   1  23
BRANCH  10  24
ATOM     24  C   UNL     1      -4.444  13.802  22.811  0.00  0.00    +0.000 C 
BRANCH  24  25
ATOM     25  C   UNL     1      -5.617  12.971  22.362  0.00  0.00    +0.000 A 
ATOM     26  C   UNL     1      -6.776  12.860  23.141  0.00  0.00    +0.000 A 
ATOM     27  C   UNL     1      -7.842  12.090  22.689  0.00  0.00    +0.000 A 
ATOM     28  C   UNL     1      -7.717  11.457  21.464  0.00  0.00    +0.000 A 
ATOM     29  N   UNL     1      -6.619  11.543  20.680  0.00  0.00    +0.000 NA
ATOM     30  C   UNL     1      -5.596  12.295  21.147  0.00  0.00    +0.000 A 
ENDBRANCH  24  25
ENDBRANCH  10  24
TORSDOF 4
ENDMDL
MODEL 7
REMARK VINA RESULT:      -7.1      2.167      3.021
REMARK  Name = 
REMARK  5 active torsions:
REMARK  status: ('A' for Active; 'I' for Inactive)
REMARK    1  A    between atoms: C_1  and  O_2
REMARK    2  A    between atoms: O_2  and  C_3
REMARK    3  A    between atoms: C_5  and  N_6
REMARK    4  A    between atoms: N_22  and  C_23
REMARK    5  A    between atoms: C_23  and  C_24
REMARK                            x       y       z     vdW  Elec       q    Type
REMARK                         _______ _______ _______ _____ _____    ______ ____
ROOT
ATOM      1  C   UNL     1       0.040  13.955  22.278  0.00  0.00    +0.000 A 
ATOM      2  C   UNL     1       0.090  13.170  21.118  0.00  0.00    +0.000 A 
ATOM      3  C   UNL     1      -0.832  12.142  20.895  0.00  0.00    +0.000 A 
ATOM      4  C   UNL     1      -1.873  11.958  21.809  0.00  0.00    +0.000 A 
ATOM      5  C   UNL     1      -1.971  12.765  22.957  0.00  0.00    +0.000 A 
ATOM      6  C   UNL     1      -0.984  13.738  23.208  0.00  0.00    +0.000 A 
ATOM      7  O   UNL     1      -1.049  14.459  24.369  0.00  0.00    +0.000 OA
ATOM      8  C   UNL     1      -2.088  15.446  24.317  0.00  0.00    +0.000 C 
ATOM      9  C   UNL     1      -3.440  14.872  24.755  0.00  0.00    +0.000 C 
ATOM     10  N   UNL     1      -4.043  13.866  23.860  0.00  0.00    +0.000 NA
ATOM     11  C   UNL     1      -3.204  12.647  23.826  0.00  0.00    +0.000 C 
ENDROOT
BRANCH   3  12
ATOM     12  N   UNL     1      -0.756  11.322  19.730  0.00  0.00    +0.000 N 
ATOM     13  C   UNL     1       0.340  10.548  19.394  0.00  0.00    +0.000 A 
ATOM     14  C   UNL     1       0.063   9.840  18.249  0.00  0.00    +0.000 A 
ATOM     15  C   UNL     1      -1.230  10.218  17.816  0.00  0.00    +0.000 A 
ATOM     16  C   UNL     1      -2.010   9.854  16.702  0.00  0.00    +0.000 A 
ATOM     17  C   UNL     1      -3.251  10.459  16.517  0.00  0.00    +0.000 A 
ATOM     18  F   UNL     1      -3.990  10.123  15.451  0.00  0.00    +0.000 F 
ATOM     19  C   UNL     1      -3.724  11.417  17.396  0.00  0.00    +0.000 A 
ATOM     20  C   UNL     1      -2.968  11.793  18.507  0.00  0.00    +0.000 A 
ATOM     21  C   UNL     1      -1.726  11.160  18.732  0.00  0.00    +0.000 A 
ENDBRANCH   3  12
BRANCH   1  23
ATOM     22  C   UNL     1       1.356  15.519  21.047  0.00  0.00    +0.000 C 
ATOM     23  O   UNL     1       0.979  14.953  22.294  0.00  0.00    +0.000 OA
ENDBRANCH   1  23
BRANCH  10  24
ATOM     24  C   UNL     1      -4.344  14.363  22.501  0.00  0.00    +0.000 C 
BRANCH  24  25
ATOM     25  C   UNL     1      -5.532  13.717  21.840  0.00  0.00    +0.000 A 
ATOM     26  C   UNL     1      -5.403  12.541  21.091  0.00  0.00    +0.000 A 
ATOM     27  C   UNL     1      -6.526  11.968  20.502  0.00  0.00    +0.000 A 
ATOM     28  C   UNL     1      -7.748  12.591  20.686  0.00  0.00    +0.000 A 
ATOM     29  N   UNL     1      -7.916  13.723  21.406  0.00  0.00    +0.000 NA
ATOM     30  C   UNL     1      -6.807  14.260  21.963  0.00  0.00    +0.000 A 
ENDBRANCH  24  25
ENDBRANCH  10  24
TORSDOF 4
ENDMDL
MODEL 8
REMARK VINA RESULT:      -7.1      4.499      7.501
REMARK  Name = 
REMARK  5 active torsions:
REMARK  status: ('A' for Active; 'I' for Inactive)
REMARK    1  A    between atoms: C_1  and  O_2
REMARK    2  A    between atoms: O_2  and  C_3
REMARK    3  A    between atoms: C_5  and  N_6
REMARK    4  A    between atoms: N_22  and  C_23
REMARK    5  A    between atoms: C_23  and  C_24
REMARK                            x       y       z     vdW  Elec       q    Type
REMARK                         _______ _______ _______ _____ _____    ______ ____
ROOT
ATOM      1  C   UNL     1      -0.344   9.840  21.289  0.00  0.00    +0.000 A 
ATOM      2  C   UNL     1       0.591   8.925  20.787  0.00  0.00    +0.000 A 
ATOM      3  C   UNL     1       1.097   9.040  19.488  0.00  0.00    +0.000 A 
ATOM      4  C   UNL     1       0.724  10.142  18.713  0.00  0.00    +0.000 A 
ATOM      5  C   UNL     1      -0.177  11.099  19.213  0.00  0.00    +0.000 A 
ATOM      6  C   UNL     1      -0.741  10.920  20.491  0.00  0.00    +0.000 A 
ATOM      7  O   UNL     1      -1.677  11.817  20.930  0.00  0.00    +0.000 OA
ATOM      8  C   UNL     1      -1.075  13.061  21.311  0.00  0.00    +0.000 C 
ATOM      9  C   UNL     1      -0.923  14.008  20.115  0.00  0.00    +0.000 C 
ATOM     10  N   UNL     1       0.043  13.600  19.076  0.00  0.00    +0.000 NA
ATOM     11  C   UNL     1      -0.418  12.360  18.412  0.00  0.00    +0.000 C 
ENDROOT
BRANCH   3  12
ATOM     12  N   UNL     1       2.021   8.087  18.968  0.00  0.00    +0.000 N 
ATOM     13  C   UNL     1       2.802   8.292  17.844  0.00  0.00    +0.000 A 
ATOM     14  C   UNL     1       3.621   7.205  17.654  0.00  0.00    +0.000 A 
ATOM     15  C   UNL     1       3.311   6.257  18.657  0.00  0.00    +0.000 A 
ATOM     16  C   UNL     1       3.795   4.964  18.934  0.00  0.00    +0.000 A 
ATOM     17  C   UNL     1       3.235   4.241  19.985  0.00  0.00    +0.000 A 
ATOM     18  F   UNL     1       3.686   3.006  20.242  0.00  0.00    +0.000 F 
ATOM     19  C   UNL     1       2.208   4.762  20.751  0.00  0.00    +0.000 A 
ATOM     20  C   UNL     1       1.713   6.042  20.495  0.00  0.00    +0.000 A 
ATOM     21  C   UNL     1       2.297   6.804  19.460  0.00  0.00    +0.000 A 
ENDBRANCH   3  12
BRANCH   1  23
ATOM     22  C   UNL     1       0.386   9.511  23.536  0.00  0.00    +0.000 C 
ATOM     23  O   UNL     1      -0.676   9.608  22.598  0.00  0.00    +0.000 OA
ENDBRANCH   1  23
BRANCH  10  24
ATOM     24  C   UNL     1       1.436  13.482  19.555  0.00  0.00    +0.000 C 
BRANCH  24  25
ATOM     25  C   UNL     1       2.363  14.569  19.080  0.00  0.00    +0.000 A 
ATOM     26  C   UNL     1       3.477  14.282  18.281  0.00  0.00    +0.000 A 
ATOM     27  C   UNL     1       4.306  15.314  17.853  0.00  0.00    +0.000 A 
ATOM     28  C   UNL     1       3.989  16.607  18.236  0.00  0.00    +0.000 A 
ATOM     29  N   UNL     1       2.921  16.926  19.000  0.00  0.00    +0.000 NA
ATOM     30  C   UNL     1       2.135  15.901  19.405  0.00  0.00    +0.000 A 
ENDBRANCH  24  25
ENDBRANCH  10  24
TORSDOF 4
ENDMDL
MODEL 9
REMARK VINA RESULT:      -7.0      1.534      1.825
REMARK  Name = 
REMARK  5 active torsions:
REMARK  status: ('A' for Active; 'I' for Inactive)
REMARK    1  A    between atoms: C_1  and  O_2
REMARK    2  A    between atoms: O_2  and  C_3
REMARK    3  A    between atoms: C_5  and  N_6
REMARK    4  A    between atoms: N_22  and  C_23
REMARK    5  A    between atoms: C_23  and  C_24
REMARK                            x       y       z     vdW  Elec       q    Type
REMARK                         _______ _______ _______ _____ _____    ______ ____
ROOT
ATOM      1  C   UNL     1      -0.754  14.415  23.067  0.00  0.00    +0.000 A 
ATOM      2  C   UNL     1      -0.346  13.513  22.075  0.00  0.00    +0.000 A 
ATOM      3  C   UNL     1      -1.066  12.342  21.816  0.00  0.00    +0.000 A 
ATOM      4  C   UNL     1      -2.262  12.118  22.504  0.00  0.00    +0.000 A 
ATOM      5  C   UNL     1      -2.716  13.034  23.470  0.00  0.00    +0.000 A 
ATOM      6  C   UNL     1      -1.933  14.163  23.778  0.00  0.00    +0.000 A 
ATOM      7  O   UNL     1      -2.348  15.001  24.778  0.00  0.00    +0.000 OA
ATOM      8  C   UNL     1      -3.453  15.813  24.359  0.00  0.00    +0.000 C 
ATOM      9  C   UNL     1      -4.794  15.103  24.578  0.00  0.00    +0.000 C 
ATOM     10  N   UNL     1      -5.054  13.920  23.736  0.00  0.00    +0.000 NA
ATOM     11  C   UNL     1      -4.095  12.842  24.064  0.00  0.00    +0.000 C 
ENDROOT
BRANCH   3  12
ATOM     12  N   UNL     1      -0.629  11.410  20.830  0.00  0.00    +0.000 N 
ATOM     13  C   UNL     1       0.480  10.593  20.969  0.00  0.00    +0.000 A 
ATOM     14  C   UNL     1       0.585   9.777  19.867  0.00  0.00    +0.000 A 
ATOM     15  C   UNL     1      -0.459  10.125  18.978  0.00  0.00    +0.000 A 
ATOM     16  C   UNL     1      -0.821   9.659  17.699  0.00  0.00    +0.000 A 
ATOM     17  C   UNL     1      -1.891  10.257  17.039  0.00  0.00    +0.000 A 
ATOM     18  F   UNL     1      -2.230   9.824  15.817  0.00  0.00    +0.000 F 
ATOM     19  C   UNL     1      -2.596  11.303  17.607  0.00  0.00    +0.000 A 
ATOM     20  C   UNL     1      -2.255  11.780  18.874  0.00  0.00    +0.000 A 
ATOM     21  C   UNL     1      -1.199  11.158  19.574  0.00  0.00    +0.000 A 
ENDBRANCH   3  12
BRANCH   1  23
ATOM     22  C   UNL     1       0.142  16.332  21.964  0.00  0.00    +0.000 C 
ATOM     23  O   UNL     1       0.034  15.534  23.134  0.00  0.00    +0.000 OA
ENDBRANCH   1  23
BRANCH  10  24
ATOM     24  C   UNL     1      -5.087  14.203  22.286  0.00  0.00    +0.000 C 
BRANCH  24  25
ATOM     25  C   UNL     1      -5.853  13.200  21.464  0.00  0.00    +0.000 A 
ATOM     26  C   UNL     1      -5.397  12.784  20.206  0.00  0.00    +0.000 A 
ATOM     27  C   UNL     1      -6.128  11.850  19.479  0.00  0.00    +0.000 A 
ATOM     28  C   UNL     1      -7.294  11.355  20.039  0.00  0.00    +0.000 A 
ATOM     29  N   UNL     1      -7.764  11.725  21.251  0.00  0.00    +0.000 NA
ATOM     30  C   UNL     1      -7.036  12.639  21.933  0.00  0.00    +0.000 A 
ENDBRANCH  24  25
ENDBRANCH  10  24
TORSDOF 4
ENDMDL
