MODEL 1
REMARK VINA RESULT:      -9.6      0.000      0.000
REMARK  Name = 
REMARK  5 active torsions:
REMARK  status: ('A' for Active; 'I' for Inactive)
REMARK    1  A    between atoms: C_2  and  C_14
REMARK    2  A    between atoms: N_3  and  C_4
REMARK    3  A    between atoms: C_4  and  C_5
REMARK    4  A    between atoms: N_18  and  C_19
REMARK    5  A    between atoms: C_26  and  C_27
REMARK                            x       y       z     vdW  Elec       q    Type
REMARK                         _______ _______ _______ _____ _____    ______ ____
ROOT
ATOM      1  C   UNL     1       0.383   9.458  20.306  0.00  0.00    +0.000 C 
ATOM      2  C   UNL     1       1.025   9.136  21.646  0.00  0.00    +0.000 C 
ATOM      3  C   UNL     1       0.175   9.896  22.633  0.00  0.00    +0.000 C 
ATOM      4  O   UNL     1       0.240   9.729  23.841  0.00  0.00    +0.000 OA
ATOM      5  N   UNL     1      -0.566  10.854  21.932  0.00  0.00    +0.000 N 
ATOM      6  C   UNL     1      -0.247  10.838  20.515  0.00  0.00    +0.000 C 
ENDROOT
BRANCH   5   7
ATOM      7  C   UNL     1      -1.225  11.926  22.586  0.00  0.00    +0.000 A 
ATOM      8  C   UNL     1      -0.665  13.209  22.622  0.00  0.00    +0.000 A 
ATOM      9  C   UNL     1      -1.313  14.252  23.290  0.00  0.00    +0.000 A 
ATOM     10  C   UNL     1      -2.549  14.030  23.892  0.00  0.00    +0.000 A 
ATOM     11  C   UNL     1      -3.122  12.761  23.842  0.00  0.00    +0.000 A 
ATOM     12 CL   UNL     1      -4.670  12.500  24.546  0.00  0.00    +0.000 Cl
ATOM     13  C   UNL     1      -2.458  11.707  23.212  0.00  0.00    +0.000 A 
ENDBRANCH   5   7
BRANCH   6  14
ATOM     14  C   UNL     1      -1.451  11.053  19.612  0.00  0.00    +0.000 A 
ATOM     15  C   UNL     1      -2.279  12.184  19.736  0.00  0.00    +0.000 A 
ATOM     16  C   UNL     1      -3.392  12.356  18.907  0.00  0.00    +0.000 A 
ATOM     17  C   UNL     1      -3.681  11.407  17.930  0.00  0.00    +0.000 A 
ATOM     18  C   UNL     1      -2.864  10.294  17.799  0.00  0.00    +0.000 A 
ATOM     19  F   UNL     1      -3.139   9.384  16.855  0.00  0.00    +0.000 F 
ATOM     20  C   UNL     1      -1.765  10.101  18.631  0.00  0.00    +0.000 A 
ENDBRANCH   6  14
BRANCH   1  22
ATOM     21  O   UNL     1       1.729  10.470  18.620  0.00  0.00    +0.000 OA
ATOM     22  C   UNL     1       1.342   9.423  19.135  0.00  0.00    +0.000 C 
ATOM     23  N   UNL     1       1.735   8.188  18.683  0.00  0.00    +0.000 N 
ATOM     24  H   UNL     1       1.362   7.336  19.077  0.00  0.00    +0.000 HD
BRANCH  23  25
ATOM     25  C   UNL     1       2.649   8.041  17.570  0.00  0.00    +0.000 C 
BRANCH  25  26
ATOM     26  C   UNL     1       3.697   6.997  17.863  0.00  0.00    +0.000 A 
ATOM     27  C   UNL     1       3.559   6.151  18.987  0.00  0.00    +0.000 A 
ATOM     28  C   UNL     1       4.537   5.202  19.301  0.00  0.00    +0.000 A 
ATOM     29  C   UNL     1       5.634   5.115  18.470  0.00  0.00    +0.000 A 
ATOM     30  C   UNL     1       5.766   5.916  17.362  0.00  0.00    +0.000 A 
ATOM     31  C   UNL     1       4.816   6.859  17.025  0.00  0.00    +0.000 A 
ATOM     32  O   UNL     1       6.917   5.673  16.680  0.00  0.00    +0.000 OA
ATOM     33  C   UNL     1       7.516   4.659  17.514  0.00  0.00    +0.000 C 
ATOM     34  O   UNL     1       6.687   4.270  18.629  0.00  0.00    +0.000 OA
ENDBRANCH  25  26
ENDBRANCH  23  25
ENDBRANCH   1  22
TORSDOF 5
ENDMDL
MODEL 2
REMARK VINA RESULT:      -9.3      1.386      1.809
REMARK  Name = 
REMARK  5 active torsions:
REMARK  status: ('A' for Active; 'I' for Inactive)
REMARK    1  A    between atoms: C_2  and  C_14
REMARK    2  A    between atoms: N_3  and  C_4
REMARK    3  A    between atoms: C_4  and  C_5
REMARK    4  A    between atoms: N_18  and  C_19
REMARK    5  A    between atoms: C_26  and  C_27
REMARK                            x       y       z     vdW  Elec       q    Type
REMARK                         _______ _______ _______ _____ _____    ______ ____
ROOT
ATOM      1  C   UNL     1       0.381   9.430  20.376  0.00  0.00    +0.000 C 
ATOM      2  C   UNL     1       0.997   9.112  21.729  0.00  0.00    +0.000 C 
ATOM      3  C   UNL     1       0.142   9.894  22.695  0.00  0.00    +0.000 C 
ATOM      4  O   UNL     1       0.185   9.736  23.905  0.00  0.00    +0.000 OA
ATOM      5  N   UNL     1      -0.574  10.855  21.973  0.00  0.00    +0.000 N 
ATOM      6  C   UNL     1      -0.233  10.822  20.562  0.00  0.00    +0.000 C 
ENDROOT
BRANCH   5   7
ATOM      7  C   UNL     1      -1.228  11.942  22.607  0.00  0.00    +0.000 A 
ATOM      8  C   UNL     1      -0.655  13.220  22.633  0.00  0.00    +0.000 A 
ATOM      9  C   UNL     1      -1.299  14.277  23.281  0.00  0.00    +0.000 A 
ATOM     10  C   UNL     1      -2.544  14.077  23.873  0.00  0.00    +0.000 A 
ATOM     11  C   UNL     1      -3.129  12.813  23.832  0.00  0.00    +0.000 A 
ATOM     12 CL   UNL     1      -4.687  12.577  24.524  0.00  0.00    +0.000 Cl
ATOM     13  C   UNL     1      -2.470  11.745  23.223  0.00  0.00    +0.000 A 
ENDBRANCH   5   7
BRANCH   6  14
ATOM     14  C   UNL     1      -1.420  11.045  19.638  0.00  0.00    +0.000 A 
ATOM     15  C   UNL     1      -2.207  12.208  19.710  0.00  0.00    +0.000 A 
ATOM     16  C   UNL     1      -3.304  12.389  18.862  0.00  0.00    +0.000 A 
ATOM     17  C   UNL     1      -3.618  11.414  17.919  0.00  0.00    +0.000 A 
ATOM     18  C   UNL     1      -2.842  10.268  17.840  0.00  0.00    +0.000 A 
ATOM     19  F   UNL     1      -3.140   9.333  16.928  0.00  0.00    +0.000 F 
ATOM     20  C   UNL     1      -1.759  10.068  18.691  0.00  0.00    +0.000 A 
ENDBRANCH   6  14
BRANCH   1  22
ATOM     21  O   UNL     1       1.585  10.376  18.550  0.00  0.00    +0.000 OA
ATOM     22  C   UNL     1       1.357   9.372  19.221  0.00  0.00    +0.000 C 
ATOM     23  N   UNL     1       1.949   8.161  18.962  0.00  0.00    +0.000 N 
ATOM     24  H   UNL     1       1.707   7.330  19.483  0.00  0.00    +0.000 HD
BRANCH  23  25
ATOM     25  C   UNL     1       2.899   7.994  17.882  0.00  0.00    +0.000 C 
BRANCH  25  26
ATOM     26  C   UNL     1       3.291   6.547  17.723  0.00  0.00    +0.000 A 
ATOM     27  C   UNL     1       4.492   6.207  17.059  0.00  0.00    +0.000 A 
ATOM     28  C   UNL     1       4.857   4.871  16.865  0.00  0.00    +0.000 A 
ATOM     29  C   UNL     1       4.010   3.899  17.352  0.00  0.00    +0.000 A 
ATOM     30  C   UNL     1       2.853   4.218  18.020  0.00  0.00    +0.000 A 
ATOM     31  C   UNL     1       2.468   5.527  18.229  0.00  0.00    +0.000 A 
ATOM     32  O   UNL     1       2.162   3.116  18.416  0.00  0.00    +0.000 OA
ATOM     33  C   UNL     1       2.995   2.067  17.879  0.00  0.00    +0.000 C 
ATOM     34  O   UNL     1       4.192   2.556  17.239  0.00  0.00    +0.000 OA
ENDBRANCH  25  26
ENDBRANCH  23  25
ENDBRANCH   1  22
TORSDOF 5
ENDMDL
MODEL 3
REMARK VINA RESULT:      -9.3      0.953      1.269
REMARK  Name = 
REMARK  5 active torsions:
REMARK  status: ('A' for Active; 'I' for Inactive)
REMARK    1  A    between atoms: C_2  and  C_14
REMARK    2  A    between atoms: N_3  and  C_4
REMARK    3  A    between atoms: C_4  and  C_5
REMARK    4  A    between atoms: N_18  and  C_19
REMARK    5  A    between atoms: C_26  and  C_27
REMARK                            x       y       z     vdW  Elec       q    Type
REMARK                         _______ _______ _______ _____ _____    ______ ____
ROOT
ATOM      1  C   UNL     1       0.402   9.464  20.256  0.00  0.00    +0.000 C 
ATOM      2  C   UNL     1       1.045   9.150  21.597  0.00  0.00    +0.000 C 
ATOM      3  C   UNL     1       0.191   9.912  22.581  0.00  0.00    +0.000 C 
ATOM      4  O   UNL     1       0.256   9.749  23.789  0.00  0.00    +0.000 OA
ATOM      5  N   UNL     1      -0.552  10.864  21.875  0.00  0.00    +0.000 N 
ATOM      6  C   UNL     1      -0.233  10.844  20.459  0.00  0.00    +0.000 C 
ENDROOT
BRANCH   5   7
ATOM      7  C   UNL     1      -1.215  11.936  22.524  0.00  0.00    +0.000 A 
ATOM      8  C   UNL     1      -2.474  11.761  23.114  0.00  0.00    +0.000 A 
ATOM      9  C   UNL     1      -3.128  12.831  23.731  0.00  0.00    +0.000 A 
ATOM     10  C   UNL     1      -2.510  14.077  23.802  0.00  0.00    +0.000 A 
ATOM     11  C   UNL     1      -1.249  14.252  23.236  0.00  0.00    +0.000 A 
ATOM     12 CL   UNL     1      -0.467  15.780  23.365  0.00  0.00    +0.000 Cl
ATOM     13  C   UNL     1      -0.611  13.197  22.583  0.00  0.00    +0.000 A 
ENDBRANCH   5   7
BRANCH   6  14
ATOM     14  C   UNL     1      -1.437  11.050  19.554  0.00  0.00    +0.000 A 
ATOM     15  C   UNL     1      -2.271  12.177  19.675  0.00  0.00    +0.000 A 
ATOM     16  C   UNL     1      -3.384  12.342  18.845  0.00  0.00    +0.000 A 
ATOM     17  C   UNL     1      -3.667  11.390  17.869  0.00  0.00    +0.000 A 
ATOM     18  C   UNL     1      -2.844  10.281  17.741  0.00  0.00    +0.000 A 
ATOM     19  F   UNL     1      -3.114   9.368  16.799  0.00  0.00    +0.000 F 
ATOM     20  C   UNL     1      -1.745  10.095  18.575  0.00  0.00    +0.000 A 
ENDBRANCH   6  14
BRANCH   1  22
ATOM     21  O   UNL     1       1.730  10.473  18.553  0.00  0.00    +0.000 OA
ATOM     22  C   UNL     1       1.362   9.429  19.086  0.00  0.00    +0.000 C 
ATOM     23  N   UNL     1       1.777   8.194  18.653  0.00  0.00    +0.000 N 
ATOM     24  H   UNL     1       1.419   7.341  19.060  0.00  0.00    +0.000 HD
BRANCH  23  25
ATOM     25  C   UNL     1       2.694   8.045  17.542  0.00  0.00    +0.000 C 
BRANCH  25  26
ATOM     26  C   UNL     1       3.739   6.999  17.837  0.00  0.00    +0.000 A 
ATOM     27  C   UNL     1       3.604   6.163  18.970  0.00  0.00    +0.000 A 
ATOM     28  C   UNL     1       4.580   5.213  19.285  0.00  0.00    +0.000 A 
ATOM     29  C   UNL     1       5.672   5.114  18.449  0.00  0.00    +0.000 A 
ATOM     30  C   UNL     1       5.800   5.905  17.333  0.00  0.00    +0.000 A 
ATOM     31  C   UNL     1       4.852   6.849  16.995  0.00  0.00    +0.000 A 
ATOM     32  O   UNL     1       6.946   5.651  16.647  0.00  0.00    +0.000 OA
ATOM     33  C   UNL     1       7.545   4.641  17.485  0.00  0.00    +0.000 C 
ATOM     34  O   UNL     1       6.722   4.265  18.609  0.00  0.00    +0.000 OA
ENDBRANCH  25  26
ENDBRANCH  23  25
ENDBRANCH   1  22
TORSDOF 5
ENDMDL
MODEL 4
REMARK VINA RESULT:      -9.3      3.856      9.746
REMARK  Name = 
REMARK  5 active torsions:
REMARK  status: ('A' for Active; 'I' for Inactive)
REMARK    1  A    between atoms: C_2  and  C_14
REMARK    2  A    between atoms: N_3  and  C_4
REMARK    3  A    between atoms: C_4  and  C_5
REMARK    4  A    between atoms: N_18  and  C_19
REMARK    5  A    between atoms: C_26  and  C_27
REMARK                            x       y       z     vdW  Elec       q    Type
REMARK                         _______ _______ _______ _____ _____    ______ ____
ROOT
ATOM      1  C   UNL     1       1.422   7.488  19.518  0.00  0.00    +0.000 C 
ATOM      2  C   UNL     1       1.915   8.537  18.535  0.00  0.00    +0.000 C 
ATOM      3  C   UNL     1       2.935   7.792  17.710  0.00  0.00    +0.000 C 
ATOM      4  O   UNL     1       3.408   8.232  16.674  0.00  0.00    +0.000 OA
ATOM      5  N   UNL     1       3.290   6.625  18.396  0.00  0.00    +0.000 N 
ATOM      6  C   UNL     1       2.611   6.535  19.676  0.00  0.00    +0.000 C 
ENDROOT
BRANCH   5   7
ATOM      7  C   UNL     1       4.435   5.865  18.048  0.00  0.00    +0.000 A 
ATOM      8  C   UNL     1       4.411   4.963  16.976  0.00  0.00    +0.000 A 
ATOM      9  C   UNL     1       5.540   4.203  16.658  0.00  0.00    +0.000 A 
ATOM     10  C   UNL     1       6.718   4.369  17.382  0.00  0.00    +0.000 A 
ATOM     11  C   UNL     1       6.755   5.279  18.436  0.00  0.00    +0.000 A 
ATOM     12 CL   UNL     1       8.224   5.516  19.301  0.00  0.00    +0.000 Cl
ATOM     13  C   UNL     1       5.618   6.010  18.783  0.00  0.00    +0.000 A 
ENDBRANCH   5   7
BRANCH   6  14
ATOM     14  C   UNL     1       2.165   5.127  20.037  0.00  0.00    +0.000 A 
ATOM     15  C   UNL     1       2.459   4.552  21.286  0.00  0.00    +0.000 A 
ATOM     16  C   UNL     1       2.054   3.250  21.595  0.00  0.00    +0.000 A 
ATOM     17  C   UNL     1       1.333   2.511  20.660  0.00  0.00    +0.000 A 
ATOM     18  C   UNL     1       1.034   3.075  19.429  0.00  0.00    +0.000 A 
ATOM     19  F   UNL     1       0.335   2.365  18.534  0.00  0.00    +0.000 F 
ATOM     20  C   UNL     1       1.449   4.363  19.104  0.00  0.00    +0.000 A 
ENDBRANCH   6  14
BRANCH   1  22
ATOM     21  O   UNL     1       0.224   7.382  21.575  0.00  0.00    +0.000 OA
ATOM     22  C   UNL     1       0.945   8.052  20.839  0.00  0.00    +0.000 C 
ATOM     23  N   UNL     1       1.341   9.327  21.155  0.00  0.00    +0.000 N 
ATOM     24  H   UNL     1       1.883   9.889  20.513  0.00  0.00    +0.000 HD
BRANCH  23  25
ATOM     25  C   UNL     1       0.942   9.963  22.393  0.00  0.00    +0.000 C 
BRANCH  25  26
ATOM     26  C   UNL     1      -0.272  10.834  22.190  0.00  0.00    +0.000 A 
ATOM     27  C   UNL     1      -0.408  11.594  21.005  0.00  0.00    +0.000 A 
ATOM     28  C   UNL     1      -1.505  12.439  20.812  0.00  0.00    +0.000 A 
ATOM     29  C   UNL     1      -2.452  12.497  21.812  0.00  0.00    +0.000 A 
ATOM     30  C   UNL     1      -2.342  11.745  22.956  0.00  0.00    +0.000 A 
ATOM     31  C   UNL     1      -1.273  10.900  23.173  0.00  0.00    +0.000 A 
ATOM     32  O   UNL     1      -3.378  11.949  23.812  0.00  0.00    +0.000 OA
ATOM     33  C   UNL     1      -4.128  12.952  23.096  0.00  0.00    +0.000 C 
ATOM     34  O   UNL     1      -3.569  13.273  21.805  0.00  0.00    +0.000 OA
ENDBRANCH  25  26
ENDBRANCH  23  25
ENDBRANCH   1  22
TORSDOF 5
ENDMDL
MODEL 5
REMARK VINA RESULT:      -9.2      3.959      9.466
REMARK  Name = 
REMARK  5 active torsions:
REMARK  status: ('A' for Active; 'I' for Inactive)
REMARK    1  A    between atoms: C_2  and  C_14
REMARK    2  A    between atoms: N_3  and  C_4
REMARK    3  A    between atoms: C_4  and  C_5
REMARK    4  A    between atoms: N_18  and  C_19
REMARK    5  A    between atoms: C_26  and  C_27
REMARK                            x       y       z     vdW  Elec       q    Type
REMARK                         _______ _______ _______ _____ _____    ______ ____
ROOT
ATOM      1  C   UNL     1       1.465   7.578  19.692  0.00  0.00    +0.000 C 
ATOM      2  C   UNL     1       1.905   8.615  18.672  0.00  0.00    +0.000 C 
ATOM      3  C   UNL     1       2.818   7.838  17.755  0.00  0.00    +0.000 C 
ATOM      4  O   UNL     1       3.211   8.267  16.682  0.00  0.00    +0.000 OA
ATOM      5  N   UNL     1       3.190   6.655  18.402  0.00  0.00    +0.000 N 
ATOM      6  C   UNL     1       2.627   6.581  19.739  0.00  0.00    +0.000 C 
ENDROOT
BRANCH   5   7
ATOM      7  C   UNL     1       4.270   5.855  17.949  0.00  0.00    +0.000 A 
ATOM      8  C   UNL     1       4.115   4.964  16.880  0.00  0.00    +0.000 A 
ATOM      9  C   UNL     1       5.181   4.164  16.458  0.00  0.00    +0.000 A 
ATOM     10  C   UNL     1       6.425   4.280  17.074  0.00  0.00    +0.000 A 
ATOM     11  C   UNL     1       6.591   5.179  18.125  0.00  0.00    +0.000 A 
ATOM     12 CL   UNL     1       8.139   5.354  18.856  0.00  0.00    +0.000 Cl
ATOM     13  C   UNL     1       5.518   5.949  18.577  0.00  0.00    +0.000 A 
ENDBRANCH   5   7
BRANCH   6  14
ATOM     14  C   UNL     1       2.163   5.188  20.134  0.00  0.00    +0.000 A 
ATOM     15  C   UNL     1       2.498   4.619  21.376  0.00  0.00    +0.000 A 
ATOM     16  C   UNL     1       2.076   3.330  21.716  0.00  0.00    +0.000 A 
ATOM     17  C   UNL     1       1.296   2.600  20.822  0.00  0.00    +0.000 A 
ATOM     18  C   UNL     1       0.957   3.158  19.599  0.00  0.00    +0.000 A 
ATOM     19  F   UNL     1       0.203   2.458  18.743  0.00  0.00    +0.000 F 
ATOM     20  C   UNL     1       1.389   4.433  19.242  0.00  0.00    +0.000 A 
ENDBRANCH   6  14
BRANCH   1  22
ATOM     21  O   UNL     1       1.984   8.186  21.938  0.00  0.00    +0.000 OA
ATOM     22  C   UNL     1       1.131   8.151  21.053  0.00  0.00    +0.000 C 
ATOM     23  N   UNL     1      -0.151   8.603  21.245  0.00  0.00    +0.000 N 
ATOM     24  H   UNL     1      -0.858   8.512  20.529  0.00  0.00    +0.000 HD
BRANCH  23  25
ATOM     25  C   UNL     1      -0.576   9.170  22.508  0.00  0.00    +0.000 C 
BRANCH  25  26
ATOM     26  C   UNL     1      -0.694  10.671  22.417  0.00  0.00    +0.000 A 
ATOM     27  C   UNL     1      -1.613  11.360  23.240  0.00  0.00    +0.000 A 
ATOM     28  C   UNL     1      -1.768  12.747  23.145  0.00  0.00    +0.000 A 
ATOM     29  C   UNL     1      -0.987  13.417  22.229  0.00  0.00    +0.000 A 
ATOM     30  C   UNL     1      -0.073  12.760  21.441  0.00  0.00    +0.000 A 
ATOM     31  C   UNL     1       0.104  11.393  21.514  0.00  0.00    +0.000 A 
ATOM     32  O   UNL     1       0.592  13.602  20.606  0.00  0.00    +0.000 OA
ATOM     33  C   UNL     1      -0.041  14.857  20.927  0.00  0.00    +0.000 C 
ATOM     34  O   UNL     1      -1.015  14.755  21.987  0.00  0.00    +0.000 OA
ENDBRANCH  25  26
ENDBRANCH  23  25
ENDBRANCH   1  22
TORSDOF 5
ENDMDL
MODEL 6
REMARK VINA RESULT:      -9.2      1.738      2.179
REMARK  Name = 
REMARK  5 active torsions:
REMARK  status: ('A' for Active; 'I' for Inactive)
REMARK    1  A    between atoms: C_2  and  C_14
REMARK    2  A    between atoms: N_3  and  C_4
REMARK    3  A    between atoms: C_4  and  C_5
REMARK    4  A    between atoms: N_18  and  C_19
REMARK    5  A    between atoms: C_26  and  C_27
REMARK                            x       y       z     vdW  Elec       q    Type
REMARK                         _______ _______ _______ _____ _____    ______ ____
ROOT
ATOM      1  C   UNL     1       0.782   8.905  20.262  0.00  0.00    +0.000 C 
ATOM      2  C   UNL     1       1.234   8.640  21.689  0.00  0.00    +0.000 C 
ATOM      3  C   UNL     1       0.490   9.680  22.489  0.00  0.00    +0.000 C 
ATOM      4  O   UNL     1       0.422   9.664  23.708  0.00  0.00    +0.000 OA
ATOM      5  N   UNL     1       0.027  10.666  21.611  0.00  0.00    +0.000 N 
ATOM      6  C   UNL     1       0.446  10.399  20.246  0.00  0.00    +0.000 C 
ENDROOT
BRANCH   5   7
ATOM      7  C   UNL     1      -0.438  11.925  22.068  0.00  0.00    +0.000 A 
ATOM      8  C   UNL     1       0.260  13.105  21.781  0.00  0.00    +0.000 A 
ATOM      9  C   UNL     1      -0.197  14.337  22.257  0.00  0.00    +0.000 A 
ATOM     10  C   UNL     1      -1.380  14.406  22.988  0.00  0.00    +0.000 A 
ATOM     11  C   UNL     1      -2.090  13.239  23.259  0.00  0.00    +0.000 A 
ATOM     12 CL   UNL     1      -3.575  13.330  24.124  0.00  0.00    +0.000 Cl
ATOM     13  C   UNL     1      -1.615  12.001  22.821  0.00  0.00    +0.000 A 
ENDBRANCH   5   7
BRANCH   6  14
ATOM     14  C   UNL     1      -0.610  10.731  19.204  0.00  0.00    +0.000 A 
ATOM     15  C   UNL     1      -0.625  11.966  18.530  0.00  0.00    +0.000 A 
ATOM     16  C   UNL     1      -1.614  12.260  17.586  0.00  0.00    +0.000 A 
ATOM     17  C   UNL     1      -2.592  11.313  17.291  0.00  0.00    +0.000 A 
ATOM     18  C   UNL     1      -2.577  10.092  17.947  0.00  0.00    +0.000 A 
ATOM     19  F   UNL     1      -3.514   9.179  17.658  0.00  0.00    +0.000 F 
ATOM     20  C   UNL     1      -1.610   9.795  18.903  0.00  0.00    +0.000 A 
ENDBRANCH   6  14
BRANCH   1  22
ATOM     21  O   UNL     1       2.101   9.318  18.320  0.00  0.00    +0.000 OA
ATOM     22  C   UNL     1       1.801   8.524  19.209  0.00  0.00    +0.000 C 
ATOM     23  N   UNL     1       2.347   7.267  19.291  0.00  0.00    +0.000 N 
ATOM     24  H   UNL     1       2.047   6.603  19.991  0.00  0.00    +0.000 HD
BRANCH  23  25
ATOM     25  C   UNL     1       3.331   6.802  18.336  0.00  0.00    +0.000 C 
BRANCH  25  26
ATOM     26  C   UNL     1       3.430   5.297  18.349  0.00  0.00    +0.000 A 
ATOM     27  C   UNL     1       2.662   4.529  17.444  0.00  0.00    +0.000 A 
ATOM     28  C   UNL     1       2.708   3.131  17.464  0.00  0.00    +0.000 A 
ATOM     29  C   UNL     1       3.533   2.531  18.391  0.00  0.00    +0.000 A 
ATOM     30  C   UNL     1       4.301   3.268  19.258  0.00  0.00    +0.000 A 
ATOM     31  C   UNL     1       4.280   4.648  19.260  0.00  0.00    +0.000 A 
ATOM     32  O   UNL     1       5.041   2.486  20.089  0.00  0.00    +0.000 OA
ATOM     33  C   UNL     1       4.615   1.172  19.674  0.00  0.00    +0.000 C 
ATOM     34  O   UNL     1       3.689   1.192  18.567  0.00  0.00    +0.000 OA
ENDBRANCH  25  26
ENDBRANCH  23  25
ENDBRANCH   1  22
TORSDOF 5
ENDMDL
MODEL 7
REMARK VINA RESULT:      -9.2      3.957      9.697
REMARK  Name = 
REMARK  5 active torsions:
REMARK  status: ('A' for Active; 'I' for Inactive)
REMARK    1  A    between atoms: C_2  and  C_14
REMARK    2  A    between atoms: N_3  and  C_4
REMARK    3  A    between atoms: C_4  and  C_5
REMARK    4  A    between atoms: N_18  and  C_19
REMARK    5  A    between atoms: C_26  and  C_27
REMARK                            x       y       z     vdW  Elec       q    Type
REMARK                         _______ _______ _______ _____ _____    ______ ____
ROOT
ATOM      1  C   UNL     1       1.470   7.572  19.669  0.00  0.00    +0.000 C 
ATOM      2  C   UNL     1       1.920   8.604  18.647  0.00  0.00    +0.000 C 
ATOM      3  C   UNL     1       2.845   7.824  17.746  0.00  0.00    +0.000 C 
ATOM      4  O   UNL     1       3.250   8.247  16.675  0.00  0.00    +0.000 OA
ATOM      5  N   UNL     1       3.212   6.645  18.405  0.00  0.00    +0.000 N 
ATOM      6  C   UNL     1       2.634   6.578  19.735  0.00  0.00    +0.000 C 
ENDROOT
BRANCH   5   7
ATOM      7  C   UNL     1       4.299   5.845  17.970  0.00  0.00    +0.000 A 
ATOM      8  C   UNL     1       4.161   4.951  16.900  0.00  0.00    +0.000 A 
ATOM      9  C   UNL     1       5.233   4.152  16.496  0.00  0.00    +0.000 A 
ATOM     10  C   UNL     1       6.467   4.269  17.130  0.00  0.00    +0.000 A 
ATOM     11  C   UNL     1       6.617   5.171  18.181  0.00  0.00    +0.000 A 
ATOM     12 CL   UNL     1       8.154   5.347  18.935  0.00  0.00    +0.000 Cl
ATOM     13  C   UNL     1       5.537   5.941  18.616  0.00  0.00    +0.000 A 
ENDBRANCH   5   7
BRANCH   6  14
ATOM     14  C   UNL     1       2.168   5.187  20.134  0.00  0.00    +0.000 A 
ATOM     15  C   UNL     1       2.494   4.624  21.381  0.00  0.00    +0.000 A 
ATOM     16  C   UNL     1       2.070   3.337  21.724  0.00  0.00    +0.000 A 
ATOM     17  C   UNL     1       1.298   2.601  20.828  0.00  0.00    +0.000 A 
ATOM     18  C   UNL     1       0.968   3.154  19.600  0.00  0.00    +0.000 A 
ATOM     19  F   UNL     1       0.221   2.448  18.741  0.00  0.00    +0.000 F 
ATOM     20  C   UNL     1       1.401   4.426  19.239  0.00  0.00    +0.000 A 
ENDBRANCH   6  14
BRANCH   1  22
ATOM     21  O   UNL     1       1.944   8.147  21.933  0.00  0.00    +0.000 OA
ATOM     22  C   UNL     1       1.119   8.153  21.022  0.00  0.00    +0.000 C 
ATOM     23  N   UNL     1      -0.147   8.660  21.176  0.00  0.00    +0.000 N 
ATOM     24  H   UNL     1      -0.835   8.603  20.439  0.00  0.00    +0.000 HD
BRANCH  23  25
ATOM     25  C   UNL     1      -0.587   9.239  22.429  0.00  0.00    +0.000 C 
BRANCH  25  26
ATOM     26  C   UNL     1      -0.630  10.744  22.345  0.00  0.00    +0.000 A 
ATOM     27  C   UNL     1       0.186  11.425  21.413  0.00  0.00    +0.000 A 
ATOM     28  C   UNL     1       0.192  12.822  21.345  0.00  0.00    +0.000 A 
ATOM     29  C   UNL     1      -0.631  13.509  22.212  0.00  0.00    +0.000 A 
ATOM     30  C   UNL     1      -1.446  12.856  23.104  0.00  0.00    +0.000 A 
ATOM     31  C   UNL     1      -1.476  11.478  23.193  0.00  0.00    +0.000 A 
ATOM     32  O   UNL     1      -2.174  13.715  23.866  0.00  0.00    +0.000 OA
ATOM     33  C   UNL     1      -1.691  14.984  23.380  0.00  0.00    +0.000 C 
ATOM     34  O   UNL     1      -0.741  14.861  22.300  0.00  0.00    +0.000 OA
ENDBRANCH  25  26
ENDBRANCH  23  25
ENDBRANCH   1  22
TORSDOF 5
ENDMDL
MODEL 8
REMARK VINA RESULT:      -9.2      3.997      9.738
REMARK  Name = 
REMARK  5 active torsions:
REMARK  status: ('A' for Active; 'I' for Inactive)
REMARK    1  A    between atoms: C_2  and  C_14
REMARK    2  A    between atoms: N_3  and  C_4
REMARK    3  A    between atoms: C_4  and  C_5
REMARK    4  A    between atoms: N_18  and  C_19
REMARK    5  A    between atoms: C_26  and  C_27
REMARK                            x       y       z     vdW  Elec       q    Type
REMARK                         _______ _______ _______ _____ _____    ______ ____
ROOT
ATOM      1  C   UNL     1       1.418   7.411  19.532  0.00  0.00    +0.000 C 
ATOM      2  C   UNL     1       1.933   8.481  18.583  0.00  0.00    +0.000 C 
ATOM      3  C   UNL     1       3.006   7.766  17.799  0.00  0.00    +0.000 C 
ATOM      4  O   UNL     1       3.517   8.226  16.790  0.00  0.00    +0.000 OA
ATOM      5  N   UNL     1       3.354   6.600  18.490  0.00  0.00    +0.000 N 
ATOM      6  C   UNL     1       2.619   6.482  19.737  0.00  0.00    +0.000 C 
ENDROOT
BRANCH   5   7
ATOM      7  C   UNL     1       4.530   5.867  18.189  0.00  0.00    +0.000 A 
ATOM      8  C   UNL     1       5.569   5.746  19.121  0.00  0.00    +0.000 A 
ATOM      9  C   UNL     1       6.733   5.040  18.804  0.00  0.00    +0.000 A 
ATOM     10  C   UNL     1       6.852   4.413  17.566  0.00  0.00    +0.000 A 
ATOM     11  C   UNL     1       5.813   4.513  16.642  0.00  0.00    +0.000 A 
ATOM     12 CL   UNL     1       5.942   3.701  15.130  0.00  0.00    +0.000 Cl
ATOM     13  C   UNL     1       4.667   5.251  16.939  0.00  0.00    +0.000 A 
ENDBRANCH   5   7
BRANCH   6  14
ATOM     14  C   UNL     1       2.186   5.062  20.063  0.00  0.00    +0.000 A 
ATOM     15  C   UNL     1       2.498   4.455  21.294  0.00  0.00    +0.000 A 
ATOM     16  C   UNL     1       2.105   3.143  21.571  0.00  0.00    +0.000 A 
ATOM     17  C   UNL     1       1.379   2.423  20.624  0.00  0.00    +0.000 A 
ATOM     18  C   UNL     1       1.064   3.018  19.412  0.00  0.00    +0.000 A 
ATOM     19  F   UNL     1       0.361   2.328  18.504  0.00  0.00    +0.000 F 
ATOM     20  C   UNL     1       1.466   4.318  19.117  0.00  0.00    +0.000 A 
ENDBRANCH   6  14
BRANCH   1  22
ATOM     21  O   UNL     1      -0.112   7.429  21.359  0.00  0.00    +0.000 OA
ATOM     22  C   UNL     1       0.869   7.952  20.835  0.00  0.00    +0.000 C 
ATOM     23  N   UNL     1       1.502   9.042  21.378  0.00  0.00    +0.000 N 
ATOM     24  H   UNL     1       2.269   9.499  20.905  0.00  0.00    +0.000 HD
BRANCH  23  25
ATOM     25  C   UNL     1       1.059   9.638  22.621  0.00  0.00    +0.000 C 
BRANCH  25  26
ATOM     26  C   UNL     1      -0.044  10.637  22.380  0.00  0.00    +0.000 A 
ATOM     27  C   UNL     1       0.046  11.547  21.301  0.00  0.00    +0.000 A 
ATOM     28  C   UNL     1      -0.945  12.508  21.083  0.00  0.00    +0.000 A 
ATOM     29  C   UNL     1      -2.017  12.531  21.949  0.00  0.00    +0.000 A 
ATOM     30  C   UNL     1      -2.127  11.636  22.986  0.00  0.00    +0.000 A 
ATOM     31  C   UNL     1      -1.166  10.675  23.225  0.00  0.00    +0.000 A 
ATOM     32  O   UNL     1      -3.255  11.829  23.720  0.00  0.00    +0.000 OA
ATOM     33  C   UNL     1      -3.819  12.978  23.053  0.00  0.00    +0.000 C 
ATOM     34  O   UNL     1      -3.060  13.403  21.902  0.00  0.00    +0.000 OA
ENDBRANCH  25  26
ENDBRANCH  23  25
ENDBRANCH   1  22
TORSDOF 5
ENDMDL
MODEL 9
REMARK VINA RESULT:      -9.2      0.826      1.171
REMARK  Name = 
REMARK  5 active torsions:
REMARK  status: ('A' for Active; 'I' for Inactive)
REMARK    1  A    between atoms: C_2  and  C_14
REMARK    2  A    between atoms: N_3  and  C_4
REMARK    3  A    between atoms: C_4  and  C_5
REMARK    4  A    between atoms: N_18  and  C_19
REMARK    5  A    between atoms: C_26  and  C_27
REMARK                            x       y       z     vdW  Elec       q    Type
REMARK                         _______ _______ _______ _____ _____    ______ ____
ROOT
ATOM      1  C   UNL     1       0.407   9.435  20.313  0.00  0.00    +0.000 C 
ATOM      2  C   UNL     1       1.072   9.139  21.647  0.00  0.00    +0.000 C 
ATOM      3  C   UNL     1       0.224   9.899  22.637  0.00  0.00    +0.000 C 
ATOM      4  O   UNL     1       0.307   9.747  23.845  0.00  0.00    +0.000 OA
ATOM      5  N   UNL     1      -0.540  10.838  21.934  0.00  0.00    +0.000 N 
ATOM      6  C   UNL     1      -0.240  10.810  20.513  0.00  0.00    +0.000 C 
ENDROOT
BRANCH   5   7
ATOM      7  C   UNL     1      -1.205  11.908  22.584  0.00  0.00    +0.000 A 
ATOM      8  C   UNL     1      -0.669  13.202  22.588  0.00  0.00    +0.000 A 
ATOM      9  C   UNL     1      -1.323  14.243  23.253  0.00  0.00    +0.000 A 
ATOM     10  C   UNL     1      -2.542  14.009  23.884  0.00  0.00    +0.000 A 
ATOM     11  C   UNL     1      -3.091  12.729  23.865  0.00  0.00    +0.000 A 
ATOM     12 CL   UNL     1      -4.619  12.451  24.607  0.00  0.00    +0.000 Cl
ATOM     13  C   UNL     1      -2.421  11.677  23.239  0.00  0.00    +0.000 A 
ENDBRANCH   5   7
BRANCH   6  14
ATOM     14  C   UNL     1      -1.458  10.997  19.624  0.00  0.00    +0.000 A 
ATOM     15  C   UNL     1      -1.683  10.190  18.494  0.00  0.00    +0.000 A 
ATOM     16  C   UNL     1      -2.801  10.387  17.678  0.00  0.00    +0.000 A 
ATOM     17  C   UNL     1      -3.720  11.385  17.994  0.00  0.00    +0.000 A 
ATOM     18  C   UNL     1      -3.507  12.179  19.110  0.00  0.00    +0.000 A 
ATOM     19  F   UNL     1      -4.394  13.135  19.416  0.00  0.00    +0.000 F 
ATOM     20  C   UNL     1      -2.387  12.006  19.918  0.00  0.00    +0.000 A 
ENDBRANCH   6  14
BRANCH   1  22
ATOM     21  O   UNL     1       1.694  10.445  18.579  0.00  0.00    +0.000 OA
ATOM     22  C   UNL     1       1.351   9.401  19.129  0.00  0.00    +0.000 C 
ATOM     23  N   UNL     1       1.780   8.167  18.707  0.00  0.00    +0.000 N 
ATOM     24  H   UNL     1       1.443   7.315  19.130  0.00  0.00    +0.000 HD
BRANCH  23  25
ATOM     25  C   UNL     1       2.684   8.020  17.585  0.00  0.00    +0.000 C 
BRANCH  25  26
ATOM     26  C   UNL     1       3.731   6.971  17.866  0.00  0.00    +0.000 A 
ATOM     27  C   UNL     1       3.578   6.094  18.964  0.00  0.00    +0.000 A 
ATOM     28  C   UNL     1       4.554   5.140  19.266  0.00  0.00    +0.000 A 
ATOM     29  C   UNL     1       5.664   5.079  18.452  0.00  0.00    +0.000 A 
ATOM     30  C   UNL     1       5.811   5.911  17.369  0.00  0.00    +0.000 A 
ATOM     31  C   UNL     1       4.864   6.860  17.043  0.00  0.00    +0.000 A 
ATOM     32  O   UNL     1       6.974   5.690  16.700  0.00  0.00    +0.000 OA
ATOM     33  C   UNL     1       7.563   4.655  17.514  0.00  0.00    +0.000 C 
ATOM     34  O   UNL     1       6.717   4.232  18.605  0.00  0.00    +0.000 OA
ENDBRANCH  25  26
ENDBRANCH  23  25
ENDBRANCH   1  22
TORSDOF 5
ENDMDL
