MODEL 1
REMARK VINA RESULT:      -8.7      0.000      0.000
REMARK  Name = 
REMARK  8 active torsions:
REMARK  status: ('A' for Active; 'I' for Inactive)
REMARK    1  A    between atoms: C_1  and  C_2
REMARK    2  A    between atoms: C_5  and  N_6
REMARK    3  A    between atoms: C_7  and  C_9
REMARK    4  A    between atoms: C_9  and  C_10
REMARK    5  A    between atoms: C_10  and  C_11
REMARK    6  A    between atoms: C_13  and  O_14
REMARK    7  A    between atoms: C_23  and  S_24
REMARK    8  A    between atoms: S_24  and  N_27
REMARK                            x       y       z     vdW  Elec       q    Type
REMARK                         _______ _______ _______ _____ _____    ______ ____
ROOT
ATOM      1  N   UNL     1       2.669   5.550  20.301  0.00  0.00    +0.000 N 
ATOM      2  C   UNL     1       2.133   4.337  19.917  0.00  0.00    +0.000 C 
ATOM      3  O   UNL     1       1.219   4.203  19.107  0.00  0.00    +0.000 OA
ATOM      4  H   UNL     1       3.115   5.608  21.208  0.00  0.00    +0.000 HD
ENDROOT
BRANCH   1   9
ATOM      5  C   UNL     1       2.230  10.614  17.724  0.00  0.00    +0.000 C 
ATOM      6  C   UNL     1       2.159   9.248  18.342  0.00  0.00    +0.000 A 
ATOM      7  C   UNL     1       2.916   8.225  17.749  0.00  0.00    +0.000 A 
ATOM      8  C   UNL     1       3.035   6.979  18.360  0.00  0.00    +0.000 A 
ATOM      9  C   UNL     1       2.441   6.746  19.601  0.00  0.00    +0.000 A 
ATOM     10  C   UNL     1       1.654   7.735  20.192  0.00  0.00    +0.000 A 
ATOM     11  C   UNL     1       1.476   8.967  19.543  0.00  0.00    +0.000 A 
BRANCH  11  12
ATOM     12  S   UNL     1       0.260  10.101  20.217  0.00  0.00    +0.000 S 
ATOM     13  O   UNL     1      -0.739   9.298  20.888  0.00  0.00    +0.000 OA
ATOM     14  O   UNL     1       0.966  11.149  20.923  0.00  0.00    +0.000 OA
BRANCH  12  15
ATOM     15  N   UNL     1      -0.410  10.788  18.830  0.00  0.00    +0.000 NA
ATOM     16  C   UNL     1      -0.932  12.175  18.936  0.00  0.00    +0.000 C 
ATOM     17  C   UNL     1      -2.426  12.158  19.272  0.00  0.00    +0.000 C 
ATOM     18  O   UNL     1      -3.153  11.463  18.248  0.00  0.00    +0.000 OA
ATOM     19  C   UNL     1      -2.740  10.092  18.166  0.00  0.00    +0.000 C 
ATOM     20  C   UNL     1      -1.233   9.937  17.929  0.00  0.00    +0.000 C 
ENDBRANCH  12  15
ENDBRANCH  11  12
ENDBRANCH   1   9
BRANCH   2  21
ATOM     21  C   UNL     1       2.754   3.161  20.626  0.00  0.00    +0.000 C 
BRANCH  21  22
ATOM     22  C   UNL     1       3.566   2.369  19.612  0.00  0.00    +0.000 C 
BRANCH  22  23
ATOM     23  C   UNL     1       4.434   3.267  18.795  0.00  0.00    +0.000 A 
ATOM     24  N   UNL     1       4.206   3.312  17.474  0.00  0.00    +0.000 NA
ATOM     25  C   UNL     1       4.961   4.182  16.807  0.00  0.00    +0.000 A 
ATOM     26  C   UNL     1       5.925   5.005  17.358  0.00  0.00    +0.000 A 
ATOM     27  C   UNL     1       6.697   5.954  16.647  0.00  0.00    +0.000 A 
ATOM     28  C   UNL     1       7.635   6.733  17.312  0.00  0.00    +0.000 A 
ATOM     29  C   UNL     1       7.821   6.563  18.681  0.00  0.00    +0.000 A 
ATOM     30  C   UNL     1       7.056   5.621  19.377  0.00  0.00    +0.000 A 
ATOM     31  C   UNL     1       6.099   4.843  18.737  0.00  0.00    +0.000 A 
ATOM     32  N   UNL     1       5.372   3.973  19.449  0.00  0.00    +0.000 NA
BRANCH  25  33
ATOM     33  O   UNL     1       4.677   4.213  15.476  0.00  0.00    +0.000 OA
ATOM     34  H   UNL     1       3.946   3.567  15.438  0.00  0.00    +0.000 HD
ENDBRANCH  25  33
ENDBRANCH  22  23
ENDBRANCH  21  22
ENDBRANCH   2  21
TORSDOF 7
ENDMDL
MODEL 2
REMARK VINA RESULT:      -8.6      2.774      9.109
REMARK  Name = 
REMARK  8 active torsions:
REMARK  status: ('A' for Active; 'I' for Inactive)
REMARK    1  A    between atoms: C_1  and  C_2
REMARK    2  A    between atoms: C_5  and  N_6
REMARK    3  A    between atoms: C_7  and  C_9
REMARK    4  A    between atoms: C_9  and  C_10
REMARK    5  A    between atoms: C_10  and  C_11
REMARK    6  A    between atoms: C_13  and  O_14
REMARK    7  A    between atoms: C_23  and  S_24
REMARK    8  A    between atoms: S_24  and  N_27
REMARK                            x       y       z     vdW  Elec       q    Type
REMARK                         _______ _______ _______ _____ _____    ______ ____
ROOT
ATOM      1  N   UNL     1       1.930   8.152  19.618  0.00  0.00    +0.000 N 
ATOM      2  C   UNL     1       1.924   8.800  18.400  0.00  0.00    +0.000 C 
ATOM      3  O   UNL     1       2.366   8.328  17.355  0.00  0.00    +0.000 OA
ATOM      4  H   UNL     1       1.917   8.716  20.458  0.00  0.00    +0.000 HD
ENDROOT
BRANCH   1   9
ATOM      5  C   UNL     1       3.232   2.697  20.637  0.00  0.00    +0.000 C 
ATOM      6  C   UNL     1       2.823   4.071  20.192  0.00  0.00    +0.000 A 
ATOM      7  C   UNL     1       1.702   4.648  20.807  0.00  0.00    +0.000 A 
ATOM      8  C   UNL     1       1.364   5.979  20.570  0.00  0.00    +0.000 A 
ATOM      9  C   UNL     1       2.169   6.774  19.753  0.00  0.00    +0.000 A 
ATOM     10  C   UNL     1       3.267   6.212  19.102  0.00  0.00    +0.000 A 
ATOM     11  C   UNL     1       3.569   4.853  19.285  0.00  0.00    +0.000 A 
BRANCH  11  12
ATOM     12  S   UNL     1       4.829   4.125  18.235  0.00  0.00    +0.000 S 
ATOM     13  O   UNL     1       6.003   3.930  19.058  0.00  0.00    +0.000 OA
ATOM     14  O   UNL     1       4.232   3.016  17.520  0.00  0.00    +0.000 OA
BRANCH  12  15
ATOM     15  N   UNL     1       5.125   5.349  17.114  0.00  0.00    +0.000 NA
ATOM     16  C   UNL     1       5.362   4.945  15.704  0.00  0.00    +0.000 C 
ATOM     17  C   UNL     1       6.862   4.772  15.445  0.00  0.00    +0.000 C 
ATOM     18  O   UNL     1       7.551   6.005  15.698  0.00  0.00    +0.000 OA
ATOM     19  C   UNL     1       7.419   6.393  17.072  0.00  0.00    +0.000 C 
ATOM     20  C   UNL     1       5.957   6.514  17.520  0.00  0.00    +0.000 C 
ENDBRANCH  12  15
ENDBRANCH  11  12
ENDBRANCH   1   9
BRANCH   2  21
ATOM     21  C   UNL     1       1.349  10.191  18.469  0.00  0.00    +0.000 C 
BRANCH  21  22
ATOM     22  C   UNL     1      -0.152  10.076  18.687  0.00  0.00    +0.000 C 
BRANCH  22  23
ATOM     23  C   UNL     1      -0.570  10.766  19.943  0.00  0.00    +0.000 A 
ATOM     24  N   UNL     1      -0.187  10.217  21.106  0.00  0.00    +0.000 NA
ATOM     25  C   UNL     1      -0.527  10.912  22.189  0.00  0.00    +0.000 A 
ATOM     26  C   UNL     1      -1.219  12.109  22.199  0.00  0.00    +0.000 A 
ATOM     27  C   UNL     1      -1.542  12.860  23.353  0.00  0.00    +0.000 A 
ATOM     28  C   UNL     1      -2.238  14.056  23.237  0.00  0.00    +0.000 A 
ATOM     29  C   UNL     1      -2.628  14.503  21.978  0.00  0.00    +0.000 A 
ATOM     30  C   UNL     1      -2.307  13.754  20.841  0.00  0.00    +0.000 A 
ATOM     31  C   UNL     1      -1.596  12.564  20.930  0.00  0.00    +0.000 A 
ATOM     32  N   UNL     1      -1.289  11.894  19.813  0.00  0.00    +0.000 NA
BRANCH  25  33
ATOM     33  O   UNL     1      -0.095  10.332  23.343  0.00  0.00    +0.000 OA
ATOM     34  H   UNL     1       0.011   9.408  23.045  0.00  0.00    +0.000 HD
ENDBRANCH  25  33
ENDBRANCH  22  23
ENDBRANCH  21  22
ENDBRANCH   2  21
TORSDOF 7
ENDMDL
MODEL 3
REMARK VINA RESULT:      -8.3      2.526      9.234
REMARK  Name = 
REMARK  8 active torsions:
REMARK  status: ('A' for Active; 'I' for Inactive)
REMARK    1  A    between atoms: C_1  and  C_2
REMARK    2  A    between atoms: C_5  and  N_6
REMARK    3  A    between atoms: C_7  and  C_9
REMARK    4  A    between atoms: C_9  and  C_10
REMARK    5  A    between atoms: C_10  and  C_11
REMARK    6  A    between atoms: C_13  and  O_14
REMARK    7  A    between atoms: C_23  and  S_24
REMARK    8  A    between atoms: S_24  and  N_27
REMARK                            x       y       z     vdW  Elec       q    Type
REMARK                         _______ _______ _______ _____ _____    ______ ____
ROOT
ATOM      1  N   UNL     1       1.829   8.061  19.691  0.00  0.00    +0.000 N 
ATOM      2  C   UNL     1       1.940   8.740  18.495  0.00  0.00    +0.000 C 
ATOM      3  O   UNL     1       2.516   8.309  17.498  0.00  0.00    +0.000 OA
ATOM      4  H   UNL     1       1.699   8.603  20.537  0.00  0.00    +0.000 HD
ENDROOT
BRANCH   1   9
ATOM      5  C   UNL     1       3.251   2.634  20.700  0.00  0.00    +0.000 C 
ATOM      6  C   UNL     1       2.813   4.000  20.257  0.00  0.00    +0.000 A 
ATOM      7  C   UNL     1       1.677   4.550  20.870  0.00  0.00    +0.000 A 
ATOM      8  C   UNL     1       1.309   5.874  20.636  0.00  0.00    +0.000 A 
ATOM      9  C   UNL     1       2.099   6.689  19.823  0.00  0.00    +0.000 A 
ATOM     10  C   UNL     1       3.211   6.154  19.175  0.00  0.00    +0.000 A 
ATOM     11  C   UNL     1       3.543   4.801  19.354  0.00  0.00    +0.000 A 
BRANCH  11  12
ATOM     12  S   UNL     1       4.822   4.105  18.306  0.00  0.00    +0.000 S 
ATOM     13  O   UNL     1       5.999   3.938  19.132  0.00  0.00    +0.000 OA
ATOM     14  O   UNL     1       4.254   2.983  17.590  0.00  0.00    +0.000 OA
BRANCH  12  15
ATOM     15  N   UNL     1       5.090   5.337  17.186  0.00  0.00    +0.000 NA
ATOM     16  C   UNL     1       5.343   4.940  15.777  0.00  0.00    +0.000 C 
ATOM     17  C   UNL     1       6.847   4.805  15.523  0.00  0.00    +0.000 C 
ATOM     18  O   UNL     1       7.504   6.056  15.779  0.00  0.00    +0.000 OA
ATOM     19  C   UNL     1       7.357   6.439  17.153  0.00  0.00    +0.000 C 
ATOM     20  C   UNL     1       5.891   6.522  17.596  0.00  0.00    +0.000 C 
ENDBRANCH  12  15
ENDBRANCH  11  12
ENDBRANCH   1   9
BRANCH   2  21
ATOM     21  C   UNL     1       1.313  10.110  18.527  0.00  0.00    +0.000 C 
BRANCH  21  22
ATOM     22  C   UNL     1       0.936  10.426  19.967  0.00  0.00    +0.000 C 
BRANCH  22  23
ATOM     23  C   UNL     1      -0.371  11.146  20.036  0.00  0.00    +0.000 A 
ATOM     24  N   UNL     1      -0.997  11.402  18.878  0.00  0.00    +0.000 NA
ATOM     25  C   UNL     1      -2.189  11.981  19.005  0.00  0.00    +0.000 A 
ATOM     26  C   UNL     1      -2.800  12.323  20.197  0.00  0.00    +0.000 A 
ATOM     27  C   UNL     1      -4.084  12.903  20.324  0.00  0.00    +0.000 A 
ATOM     28  C   UNL     1      -4.597  13.199  21.580  0.00  0.00    +0.000 A 
ATOM     29  C   UNL     1      -3.833  12.934  22.712  0.00  0.00    +0.000 A 
ATOM     30  C   UNL     1      -2.563  12.362  22.579  0.00  0.00    +0.000 A 
ATOM     31  C   UNL     1      -2.036  12.041  21.335  0.00  0.00    +0.000 A 
ATOM     32  N   UNL     1      -0.827  11.471  21.258  0.00  0.00    +0.000 NA
BRANCH  25  33
ATOM     33  O   UNL     1      -2.799  12.198  17.807  0.00  0.00    +0.000 OA
ATOM     34  H   UNL     1      -3.539  11.564  17.870  0.00  0.00    +0.000 HD
ENDBRANCH  25  33
ENDBRANCH  22  23
ENDBRANCH  21  22
ENDBRANCH   2  21
TORSDOF 7
ENDMDL
MODEL 4
REMARK VINA RESULT:      -8.3      1.515      2.074
REMARK  Name = 
REMARK  8 active torsions:
REMARK  status: ('A' for Active; 'I' for Inactive)
REMARK    1  A    between atoms: C_1  and  C_2
REMARK    2  A    between atoms: C_5  and  N_6
REMARK    3  A    between atoms: C_7  and  C_9
REMARK    4  A    between atoms: C_9  and  C_10
REMARK    5  A    between atoms: C_10  and  C_11
REMARK    6  A    between atoms: C_13  and  O_14
REMARK    7  A    between atoms: C_23  and  S_24
REMARK    8  A    between atoms: S_24  and  N_27
REMARK                            x       y       z     vdW  Elec       q    Type
REMARK                         _______ _______ _______ _____ _____    ______ ____
ROOT
ATOM      1  N   UNL     1       2.772   5.447  20.317  0.00  0.00    +0.000 N 
ATOM      2  C   UNL     1       2.218   4.221  20.009  0.00  0.00    +0.000 C 
ATOM      3  O   UNL     1       1.237   4.060  19.287  0.00  0.00    +0.000 OA
ATOM      4  H   UNL     1       3.296   5.530  21.179  0.00  0.00    +0.000 HD
ENDROOT
BRANCH   1   9
ATOM      5  C   UNL     1       1.980  10.483  17.769  0.00  0.00    +0.000 C 
ATOM      6  C   UNL     1       2.012   9.105  18.364  0.00  0.00    +0.000 A 
ATOM      7  C   UNL     1       2.920   8.183  17.822  0.00  0.00    +0.000 A 
ATOM      8  C   UNL     1       3.128   6.945  18.426  0.00  0.00    +0.000 A 
ATOM      9  C   UNL     1       2.468   6.625  19.614  0.00  0.00    +0.000 A 
ATOM     10  C   UNL     1       1.534   7.510  20.151  0.00  0.00    +0.000 A 
ATOM     11  C   UNL     1       1.272   8.728  19.504  0.00  0.00    +0.000 A 
BRANCH  11  12
ATOM     12  S   UNL     1      -0.110   9.709  20.091  0.00  0.00    +0.000 S 
ATOM     13  O   UNL     1      -0.458  10.627  19.029  0.00  0.00    +0.000 OA
ATOM     14  O   UNL     1      -1.098   8.806  20.644  0.00  0.00    +0.000 OA
BRANCH  12  15
ATOM     15  N   UNL     1       0.567  10.566  21.376  0.00  0.00    +0.000 NA
ATOM     16  C   UNL     1       0.052  10.279  22.740  0.00  0.00    +0.000 C 
ATOM     17  C   UNL     1      -1.080  11.247  23.097  0.00  0.00    +0.000 C 
ATOM     18  O   UNL     1      -0.602  12.599  23.055  0.00  0.00    +0.000 OA
ATOM     19  C   UNL     1      -0.170  12.950  21.733  0.00  0.00    +0.000 C 
ATOM     20  C   UNL     1       0.905  12.003  21.187  0.00  0.00    +0.000 C 
ENDBRANCH  12  15
ENDBRANCH  11  12
ENDBRANCH   1   9
BRANCH   2  21
ATOM     21  C   UNL     1       2.912   3.067  20.685  0.00  0.00    +0.000 C 
BRANCH  21  22
ATOM     22  C   UNL     1       3.701   2.304  19.631  0.00  0.00    +0.000 C 
BRANCH  22  23
ATOM     23  C   UNL     1       4.536   3.228  18.807  0.00  0.00    +0.000 A 
ATOM     24  N   UNL     1       4.292   3.270  17.488  0.00  0.00    +0.000 NA
ATOM     25  C   UNL     1       5.016   4.162  16.816  0.00  0.00    +0.000 A 
ATOM     26  C   UNL     1       5.963   5.010  17.359  0.00  0.00    +0.000 A 
ATOM     27  C   UNL     1       6.701   5.982  16.642  0.00  0.00    +0.000 A 
ATOM     28  C   UNL     1       7.624   6.784  17.299  0.00  0.00    +0.000 A 
ATOM     29  C   UNL     1       7.829   6.616  18.665  0.00  0.00    +0.000 A 
ATOM     30  C   UNL     1       7.098   5.652  19.367  0.00  0.00    +0.000 A 
ATOM     31  C   UNL     1       6.156   4.849  18.735  0.00  0.00    +0.000 A 
ATOM     32  N   UNL     1       5.461   3.958  19.453  0.00  0.00    +0.000 NA
BRANCH  25  33
ATOM     33  O   UNL     1       4.717   4.188  15.488  0.00  0.00    +0.000 OA
ATOM     34  H   UNL     1       4.754   3.234  15.281  0.00  0.00    +0.000 HD
ENDBRANCH  25  33
ENDBRANCH  22  23
ENDBRANCH  21  22
ENDBRANCH   2  21
TORSDOF 7
ENDMDL
MODEL 5
REMARK VINA RESULT:      -8.2      2.282      8.985
REMARK  Name = 
REMARK  8 active torsions:
REMARK  status: ('A' for Active; 'I' for Inactive)
REMARK    1  A    between atoms: C_1  and  C_2
REMARK    2  A    between atoms: C_5  and  N_6
REMARK    3  A    between atoms: C_7  and  C_9
REMARK    4  A    between atoms: C_9  and  C_10
REMARK    5  A    between atoms: C_10  and  C_11
REMARK    6  A    between atoms: C_13  and  O_14
REMARK    7  A    between atoms: C_23  and  S_24
REMARK    8  A    between atoms: S_24  and  N_27
REMARK                            x       y       z     vdW  Elec       q    Type
REMARK                         _______ _______ _______ _____ _____    ______ ____
ROOT
ATOM      1  N   UNL     1       1.824   8.088  19.778  0.00  0.00    +0.000 N 
ATOM      2  C   UNL     1       0.978   8.755  20.640  0.00  0.00    +0.000 C 
ATOM      3  O   UNL     1       0.188   8.207  21.405  0.00  0.00    +0.000 OA
ATOM      4  H   UNL     1       2.139   8.574  18.947  0.00  0.00    +0.000 HD
ENDROOT
BRANCH   1   9
ATOM      5  C   UNL     1       3.263   2.644  20.663  0.00  0.00    +0.000 C 
ATOM      6  C   UNL     1       2.819   4.018  20.252  0.00  0.00    +0.000 A 
ATOM      7  C   UNL     1       1.687   4.553  20.886  0.00  0.00    +0.000 A 
ATOM      8  C   UNL     1       1.316   5.881  20.682  0.00  0.00    +0.000 A 
ATOM      9  C   UNL     1       2.097   6.713  19.879  0.00  0.00    +0.000 A 
ATOM     10  C   UNL     1       3.205   6.194  19.211  0.00  0.00    +0.000 A 
ATOM     11  C   UNL     1       3.540   4.838  19.360  0.00  0.00    +0.000 A 
BRANCH  11  12
ATOM     12  S   UNL     1       4.812   4.166  18.288  0.00  0.00    +0.000 S 
ATOM     13  O   UNL     1       5.984   3.949  19.108  0.00  0.00    +0.000 OA
ATOM     14  O   UNL     1       4.229   3.082  17.525  0.00  0.00    +0.000 OA
BRANCH  12  15
ATOM     15  N   UNL     1       5.101   5.438  17.218  0.00  0.00    +0.000 NA
ATOM     16  C   UNL     1       5.318   5.096  15.789  0.00  0.00    +0.000 C 
ATOM     17  C   UNL     1       6.812   4.926  15.502  0.00  0.00    +0.000 C 
ATOM     18  O   UNL     1       7.512   6.143  15.801  0.00  0.00    +0.000 OA
ATOM     19  C   UNL     1       7.401   6.469  17.193  0.00  0.00    +0.000 C 
ATOM     20  C   UNL     1       5.945   6.578  17.665  0.00  0.00    +0.000 C 
ENDBRANCH  12  15
ENDBRANCH  11  12
ENDBRANCH   1   9
BRANCH   2  21
ATOM     21  C   UNL     1       1.078  10.254  20.531  0.00  0.00    +0.000 C 
BRANCH  21  22
ATOM     22  C   UNL     1       0.946  10.635  19.064  0.00  0.00    +0.000 C 
BRANCH  22  23
ATOM     23  C   UNL     1      -0.486  10.821  18.681  0.00  0.00    +0.000 A 
ATOM     24  N   UNL     1      -0.930  10.152  17.607  0.00  0.00    +0.000 NA
ATOM     25  C   UNL     1      -2.229  10.300  17.355  0.00  0.00    +0.000 A 
ATOM     26  C   UNL     1      -3.113  11.065  18.092  0.00  0.00    +0.000 A 
ATOM     27  C   UNL     1      -4.500  11.186  17.840  0.00  0.00    +0.000 A 
ATOM     28  C   UNL     1      -5.293  11.982  18.656  0.00  0.00    +0.000 A 
ATOM     29  C   UNL     1      -4.711  12.671  19.715  0.00  0.00    +0.000 A 
ATOM     30  C   UNL     1      -3.339  12.549  19.958  0.00  0.00    +0.000 A 
ATOM     31  C   UNL     1      -2.528  11.745  19.166  0.00  0.00    +0.000 A 
ATOM     32  N   UNL     1      -1.225  11.637  19.452  0.00  0.00    +0.000 NA
BRANCH  25  33
ATOM     33  O   UNL     1      -2.640   9.583  16.274  0.00  0.00    +0.000 OA
ATOM     34  H   UNL     1      -3.512   9.275  16.589  0.00  0.00    +0.000 HD
ENDBRANCH  25  33
ENDBRANCH  22  23
ENDBRANCH  21  22
ENDBRANCH   2  21
TORSDOF 7
ENDMDL
MODEL 6
REMARK VINA RESULT:      -8.1      2.901      9.136
REMARK  Name = 
REMARK  8 active torsions:
REMARK  status: ('A' for Active; 'I' for Inactive)
REMARK    1  A    between atoms: C_1  and  C_2
REMARK    2  A    between atoms: C_5  and  N_6
REMARK    3  A    between atoms: C_7  and  C_9
REMARK    4  A    between atoms: C_9  and  C_10
REMARK    5  A    between atoms: C_10  and  C_11
REMARK    6  A    between atoms: C_13  and  O_14
REMARK    7  A    between atoms: C_23  and  S_24
REMARK    8  A    between atoms: S_24  and  N_27
REMARK                            x       y       z     vdW  Elec       q    Type
REMARK                         _______ _______ _______ _____ _____    ______ ____
ROOT
ATOM      1  N   UNL     1       1.928   8.197  19.599  0.00  0.00    +0.000 N 
ATOM      2  C   UNL     1       1.948   8.838  18.377  0.00  0.00    +0.000 C 
ATOM      3  O   UNL     1       2.407   8.356  17.344  0.00  0.00    +0.000 OA
ATOM      4  H   UNL     1       1.902   8.767  20.436  0.00  0.00    +0.000 HD
ENDROOT
BRANCH   1   9
ATOM      5  C   UNL     1       3.182   2.741  20.672  0.00  0.00    +0.000 C 
ATOM      6  C   UNL     1       2.785   4.115  20.213  0.00  0.00    +0.000 A 
ATOM      7  C   UNL     1       1.668   4.707  20.821  0.00  0.00    +0.000 A 
ATOM      8  C   UNL     1       1.342   6.038  20.572  0.00  0.00    +0.000 A 
ATOM      9  C   UNL     1       2.155   6.819  19.748  0.00  0.00    +0.000 A 
ATOM     10  C   UNL     1       3.249   6.241  19.104  0.00  0.00    +0.000 A 
ATOM     11  C   UNL     1       3.538   4.881  19.299  0.00  0.00    +0.000 A 
BRANCH  11  12
ATOM     12  S   UNL     1       4.793   4.133  18.258  0.00  0.00    +0.000 S 
ATOM     13  O   UNL     1       5.969   3.949  19.081  0.00  0.00    +0.000 OA
ATOM     14  O   UNL     1       4.191   3.015  17.563  0.00  0.00    +0.000 OA
BRANCH  12  15
ATOM     15  N   UNL     1       5.089   5.338  17.116  0.00  0.00    +0.000 NA
ATOM     16  C   UNL     1       5.362   4.908  15.720  0.00  0.00    +0.000 C 
ATOM     17  C   UNL     1       6.869   4.757  15.493  0.00  0.00    +0.000 C 
ATOM     18  O   UNL     1       7.531   6.007  15.733  0.00  0.00    +0.000 OA
ATOM     19  C   UNL     1       7.365   6.422  17.096  0.00  0.00    +0.000 C 
ATOM     20  C   UNL     1       5.893   6.526  17.513  0.00  0.00    +0.000 C 
ENDBRANCH  12  15
ENDBRANCH  11  12
ENDBRANCH   1   9
BRANCH   2  21
ATOM     21  C   UNL     1       1.382  10.233  18.427  0.00  0.00    +0.000 C 
BRANCH  21  22
ATOM     22  C   UNL     1       0.016  10.169  19.095  0.00  0.00    +0.000 C 
BRANCH  22  23
ATOM     23  C   UNL     1      -0.106  11.194  20.174  0.00  0.00    +0.000 A 
ATOM     24  N   UNL     1       0.937  12.016  20.365  0.00  0.00    +0.000 NA
ATOM     25  C   UNL     1       0.744  12.954  21.290  0.00  0.00    +0.000 A 
ATOM     26  C   UNL     1      -0.406  13.131  22.036  0.00  0.00    +0.000 A 
ATOM     27  C   UNL     1      -0.616  14.154  22.990  0.00  0.00    +0.000 A 
ATOM     28  C   UNL     1      -1.820  14.236  23.676  0.00  0.00    +0.000 A 
ATOM     29  C   UNL     1      -2.815  13.294  23.429  0.00  0.00    +0.000 A 
ATOM     30  C   UNL     1      -2.600  12.283  22.486  0.00  0.00    +0.000 A 
ATOM     31  C   UNL     1      -1.410  12.192  21.774  0.00  0.00    +0.000 A 
ATOM     32  N   UNL     1      -1.259  11.223  20.863  0.00  0.00    +0.000 NA
BRANCH  25  33
ATOM     33  O   UNL     1       1.817  13.780  21.432  0.00  0.00    +0.000 OA
ATOM     34  H   UNL     1       2.103  13.542  22.335  0.00  0.00    +0.000 HD
ENDBRANCH  25  33
ENDBRANCH  22  23
ENDBRANCH  21  22
ENDBRANCH   2  21
TORSDOF 7
ENDMDL
MODEL 7
REMARK VINA RESULT:      -8.1      1.591      2.366
REMARK  Name = 
REMARK  8 active torsions:
REMARK  status: ('A' for Active; 'I' for Inactive)
REMARK    1  A    between atoms: C_1  and  C_2
REMARK    2  A    between atoms: C_5  and  N_6
REMARK    3  A    between atoms: C_7  and  C_9
REMARK    4  A    between atoms: C_9  and  C_10
REMARK    5  A    between atoms: C_10  and  C_11
REMARK    6  A    between atoms: C_13  and  O_14
REMARK    7  A    between atoms: C_23  and  S_24
REMARK    8  A    between atoms: S_24  and  N_27
REMARK                            x       y       z     vdW  Elec       q    Type
REMARK                         _______ _______ _______ _____ _____    ______ ____
ROOT
ATOM      1  N   UNL     1       2.721   5.579  20.516  0.00  0.00    +0.000 N 
ATOM      2  C   UNL     1       1.963   4.426  20.502  0.00  0.00    +0.000 C 
ATOM      3  O   UNL     1       0.807   4.356  20.092  0.00  0.00    +0.000 OA
ATOM      4  H   UNL     1       3.474   5.646  21.190  0.00  0.00    +0.000 HD
ENDROOT
BRANCH   1   9
ATOM      5  C   UNL     1       1.840  10.489  17.758  0.00  0.00    +0.000 C 
ATOM      6  C   UNL     1       1.877   9.163  18.463  0.00  0.00    +0.000 A 
ATOM      7  C   UNL     1       2.493   8.091  17.800  0.00  0.00    +0.000 A 
ATOM      8  C   UNL     1       2.716   6.881  18.454  0.00  0.00    +0.000 A 
ATOM      9  C   UNL     1       2.373   6.736  19.799  0.00  0.00    +0.000 A 
ATOM     10  C   UNL     1       1.728   7.775  20.467  0.00  0.00    +0.000 A 
ATOM     11  C   UNL     1       1.438   8.971  19.789  0.00  0.00    +0.000 A 
BRANCH  11  12
ATOM     12  S   UNL     1       0.389  10.170  20.613  0.00  0.00    +0.000 S 
ATOM     13  O   UNL     1      -0.979   9.818  20.301  0.00  0.00    +0.000 OA
ATOM     14  O   UNL     1       0.830  10.282  21.988  0.00  0.00    +0.000 OA
BRANCH  12  15
ATOM     15  N   UNL     1       0.793  11.609  19.834  0.00  0.00    +0.000 NA
ATOM     16  C   UNL     1       1.669  12.562  20.563  0.00  0.00    +0.000 C 
ATOM     17  C   UNL     1       0.824  13.580  21.335  0.00  0.00    +0.000 C 
ATOM     18  O   UNL     1      -0.010  14.315  20.428  0.00  0.00    +0.000 OA
ATOM     19  C   UNL     1      -0.933  13.445  19.760  0.00  0.00    +0.000 C 
ATOM     20  C   UNL     1      -0.239  12.299  19.013  0.00  0.00    +0.000 C 
ENDBRANCH  12  15
ENDBRANCH  11  12
ENDBRANCH   1   9
BRANCH   2  21
ATOM     21  C   UNL     1       2.679   3.235  21.084  0.00  0.00    +0.000 C 
BRANCH  21  22
ATOM     22  C   UNL     1       3.309   2.453  19.941  0.00  0.00    +0.000 C 
BRANCH  22  23
ATOM     23  C   UNL     1       4.259   3.304  19.163  0.00  0.00    +0.000 A 
ATOM     24  N   UNL     1       5.202   3.964  19.852  0.00  0.00    +0.000 NA
ATOM     25  C   UNL     1       6.063   4.649  19.101  0.00  0.00    +0.000 A 
ATOM     26  C   UNL     1       6.051   4.724  17.721  0.00  0.00    +0.000 A 
ATOM     27  C   UNL     1       6.992   5.423  16.929  0.00  0.00    +0.000 A 
ATOM     28  C   UNL     1       6.882   5.422  15.545  0.00  0.00    +0.000 A 
ATOM     29  C   UNL     1       5.828   4.741  14.943  0.00  0.00    +0.000 A 
ATOM     30  C   UNL     1       4.900   4.053  15.731  0.00  0.00    +0.000 A 
ATOM     31  C   UNL     1       5.000   4.025  17.117  0.00  0.00    +0.000 A 
ATOM     32  N   UNL     1       4.103   3.333  17.829  0.00  0.00    +0.000 NA
BRANCH  25  33
ATOM     33  O   UNL     1       7.017   5.280  19.839  0.00  0.00    +0.000 OA
ATOM     34  H   UNL     1       6.952   4.779  20.674  0.00  0.00    +0.000 HD
ENDBRANCH  25  33
ENDBRANCH  22  23
ENDBRANCH  21  22
ENDBRANCH   2  21
TORSDOF 7
ENDMDL
MODEL 8
REMARK VINA RESULT:      -8.0      5.659      8.567
REMARK  Name = 
REMARK  8 active torsions:
REMARK  status: ('A' for Active; 'I' for Inactive)
REMARK    1  A    between atoms: C_1  and  C_2
REMARK    2  A    between atoms: C_5  and  N_6
REMARK    3  A    between atoms: C_7  and  C_9
REMARK    4  A    between atoms: C_9  and  C_10
REMARK    5  A    between atoms: C_10  and  C_11
REMARK    6  A    between atoms: C_13  and  O_14
REMARK    7  A    between atoms: C_23  and  S_24
REMARK    8  A    between atoms: S_24  and  N_27
REMARK                            x       y       z     vdW  Elec       q    Type
REMARK                         _______ _______ _______ _____ _____    ______ ____
ROOT
ATOM      1  N   UNL     1       6.905   8.019  17.259  0.00  0.00    +0.000 N 
ATOM      2  C   UNL     1       8.004   8.288  18.049  0.00  0.00    +0.000 C 
ATOM      3  O   UNL     1       8.492   7.501  18.857  0.00  0.00    +0.000 OA
ATOM      4  H   UNL     1       6.351   8.801  16.930  0.00  0.00    +0.000 HD
ENDROOT
BRANCH   1   9
ATOM      5  C   UNL     1       4.684   2.939  15.936  0.00  0.00    +0.000 C 
ATOM      6  C   UNL     1       5.269   4.214  16.473  0.00  0.00    +0.000 A 
ATOM      7  C   UNL     1       6.617   4.482  16.189  0.00  0.00    +0.000 A 
ATOM      8  C   UNL     1       7.181   5.716  16.506  0.00  0.00    +0.000 A 
ATOM      9  C   UNL     1       6.395   6.724  17.067  0.00  0.00    +0.000 A 
ATOM     10  C   UNL     1       5.063   6.468  17.392  0.00  0.00    +0.000 A 
ATOM     11  C   UNL     1       4.512   5.201  17.137  0.00  0.00    +0.000 A 
BRANCH  11  12
ATOM     12  S   UNL     1       2.884   4.847  17.801  0.00  0.00    +0.000 S 
ATOM     13  O   UNL     1       2.266   6.120  18.106  0.00  0.00    +0.000 OA
ATOM     14  O   UNL     1       2.235   3.901  16.917  0.00  0.00    +0.000 OA
BRANCH  12  15
ATOM     15  N   UNL     1       3.240   4.036  19.236  0.00  0.00    +0.000 NA
ATOM     16  C   UNL     1       3.203   2.552  19.212  0.00  0.00    +0.000 C 
ATOM     17  C   UNL     1       1.821   2.045  19.633  0.00  0.00    +0.000 C 
ATOM     18  O   UNL     1       1.514   2.497  20.960  0.00  0.00    +0.000 OA
ATOM     19  C   UNL     1       1.455   3.929  21.014  0.00  0.00    +0.000 C 
ATOM     20  C   UNL     1       2.746   4.597  20.523  0.00  0.00    +0.000 C 
ENDBRANCH  12  15
ENDBRANCH  11  12
ENDBRANCH   1   9
BRANCH   2  21
ATOM     21  C   UNL     1       8.546   9.682  17.861  0.00  0.00    +0.000 C 
BRANCH  21  22
ATOM     22  C   UNL     1       9.255  10.093  19.142  0.00  0.00    +0.000 C 
BRANCH  22  23
ATOM     23  C   UNL     1       9.785  11.486  19.043  0.00  0.00    +0.000 A 
ATOM     24  N   UNL     1      10.114  11.936  17.822  0.00  0.00    +0.000 NA
ATOM     25  C   UNL     1      10.512  13.205  17.785  0.00  0.00    +0.000 A 
ATOM     26  C   UNL     1      10.608  14.055  18.871  0.00  0.00    +0.000 A 
ATOM     27  C   UNL     1      10.996  15.415  18.817  0.00  0.00    +0.000 A 
ATOM     28  C   UNL     1      11.050  16.175  19.977  0.00  0.00    +0.000 A 
ATOM     29  C   UNL     1      10.733  15.585  21.197  0.00  0.00    +0.000 A 
ATOM     30  C   UNL     1      10.352  14.240  21.244  0.00  0.00    +0.000 A 
ATOM     31  C   UNL     1      10.274  13.464  20.095  0.00  0.00    +0.000 A 
ATOM     32  N   UNL     1       9.880  12.188  20.185  0.00  0.00    +0.000 NA
BRANCH  25  33
ATOM     33  O   UNL     1      10.810  13.626  16.525  0.00  0.00    +0.000 OA
ATOM     34  H   UNL     1      11.411  14.369  16.726  0.00  0.00    +0.000 HD
ENDBRANCH  25  33
ENDBRANCH  22  23
ENDBRANCH  21  22
ENDBRANCH   2  21
TORSDOF 7
ENDMDL
MODEL 9
REMARK VINA RESULT:      -8.0      2.869      9.179
REMARK  Name = 
REMARK  8 active torsions:
REMARK  status: ('A' for Active; 'I' for Inactive)
REMARK    1  A    between atoms: C_1  and  C_2
REMARK    2  A    between atoms: C_5  and  N_6
REMARK    3  A    between atoms: C_7  and  C_9
REMARK    4  A    between atoms: C_9  and  C_10
REMARK    5  A    between atoms: C_10  and  C_11
REMARK    6  A    between atoms: C_13  and  O_14
REMARK    7  A    between atoms: C_23  and  S_24
REMARK    8  A    between atoms: S_24  and  N_27
REMARK                            x       y       z     vdW  Elec       q    Type
REMARK                         _______ _______ _______ _____ _____    ______ ____
ROOT
ATOM      1  N   UNL     1       1.905   8.168  19.543  0.00  0.00    +0.000 N 
ATOM      2  C   UNL     1       1.955   8.792  18.313  0.00  0.00    +0.000 C 
ATOM      3  O   UNL     1       2.453   8.304  17.302  0.00  0.00    +0.000 OA
ATOM      4  H   UNL     1       1.844   8.748  20.370  0.00  0.00    +0.000 HD
ENDROOT
BRANCH   1   9
ATOM      5  C   UNL     1       3.223   2.749  20.719  0.00  0.00    +0.000 C 
ATOM      6  C   UNL     1       2.810   4.109  20.234  0.00  0.00    +0.000 A 
ATOM      7  C   UNL     1       1.687   4.700  20.832  0.00  0.00    +0.000 A 
ATOM      8  C   UNL     1       1.345   6.022  20.558  0.00  0.00    +0.000 A 
ATOM      9  C   UNL     1       2.148   6.795  19.718  0.00  0.00    +0.000 A 
ATOM     10  C   UNL     1       3.248   6.218  19.083  0.00  0.00    +0.000 A 
ATOM     11  C   UNL     1       3.553   4.866  19.304  0.00  0.00    +0.000 A 
BRANCH  11  12
ATOM     12  S   UNL     1       4.815   4.112  18.276  0.00  0.00    +0.000 S 
ATOM     13  O   UNL     1       5.993   3.955  19.101  0.00  0.00    +0.000 OA
ATOM     14  O   UNL     1       4.225   2.975  17.602  0.00  0.00    +0.000 OA
BRANCH  12  15
ATOM     15  N   UNL     1       5.098   5.299  17.112  0.00  0.00    +0.000 NA
ATOM     16  C   UNL     1       5.371   4.847  15.723  0.00  0.00    +0.000 C 
ATOM     17  C   UNL     1       6.878   4.705  15.495  0.00  0.00    +0.000 C 
ATOM     18  O   UNL     1       7.530   5.965  15.711  0.00  0.00    +0.000 OA
ATOM     19  C   UNL     1       7.364   6.402  17.067  0.00  0.00    +0.000 C 
ATOM     20  C   UNL     1       5.892   6.501  17.486  0.00  0.00    +0.000 C 
ENDBRANCH  12  15
ENDBRANCH  11  12
ENDBRANCH   1   9
BRANCH   2  21
ATOM     21  C   UNL     1       1.366  10.179  18.326  0.00  0.00    +0.000 C 
BRANCH  21  22
ATOM     22  C   UNL     1       0.055  10.133  19.097  0.00  0.00    +0.000 C 
BRANCH  22  23
ATOM     23  C   UNL     1      -0.253  11.456  19.718  0.00  0.00    +0.000 A 
ATOM     24  N   UNL     1      -0.274  12.527  18.911  0.00  0.00    +0.000 NA
ATOM     25  C   UNL     1      -0.624  13.666  19.505  0.00  0.00    +0.000 A 
ATOM     26  C   UNL     1      -0.952  13.814  20.840  0.00  0.00    +0.000 A 
ATOM     27  C   UNL     1      -1.359  15.021  21.455  0.00  0.00    +0.000 A 
ATOM     28  C   UNL     1      -1.670  15.048  22.808  0.00  0.00    +0.000 A 
ATOM     29  C   UNL     1      -1.563  13.881  23.558  0.00  0.00    +0.000 A 
ATOM     30  C   UNL     1      -1.158  12.691  22.944  0.00  0.00    +0.000 A 
ATOM     31  C   UNL     1      -0.858  12.636  21.589  0.00  0.00    +0.000 A 
ATOM     32  N   UNL     1      -0.499  11.470  21.039  0.00  0.00    +0.000 NA
BRANCH  25  33
ATOM     33  O   UNL     1      -0.658  14.720  18.644  0.00  0.00    +0.000 OA
ATOM     34  H   UNL     1       0.282  14.761  18.382  0.00  0.00    +0.000 HD
ENDBRANCH  25  33
ENDBRANCH  22  23
ENDBRANCH  21  22
ENDBRANCH   2  21
TORSDOF 7
ENDMDL
