MODEL 1
REMARK VINA RESULT:      -7.6      0.000      0.000
REMARK  Name = 
REMARK  8 active torsions:
REMARK  status: ('A' for Active; 'I' for Inactive)
REMARK    1  A    between atoms: C_1  and  O_2
REMARK    2  A    between atoms: O_2  and  C_3
REMARK    3  A    between atoms: C_6  and  O_7
REMARK    4  A    between atoms: O_7  and  C_8
REMARK    5  A    between atoms: C_13  and  C_14
REMARK    6  A    between atoms: N_21  and  C_22
REMARK    7  A    between atoms: C_22  and  C_23
REMARK    8  A    between atoms: C_23  and  C_24
REMARK                            x       y       z     vdW  Elec       q    Type
REMARK                         _______ _______ _______ _____ _____    ______ ____
ROOT
ATOM      1  C   UNL     1       1.054   9.418  19.442  0.00  0.00    +0.000 A 
ATOM      2  N   UNL     1       1.580  10.043  18.375  0.00  0.00    +0.000 NA
ATOM      3  C   UNL     1       2.473   9.343  17.652  0.00  0.00    +0.000 A 
ATOM      4  C   UNL     1       2.892   8.069  17.967  0.00  0.00    +0.000 A 
ATOM      5  N   UNL     1       3.807   7.401  17.146  0.00  0.00    +0.000 NA
ATOM      6  C   UNL     1       4.182   6.201  17.489  0.00  0.00    +0.000 A 
ATOM      7  C   UNL     1       3.673   5.532  18.777  0.00  0.00    +0.000 A 
ATOM      8  O   UNL     1       4.120   4.447  19.131  0.00  0.00    +0.000 OA
ATOM      9  N   UNL     1       2.721   6.237  19.510  0.00  0.00    +0.000 N 
ATOM     10  C   UNL     1       2.327   7.540  19.121  0.00  0.00    +0.000 A 
ATOM     11  N   UNL     1       1.417   8.198  19.874  0.00  0.00    +0.000 NA
ENDROOT
BRANCH   6  12
ATOM     12  C   UNL     1       5.113   5.454  16.660  0.00  0.00    +0.000 A 
ATOM     13  C   UNL     1       4.870   4.460  15.730  0.00  0.00    +0.000 A 
ATOM     14  C   UNL     1       6.064   3.951  15.143  0.00  0.00    +0.000 A 
ATOM     15  C   UNL     1       7.186   4.578  15.630  0.00  0.00    +0.000 A 
ATOM     16  S   UNL     1       6.798   5.782  16.775  0.00  0.00    +0.000 S 
ENDBRANCH   6  12
BRANCH   1  17
ATOM     17  O   UNL     1       0.030  10.035  20.158  0.00  0.00    +0.000 OA
BRANCH  17  21
ATOM     18  C   UNL     1      -3.277  11.453  18.023  0.00  0.00    +0.000 A 
ATOM     19  C   UNL     1      -2.701  10.233  17.669  0.00  0.00    +0.000 A 
ATOM     20  C   UNL     1      -1.630   9.719  18.397  0.00  0.00    +0.000 A 
ATOM     21  C   UNL     1      -1.074  10.456  19.445  0.00  0.00    +0.000 A 
ATOM     22  C   UNL     1      -1.674  11.656  19.832  0.00  0.00    +0.000 A 
ATOM     23  C   UNL     1      -2.776  12.157  19.119  0.00  0.00    +0.000 A 
BRANCH  18  25
ATOM     24  C   UNL     1      -5.595  11.445  17.549  0.00  0.00    +0.000 C 
ATOM     25  O   UNL     1      -4.284  11.866  17.197  0.00  0.00    +0.000 OA
ENDBRANCH  18  25
ENDBRANCH  17  21
ENDBRANCH   1  17
BRANCH   9  26
ATOM     26  C   UNL     1       2.206   5.660  20.745  0.00  0.00    +0.000 C 
BRANCH  26  27
ATOM     27  C   UNL     1       1.209   4.530  20.568  0.00  0.00    +0.000 C 
BRANCH  27  28
ATOM     28  C   UNL     1       1.519   3.296  21.399  0.00  0.00    +0.000 C 
ATOM     29  N   UNL     1       1.776   2.272  22.089  0.00  0.00    +0.000 NA
ENDBRANCH  27  28
ENDBRANCH  26  27
ENDBRANCH   9  26
TORSDOF 7
ENDMDL
MODEL 2
REMARK VINA RESULT:      -7.1      2.193      2.741
REMARK  Name = 
REMARK  8 active torsions:
REMARK  status: ('A' for Active; 'I' for Inactive)
REMARK    1  A    between atoms: C_1  and  O_2
REMARK    2  A    between atoms: O_2  and  C_3
REMARK    3  A    between atoms: C_6  and  O_7
REMARK    4  A    between atoms: O_7  and  C_8
REMARK    5  A    between atoms: C_13  and  C_14
REMARK    6  A    between atoms: N_21  and  C_22
REMARK    7  A    between atoms: C_22  and  C_23
REMARK    8  A    between atoms: C_23  and  C_24
REMARK                            x       y       z     vdW  Elec       q    Type
REMARK                         _______ _______ _______ _____ _____    ______ ____
ROOT
ATOM      1  C   UNL     1       1.083   7.790  20.657  0.00  0.00    +0.000 A 
ATOM      2  N   UNL     1       1.445   8.700  19.738  0.00  0.00    +0.000 NA
ATOM      3  C   UNL     1       2.311   8.285  18.795  0.00  0.00    +0.000 A 
ATOM      4  C   UNL     1       2.861   7.022  18.754  0.00  0.00    +0.000 A 
ATOM      5  N   UNL     1       3.737   6.664  17.723  0.00  0.00    +0.000 NA
ATOM      6  C   UNL     1       4.239   5.462  17.731  0.00  0.00    +0.000 A 
ATOM      7  C   UNL     1       3.921   4.459  18.853  0.00  0.00    +0.000 A 
ATOM      8  O   UNL     1       4.487   3.374  18.893  0.00  0.00    +0.000 OA
ATOM      9  N   UNL     1       2.996   4.870  19.810  0.00  0.00    +0.000 N 
ATOM     10  C   UNL     1       2.461   6.181  19.785  0.00  0.00    +0.000 A 
ATOM     11  N   UNL     1       1.584   6.546  20.747  0.00  0.00    +0.000 NA
ENDROOT
BRANCH   6  12
ATOM     12  C   UNL     1       5.137   5.032  16.673  0.00  0.00    +0.000 A 
ATOM     13  C   UNL     1       4.888   4.234  15.570  0.00  0.00    +0.000 A 
ATOM     14  C   UNL     1       6.049   4.016  14.774  0.00  0.00    +0.000 A 
ATOM     15  C   UNL     1       7.151   4.662  15.282  0.00  0.00    +0.000 A 
ATOM     16  S   UNL     1       6.780   5.538  16.700  0.00  0.00    +0.000 S 
ENDBRANCH   6  12
BRANCH   1  17
ATOM     17  O   UNL     1       0.092   8.112  21.583  0.00  0.00    +0.000 OA
BRANCH  17  21
ATOM     18  C   UNL     1      -1.131  12.107  21.815  0.00  0.00    +0.000 A 
ATOM     19  C   UNL     1      -0.989  11.502  20.567  0.00  0.00    +0.000 A 
ATOM     20  C   UNL     1      -0.630  10.159  20.467  0.00  0.00    +0.000 A 
ATOM     21  C   UNL     1      -0.337   9.423  21.617  0.00  0.00    +0.000 A 
ATOM     22  C   UNL     1      -0.521  10.011  22.871  0.00  0.00    +0.000 A 
ATOM     23  C   UNL     1      -0.916  11.354  22.971  0.00  0.00    +0.000 A 
BRANCH  18  25
ATOM     24  C   UNL     1      -1.132  14.190  22.936  0.00  0.00    +0.000 C 
ATOM     25  O   UNL     1      -1.435  13.438  21.770  0.00  0.00    +0.000 OA
ENDBRANCH  18  25
ENDBRANCH  17  21
ENDBRANCH   1  17
BRANCH   9  26
ATOM     26  C   UNL     1       2.659   3.969  20.904  0.00  0.00    +0.000 C 
BRANCH  26  27
ATOM     27  C   UNL     1       1.244   3.420  20.881  0.00  0.00    +0.000 C 
BRANCH  27  28
ATOM     28  C   UNL     1       0.844   2.795  19.555  0.00  0.00    +0.000 C 
ATOM     29  N   UNL     1       0.512   2.276  18.455  0.00  0.00    +0.000 NA
ENDBRANCH  27  28
ENDBRANCH  26  27
ENDBRANCH   9  26
TORSDOF 7
ENDMDL
MODEL 3
REMARK VINA RESULT:      -7.1      1.630      2.205
REMARK  Name = 
REMARK  8 active torsions:
REMARK  status: ('A' for Active; 'I' for Inactive)
REMARK    1  A    between atoms: C_1  and  O_2
REMARK    2  A    between atoms: O_2  and  C_3
REMARK    3  A    between atoms: C_6  and  O_7
REMARK    4  A    between atoms: O_7  and  C_8
REMARK    5  A    between atoms: C_13  and  C_14
REMARK    6  A    between atoms: N_21  and  C_22
REMARK    7  A    between atoms: C_22  and  C_23
REMARK    8  A    between atoms: C_23  and  C_24
REMARK                            x       y       z     vdW  Elec       q    Type
REMARK                         _______ _______ _______ _____ _____    ______ ____
ROOT
ATOM      1  C   UNL     1       0.889   9.154  19.646  0.00  0.00    +0.000 A 
ATOM      2  N   UNL     1       1.379   9.845  18.604  0.00  0.00    +0.000 NA
ATOM      3  C   UNL     1       2.304   9.219  17.853  0.00  0.00    +0.000 A 
ATOM      4  C   UNL     1       2.788   7.957  18.119  0.00  0.00    +0.000 A 
ATOM      5  N   UNL     1       3.733   7.368  17.271  0.00  0.00    +0.000 NA
ATOM      6  C   UNL     1       4.169   6.176  17.568  0.00  0.00    +0.000 A 
ATOM      7  C   UNL     1       3.699   5.434  18.830  0.00  0.00    +0.000 A 
ATOM      8  O   UNL     1       4.202   4.361  19.141  0.00  0.00    +0.000 OA
ATOM      9  N   UNL     1       2.714   6.061  19.590  0.00  0.00    +0.000 N 
ATOM     10  C   UNL     1       2.254   7.357  19.252  0.00  0.00    +0.000 A 
ATOM     11  N   UNL     1       1.315   7.938  20.031  0.00  0.00    +0.000 NA
ENDROOT
BRANCH   6  12
ATOM     12  C   UNL     1       5.135   5.510  16.710  0.00  0.00    +0.000 A 
ATOM     13  C   UNL     1       4.946   4.505  15.778  0.00  0.00    +0.000 A 
ATOM     14  C   UNL     1       6.160   4.095  15.157  0.00  0.00    +0.000 A 
ATOM     15  C   UNL     1       7.242   4.805  15.621  0.00  0.00    +0.000 A 
ATOM     16  S   UNL     1       6.790   5.969  16.785  0.00  0.00    +0.000 S 
ENDBRANCH   6  12
BRANCH   1  17
ATOM     17  O   UNL     1      -0.163   9.691  20.386  0.00  0.00    +0.000 OA
BRANCH  17  21
ATOM     18  C   UNL     1      -0.593  13.848  20.194  0.00  0.00    +0.000 A 
ATOM     19  C   UNL     1      -1.450  13.032  19.456  0.00  0.00    +0.000 A 
ATOM     20  C   UNL     1      -1.356  11.645  19.542  0.00  0.00    +0.000 A 
ATOM     21  C   UNL     1      -0.353  11.055  20.315  0.00  0.00    +0.000 A 
ATOM     22  C   UNL     1       0.479  11.866  21.091  0.00  0.00    +0.000 A 
ATOM     23  C   UNL     1       0.361  13.264  21.030  0.00  0.00    +0.000 A 
BRANCH  18  25
ATOM     24  C   UNL     1      -0.074  15.728  18.855  0.00  0.00    +0.000 C 
ATOM     25  O   UNL     1      -0.757  15.187  19.978  0.00  0.00    +0.000 OA
ENDBRANCH  18  25
ENDBRANCH  17  21
ENDBRANCH   1  17
BRANCH   9  26
ATOM     26  C   UNL     1       2.234   5.412  20.803  0.00  0.00    +0.000 C 
BRANCH  26  27
ATOM     27  C   UNL     1       1.227   4.296  20.587  0.00  0.00    +0.000 C 
BRANCH  27  28
ATOM     28  C   UNL     1       1.463   3.074  21.460  0.00  0.00    +0.000 C 
ATOM     29  N   UNL     1       1.659   2.061  22.184  0.00  0.00    +0.000 NA
ENDBRANCH  27  28
ENDBRANCH  26  27
ENDBRANCH   9  26
TORSDOF 7
ENDMDL
MODEL 4
REMARK VINA RESULT:      -6.9      1.772      2.323
REMARK  Name = 
REMARK  8 active torsions:
REMARK  status: ('A' for Active; 'I' for Inactive)
REMARK    1  A    between atoms: C_1  and  O_2
REMARK    2  A    between atoms: O_2  and  C_3
REMARK    3  A    between atoms: C_6  and  O_7
REMARK    4  A    between atoms: O_7  and  C_8
REMARK    5  A    between atoms: C_13  and  C_14
REMARK    6  A    between atoms: N_21  and  C_22
REMARK    7  A    between atoms: C_22  and  C_23
REMARK    8  A    between atoms: C_23  and  C_24
REMARK                            x       y       z     vdW  Elec       q    Type
REMARK                         _______ _______ _______ _____ _____    ______ ____
ROOT
ATOM      1  C   UNL     1       1.126   8.349  20.216  0.00  0.00    +0.000 A 
ATOM      2  N   UNL     1       1.533   9.163  19.228  0.00  0.00    +0.000 NA
ATOM      3  C   UNL     1       2.407   8.644  18.347  0.00  0.00    +0.000 A 
ATOM      4  C   UNL     1       2.921   7.368  18.431  0.00  0.00    +0.000 A 
ATOM      5  N   UNL     1       3.809   6.896  17.457  0.00  0.00    +0.000 NA
ATOM      6  C   UNL     1       4.277   5.687  17.583  0.00  0.00    +0.000 A 
ATOM      7  C   UNL     1       3.906   4.797  18.781  0.00  0.00    +0.000 A 
ATOM      8  O   UNL     1       4.440   3.705  18.931  0.00  0.00    +0.000 OA
ATOM      9  N   UNL     1       2.972   5.316  19.676  0.00  0.00    +0.000 N 
ATOM     10  C   UNL     1       2.476   6.633  19.522  0.00  0.00    +0.000 A 
ATOM     11  N   UNL     1       1.590   7.105  20.427  0.00  0.00    +0.000 NA
ENDROOT
BRANCH   6  12
ATOM     12  C   UNL     1       5.184   5.140  16.588  0.00  0.00    +0.000 A 
ATOM     13  C   UNL     1       4.947   4.217  15.585  0.00  0.00    +0.000 A 
ATOM     14  C   UNL     1       6.115   3.913  14.829  0.00  0.00    +0.000 A 
ATOM     15  C   UNL     1       7.210   4.621  15.265  0.00  0.00    +0.000 A 
ATOM     16  S   UNL     1       6.825   5.656  16.566  0.00  0.00    +0.000 S 
ENDBRANCH   6  12
BRANCH   1  17
ATOM     17  O   UNL     1       0.125   8.779  21.085  0.00  0.00    +0.000 OA
BRANCH  17  21
ATOM     18  C   UNL     1      -1.325  12.672  20.591  0.00  0.00    +0.000 A 
ATOM     19  C   UNL     1      -0.600  12.348  21.738  0.00  0.00    +0.000 A 
ATOM     20  C   UNL     1      -0.066  11.071  21.900  0.00  0.00    +0.000 A 
ATOM     21  C   UNL     1      -0.314  10.079  20.949  0.00  0.00    +0.000 A 
ATOM     22  C   UNL     1      -1.002  10.410  19.778  0.00  0.00    +0.000 A 
ATOM     23  C   UNL     1      -1.509  11.707  19.600  0.00  0.00    +0.000 A 
BRANCH  18  25
ATOM     24  C   UNL     1      -0.988  14.952  20.060  0.00  0.00    +0.000 C 
ATOM     25  O   UNL     1      -1.836  13.939  20.582  0.00  0.00    +0.000 OA
ENDBRANCH  18  25
ENDBRANCH  17  21
ENDBRANCH   1  17
BRANCH   9  26
ATOM     26  C   UNL     1       2.587   4.524  20.838  0.00  0.00    +0.000 C 
BRANCH  26  27
ATOM     27  C   UNL     1       1.231   3.848  20.741  0.00  0.00    +0.000 C 
BRANCH  27  28
ATOM     28  C   UNL     1       1.018   3.073  19.451  0.00  0.00    +0.000 C 
ATOM     29  N   UNL     1       0.841   2.430  18.381  0.00  0.00    +0.000 NA
ENDBRANCH  27  28
ENDBRANCH  26  27
ENDBRANCH   9  26
TORSDOF 7
ENDMDL
MODEL 5
REMARK VINA RESULT:      -6.7      3.562      5.801
REMARK  Name = 
REMARK  8 active torsions:
REMARK  status: ('A' for Active; 'I' for Inactive)
REMARK    1  A    between atoms: C_1  and  O_2
REMARK    2  A    between atoms: O_2  and  C_3
REMARK    3  A    between atoms: C_6  and  O_7
REMARK    4  A    between atoms: O_7  and  C_8
REMARK    5  A    between atoms: C_13  and  C_14
REMARK    6  A    between atoms: N_21  and  C_22
REMARK    7  A    between atoms: C_22  and  C_23
REMARK    8  A    between atoms: C_23  and  C_24
REMARK                            x       y       z     vdW  Elec       q    Type
REMARK                         _______ _______ _______ _____ _____    ______ ____
ROOT
ATOM      1  C   UNL     1      -0.947  11.520  22.706  0.00  0.00    +0.000 A 
ATOM      2  N   UNL     1      -0.527  10.541  23.524  0.00  0.00    +0.000 NA
ATOM      3  C   UNL     1       0.190   9.554  22.956  0.00  0.00    +0.000 A 
ATOM      4  C   UNL     1       0.470   9.481  21.609  0.00  0.00    +0.000 A 
ATOM      5  N   UNL     1       1.246   8.432  21.103  0.00  0.00    +0.000 NA
ATOM      6  C   UNL     1       1.477   8.399  19.821  0.00  0.00    +0.000 A 
ATOM      7  C   UNL     1       0.893   9.454  18.866  0.00  0.00    +0.000 A 
ATOM      8  O   UNL     1       1.038   9.341  17.655  0.00  0.00    +0.000 OA
ATOM      9  N   UNL     1       0.182  10.498  19.453  0.00  0.00    +0.000 N 
ATOM     10  C   UNL     1      -0.060  10.515  20.848  0.00  0.00    +0.000 A 
ATOM     11  N   UNL     1      -0.775  11.535  21.373  0.00  0.00    +0.000 NA
ENDROOT
BRANCH   6  12
ATOM     12  C   UNL     1       2.294   7.343  19.246  0.00  0.00    +0.000 A 
ATOM     13  C   UNL     1       3.144   7.376  18.155  0.00  0.00    +0.000 A 
ATOM     14  C   UNL     1       3.747   6.114  17.888  0.00  0.00    +0.000 A 
ATOM     15  C   UNL     1       3.354   5.154  18.790  0.00  0.00    +0.000 A 
ATOM     16  S   UNL     1       2.277   5.778  19.958  0.00  0.00    +0.000 S 
ENDBRANCH   6  12
BRANCH   1  17
ATOM     17  O   UNL     1      -1.582  12.636  23.248  0.00  0.00    +0.000 OA
BRANCH  17  21
ATOM     18  C   UNL     1      -5.757  12.855  23.091  0.00  0.00    +0.000 A 
ATOM     19  C   UNL     1      -5.016  12.995  21.918  0.00  0.00    +0.000 A 
ATOM     20  C   UNL     1      -3.628  12.877  21.939  0.00  0.00    +0.000 A 
ATOM     21  C   UNL     1      -2.957  12.690  23.150  0.00  0.00    +0.000 A 
ATOM     22  C   UNL     1      -3.696  12.505  24.321  0.00  0.00    +0.000 A 
ATOM     23  C   UNL     1      -5.097  12.590  24.292  0.00  0.00    +0.000 A 
BRANCH  18  25
ATOM     24  C   UNL     1      -7.885  11.871  22.778  0.00  0.00    +0.000 C 
ATOM     25  O   UNL     1      -7.101  13.045  22.939  0.00  0.00    +0.000 OA
ENDBRANCH  18  25
ENDBRANCH  17  21
ENDBRANCH   1  17
BRANCH   9  26
ATOM     26  C   UNL     1      -0.405  11.524  18.601  0.00  0.00    +0.000 C 
BRANCH  26  27
ATOM     27  C   UNL     1      -1.533  11.053  17.700  0.00  0.00    +0.000 C 
BRANCH  27  28
ATOM     28  C   UNL     1      -2.917  11.453  18.184  0.00  0.00    +0.000 C 
ATOM     29  N   UNL     1      -4.065  11.785  18.585  0.00  0.00    +0.000 NA
ENDBRANCH  27  28
ENDBRANCH  26  27
ENDBRANCH   9  26
TORSDOF 7
ENDMDL
MODEL 6
REMARK VINA RESULT:      -6.6      3.720      9.508
REMARK  Name = 
REMARK  8 active torsions:
REMARK  status: ('A' for Active; 'I' for Inactive)
REMARK    1  A    between atoms: C_1  and  O_2
REMARK    2  A    between atoms: O_2  and  C_3
REMARK    3  A    between atoms: C_6  and  O_7
REMARK    4  A    between atoms: O_7  and  C_8
REMARK    5  A    between atoms: C_13  and  C_14
REMARK    6  A    between atoms: N_21  and  C_22
REMARK    7  A    between atoms: C_22  and  C_23
REMARK    8  A    between atoms: C_23  and  C_24
REMARK                            x       y       z     vdW  Elec       q    Type
REMARK                         _______ _______ _______ _____ _____    ______ ____
ROOT
ATOM      1  C   UNL     1       1.203   9.208  19.027  0.00  0.00    +0.000 A 
ATOM      2  N   UNL     1       1.646   9.006  20.278  0.00  0.00    +0.000 NA
ATOM      3  C   UNL     1       1.003   9.669  21.256  0.00  0.00    +0.000 A 
ATOM      4  C   UNL     1      -0.031  10.553  21.037  0.00  0.00    +0.000 A 
ATOM      5  N   UNL     1      -0.663  11.184  22.114  0.00  0.00    +0.000 NA
ATOM      6  C   UNL     1      -1.630  12.019  21.859  0.00  0.00    +0.000 A 
ATOM      7  C   UNL     1      -2.058  12.346  20.418  0.00  0.00    +0.000 A 
ATOM      8  O   UNL     1      -2.897  13.211  20.201  0.00  0.00    +0.000 OA
ATOM      9  N   UNL     1      -1.420  11.633  19.404  0.00  0.00    +0.000 N 
ATOM     10  C   UNL     1      -0.371  10.731  19.702  0.00  0.00    +0.000 A 
ATOM     11  N   UNL     1       0.235  10.078  18.686  0.00  0.00    +0.000 NA
ENDROOT
BRANCH   6  12
ATOM     12  C   UNL     1      -2.334  12.685  22.942  0.00  0.00    +0.000 A 
ATOM     13  C   UNL     1      -3.494  12.319  23.602  0.00  0.00    +0.000 A 
ATOM     14  C   UNL     1      -3.884  13.262  24.595  0.00  0.00    +0.000 A 
ATOM     15  C   UNL     1      -3.006  14.317  24.677  0.00  0.00    +0.000 A 
ATOM     16  S   UNL     1      -1.713  14.159  23.574  0.00  0.00    +0.000 S 
ENDBRANCH   6  12
BRANCH   1  17
ATOM     17  O   UNL     1       1.737   8.456  17.983  0.00  0.00    +0.000 OA
BRANCH  17  21
ATOM     18  C   UNL     1       4.304   5.303  18.970  0.00  0.00    +0.000 A 
ATOM     19  C   UNL     1       3.108   5.462  19.670  0.00  0.00    +0.000 A 
ATOM     20  C   UNL     1       2.216   6.475  19.326  0.00  0.00    +0.000 A 
ATOM     21  C   UNL     1       2.543   7.389  18.322  0.00  0.00    +0.000 A 
ATOM     22  C   UNL     1       3.718   7.208  17.589  0.00  0.00    +0.000 A 
ATOM     23  C   UNL     1       4.600   6.165  17.913  0.00  0.00    +0.000 A 
BRANCH  18  25
ATOM     24  C   UNL     1       4.539   3.005  19.481  0.00  0.00    +0.000 C 
ATOM     25  O   UNL     1       5.109   4.305  19.442  0.00  0.00    +0.000 OA
ENDBRANCH  18  25
ENDBRANCH  17  21
ENDBRANCH   1  17
BRANCH   9  26
ATOM     26  C   UNL     1      -1.775  11.904  18.017  0.00  0.00    +0.000 C 
BRANCH  26  27
ATOM     27  C   UNL     1      -2.948  11.104  17.479  0.00  0.00    +0.000 C 
BRANCH  27  28
ATOM     28  C   UNL     1      -2.826  10.742  16.008  0.00  0.00    +0.000 C 
ATOM     29  N   UNL     1      -2.725  10.441  14.788  0.00  0.00    +0.000 NA
ENDBRANCH  27  28
ENDBRANCH  26  27
ENDBRANCH   9  26
TORSDOF 7
ENDMDL
MODEL 7
REMARK VINA RESULT:      -6.6      1.671      2.290
REMARK  Name = 
REMARK  8 active torsions:
REMARK  status: ('A' for Active; 'I' for Inactive)
REMARK    1  A    between atoms: C_1  and  O_2
REMARK    2  A    between atoms: O_2  and  C_3
REMARK    3  A    between atoms: C_6  and  O_7
REMARK    4  A    between atoms: O_7  and  C_8
REMARK    5  A    between atoms: C_13  and  C_14
REMARK    6  A    between atoms: N_21  and  C_22
REMARK    7  A    between atoms: C_22  and  C_23
REMARK    8  A    between atoms: C_23  and  C_24
REMARK                            x       y       z     vdW  Elec       q    Type
REMARK                         _______ _______ _______ _____ _____    ______ ____
ROOT
ATOM      1  C   UNL     1       0.954   9.076  19.634  0.00  0.00    +0.000 A 
ATOM      2  N   UNL     1       1.426   9.777  18.590  0.00  0.00    +0.000 NA
ATOM      3  C   UNL     1       2.378   9.180  17.850  0.00  0.00    +0.000 A 
ATOM      4  C   UNL     1       2.907   7.939  18.129  0.00  0.00    +0.000 A 
ATOM      5  N   UNL     1       3.879   7.378  17.292  0.00  0.00    +0.000 NA
ATOM      6  C   UNL     1       4.357   6.206  17.601  0.00  0.00    +0.000 A 
ATOM      7  C   UNL     1       3.906   5.456  18.866  0.00  0.00    +0.000 A 
ATOM      8  O   UNL     1       4.446   4.405  19.189  0.00  0.00    +0.000 OA
ATOM      9  N   UNL     1       2.894   6.052  19.615  0.00  0.00    +0.000 N 
ATOM     10  C   UNL     1       2.388   7.327  19.263  0.00  0.00    +0.000 A 
ATOM     11  N   UNL     1       1.422   7.879  20.031  0.00  0.00    +0.000 NA
ENDROOT
BRANCH   6  12
ATOM     12  C   UNL     1       5.353   5.570  16.755  0.00  0.00    +0.000 A 
ATOM     13  C   UNL     1       6.700   5.848  16.611  0.00  0.00    +0.000 A 
ATOM     14  C   UNL     1       7.336   5.011  15.650  0.00  0.00    +0.000 A 
ATOM     15  C   UNL     1       6.461   4.107  15.095  0.00  0.00    +0.000 A 
ATOM     16  S   UNL     1       4.889   4.259  15.743  0.00  0.00    +0.000 S 
ENDBRANCH   6  12
BRANCH   1  17
ATOM     17  O   UNL     1      -0.122   9.578  20.363  0.00  0.00    +0.000 OA
BRANCH  17  21
ATOM     18  C   UNL     1      -0.922  13.681  20.182  0.00  0.00    +0.000 A 
ATOM     19  C   UNL     1       0.106  13.215  21.002  0.00  0.00    +0.000 A 
ATOM     20  C   UNL     1       0.422  11.859  21.040  0.00  0.00    +0.000 A 
ATOM     21  C   UNL     1      -0.338  10.940  20.312  0.00  0.00    +0.000 A 
ATOM     22  C   UNL     1      -1.339  11.405  19.457  0.00  0.00    +0.000 A 
ATOM     23  C   UNL     1      -1.633  12.776  19.392  0.00  0.00    +0.000 A 
BRANCH  18  25
ATOM     24  C   UNL     1      -2.108  15.421  21.260  0.00  0.00    +0.000 C 
ATOM     25  O   UNL     1      -1.162  15.023  20.278  0.00  0.00    +0.000 OA
ENDBRANCH  18  25
ENDBRANCH  17  21
ENDBRANCH   1  17
BRANCH   9  26
ATOM     26  C   UNL     1       2.429   5.395  20.830  0.00  0.00    +0.000 C 
BRANCH  26  27
ATOM     27  C   UNL     1       1.311   4.387  20.635  0.00  0.00    +0.000 C 
BRANCH  27  28
ATOM     28  C   UNL     1       1.449   3.139  21.491  0.00  0.00    +0.000 C 
ATOM     29  N   UNL     1       1.563   2.103  22.200  0.00  0.00    +0.000 NA
ENDBRANCH  27  28
ENDBRANCH  26  27
ENDBRANCH   9  26
TORSDOF 7
ENDMDL
MODEL 8
REMARK VINA RESULT:      -6.6      2.127      2.983
REMARK  Name = 
REMARK  8 active torsions:
REMARK  status: ('A' for Active; 'I' for Inactive)
REMARK    1  A    between atoms: C_1  and  O_2
REMARK    2  A    between atoms: O_2  and  C_3
REMARK    3  A    between atoms: C_6  and  O_7
REMARK    4  A    between atoms: O_7  and  C_8
REMARK    5  A    between atoms: C_13  and  C_14
REMARK    6  A    between atoms: N_21  and  C_22
REMARK    7  A    between atoms: C_22  and  C_23
REMARK    8  A    between atoms: C_23  and  C_24
REMARK                            x       y       z     vdW  Elec       q    Type
REMARK                         _______ _______ _______ _____ _____    ______ ____
ROOT
ATOM      1  C   UNL     1       0.793   9.321  19.500  0.00  0.00    +0.000 A 
ATOM      2  N   UNL     1       1.294   9.979  18.442  0.00  0.00    +0.000 NA
ATOM      3  C   UNL     1       2.246   9.341  17.737  0.00  0.00    +0.000 A 
ATOM      4  C   UNL     1       2.747   8.100  18.065  0.00  0.00    +0.000 A 
ATOM      5  N   UNL     1       3.722   7.495  17.263  0.00  0.00    +0.000 NA
ATOM      6  C   UNL     1       4.173   6.325  17.616  0.00  0.00    +0.000 A 
ATOM      7  C   UNL     1       3.688   5.625  18.897  0.00  0.00    +0.000 A 
ATOM      8  O   UNL     1       4.203   4.575  19.262  0.00  0.00    +0.000 OA
ATOM      9  N   UNL     1       2.675   6.263  19.609  0.00  0.00    +0.000 N 
ATOM     10  C   UNL     1       2.199   7.535  19.209  0.00  0.00    +0.000 A 
ATOM     11  N   UNL     1       1.232   8.130  19.943  0.00  0.00    +0.000 NA
ENDROOT
BRANCH   6  12
ATOM     12  C   UNL     1       5.170   5.644  16.808  0.00  0.00    +0.000 A 
ATOM     13  C   UNL     1       5.009   4.663  15.845  0.00  0.00    +0.000 A 
ATOM     14  C   UNL     1       6.247   4.225  15.293  0.00  0.00    +0.000 A 
ATOM     15  C   UNL     1       7.319   4.890  15.840  0.00  0.00    +0.000 A 
ATOM     16  S   UNL     1       6.831   6.046  16.997  0.00  0.00    +0.000 S 
ENDBRANCH   6  12
BRANCH   1  17
ATOM     17  O   UNL     1      -0.285   9.866  20.195  0.00  0.00    +0.000 OA
BRANCH  17  21
ATOM     18  C   UNL     1       0.376  13.605  21.952  0.00  0.00    +0.000 A 
ATOM     19  C   UNL     1      -0.673  12.807  22.407  0.00  0.00    +0.000 A 
ATOM     20  C   UNL     1      -0.882  11.538  21.869  0.00  0.00    +0.000 A 
ATOM     21  C   UNL     1      -0.085  11.081  20.817  0.00  0.00    +0.000 A 
ATOM     22  C   UNL     1       0.994  11.858  20.388  0.00  0.00    +0.000 A 
ATOM     23  C   UNL     1       1.224  13.122  20.955  0.00  0.00    +0.000 A 
BRANCH  18  25
ATOM     24  C   UNL     1       1.213  15.815  21.838  0.00  0.00    +0.000 C 
ATOM     25  O   UNL     1       0.437  14.844  22.526  0.00  0.00    +0.000 OA
ENDBRANCH  18  25
ENDBRANCH  17  21
ENDBRANCH   1  17
BRANCH   9  26
ATOM     26  C   UNL     1       2.179   5.655  20.837  0.00  0.00    +0.000 C 
BRANCH  26  27
ATOM     27  C   UNL     1       1.210   4.502  20.644  0.00  0.00    +0.000 C 
BRANCH  27  28
ATOM     28  C   UNL     1       1.568   3.254  21.434  0.00  0.00    +0.000 C 
ATOM     29  N   UNL     1       1.865   2.219  22.089  0.00  0.00    +0.000 NA
ENDBRANCH  27  28
ENDBRANCH  26  27
ENDBRANCH   9  26
TORSDOF 7
ENDMDL
MODEL 9
REMARK VINA RESULT:      -6.6      3.895      9.592
REMARK  Name = 
REMARK  8 active torsions:
REMARK  status: ('A' for Active; 'I' for Inactive)
REMARK    1  A    between atoms: C_1  and  O_2
REMARK    2  A    between atoms: O_2  and  C_3
REMARK    3  A    between atoms: C_6  and  O_7
REMARK    4  A    between atoms: O_7  and  C_8
REMARK    5  A    between atoms: C_13  and  C_14
REMARK    6  A    between atoms: N_21  and  C_22
REMARK    7  A    between atoms: C_22  and  C_23
REMARK    8  A    between atoms: C_23  and  C_24
REMARK                            x       y       z     vdW  Elec       q    Type
REMARK                         _______ _______ _______ _____ _____    ______ ____
ROOT
ATOM      1  C   UNL     1       1.456   8.634  20.004  0.00  0.00    +0.000 A 
ATOM      2  N   UNL     1       1.646   8.425  21.318  0.00  0.00    +0.000 NA
ATOM      3  C   UNL     1       0.911   9.179  22.156  0.00  0.00    +0.000 A 
ATOM      4  C   UNL     1       0.031  10.156  21.744  0.00  0.00    +0.000 A 
ATOM      5  N   UNL     1      -0.713  10.880  22.682  0.00  0.00    +0.000 NA
ATOM      6  C   UNL     1      -1.526  11.801  22.247  0.00  0.00    +0.000 A 
ATOM      7  C   UNL     1      -1.653  12.126  20.749  0.00  0.00    +0.000 A 
ATOM      8  O   UNL     1      -2.345  13.064  20.375  0.00  0.00    +0.000 OA
ATOM      9  N   UNL     1      -0.924  11.322  19.875  0.00  0.00    +0.000 N 
ATOM     10  C   UNL     1      -0.045  10.327  20.368  0.00  0.00    +0.000 A 
ATOM     11  N   UNL     1       0.662   9.587  19.485  0.00  0.00    +0.000 NA
ENDROOT
BRANCH   6  12
ATOM     12  C   UNL     1      -2.338  12.567  23.177  0.00  0.00    +0.000 A 
ATOM     13  C   UNL     1      -3.598  12.298  23.683  0.00  0.00    +0.000 A 
ATOM     14  C   UNL     1      -4.072  13.319  24.554  0.00  0.00    +0.000 A 
ATOM     15  C   UNL     1      -3.158  14.335  24.702  0.00  0.00    +0.000 A 
ATOM     16  S   UNL     1      -1.733  14.048  23.808  0.00  0.00    +0.000 S 
ENDBRANCH   6  12
BRANCH   1  17
ATOM     17  O   UNL     1       2.085   7.800  19.083  0.00  0.00    +0.000 OA
BRANCH  17  21
ATOM     18  C   UNL     1       3.126   3.945  20.330  0.00  0.00    +0.000 A 
ATOM     19  C   UNL     1       1.875   4.462  20.664  0.00  0.00    +0.000 A 
ATOM     20  C   UNL     1       1.488   5.724  20.218  0.00  0.00    +0.000 A 
ATOM     21  C   UNL     1       2.381   6.516  19.492  0.00  0.00    +0.000 A 
ATOM     22  C   UNL     1       3.618   5.986  19.117  0.00  0.00    +0.000 A 
ATOM     23  C   UNL     1       3.992   4.700  19.538  0.00  0.00    +0.000 A 
BRANCH  18  25
ATOM     24  C   UNL     1       4.394   1.951  20.216  0.00  0.00    +0.000 C 
ATOM     25  O   UNL     1       3.398   2.721  20.874  0.00  0.00    +0.000 OA
ENDBRANCH  18  25
ENDBRANCH  17  21
ENDBRANCH   1  17
BRANCH   9  26
ATOM     26  C   UNL     1      -0.994  11.586  18.443  0.00  0.00    +0.000 C 
BRANCH  26  27
ATOM     27  C   UNL     1      -1.976  10.722  17.672  0.00  0.00    +0.000 C 
BRANCH  27  28
ATOM     28  C   UNL     1      -3.393  11.270  17.644  0.00  0.00    +0.000 C 
ATOM     29  N   UNL     1      -4.569  11.726  17.622  0.00  0.00    +0.000 NA
ENDBRANCH  27  28
ENDBRANCH  26  27
ENDBRANCH   9  26
TORSDOF 7
ENDMDL
