MODEL 1
REMARK VINA RESULT:      -6.2      0.000      0.000
REMARK  Name = 
REMARK  5 active torsions:
REMARK  status: ('A' for Active; 'I' for Inactive)
REMARK    1  A    between atoms: C_2  and  C_3
REMARK    2  A    between atoms: C_3  and  S_22
REMARK    3  A    between atoms: C_4  and  C_5
REMARK    4  A    between atoms: C_6  and  N_7
REMARK    5  A    between atoms: S_22  and  C_25
REMARK                            x       y       z     vdW  Elec       q    Type
REMARK                         _______ _______ _______ _____ _____    ______ ____
ROOT
ATOM      1  C   UNL     1       2.418  15.235  18.575  0.00  0.00    +0.000 A 
ATOM      2  C   UNL     1       2.561  16.563  18.797  0.00  0.00    +0.000 A 
ATOM      3  N   UNL     1       3.794  17.165  18.833  0.00  0.00    +0.000 NA
ATOM      4  C   UNL     1       4.855  16.465  18.584  0.00  0.00    +0.000 A 
ATOM      5  C   UNL     1       6.189  17.134  18.640  0.00  0.00    +0.000 A 
ATOM      6  C   UNL     1       7.304  16.427  18.414  0.00  0.00    +0.000 A 
ATOM      7  C   UNL     1       7.224  15.029  18.082  0.00  0.00    +0.000 A 
ATOM      8  C   UNL     1       6.029  14.428  18.022  0.00  0.00    +0.000 A 
ATOM      9  N   UNL     1       4.847  15.115  18.283  0.00  0.00    +0.000 N 
ATOM     10  C   UNL     1       3.649  14.426  18.308  0.00  0.00    +0.000 A 
ATOM     11  O   UNL     1       3.547  13.206  18.158  0.00  0.00    +0.000 OA
ENDROOT
BRANCH   2  12
ATOM     12  N   UNL     1       1.428  17.336  19.071  0.00  0.00    +0.000 N 
ATOM     13  C   UNL     1       1.135  17.793  20.427  0.00  0.00    +0.000 C 
ATOM     14  C   UNL     1      -0.300  17.378  20.753  0.00  0.00    +0.000 C 
ATOM     15  C   UNL     1      -1.291  17.935  19.727  0.00  0.00    +0.000 C 
ATOM     16  C   UNL     1      -0.872  17.610  18.293  0.00  0.00    +0.000 C 
ATOM     17  C   UNL     1       0.596  17.963  18.038  0.00  0.00    +0.000 C 
ENDBRANCH   2  12
BRANCH   1  19
ATOM     18  C   UNL     1       0.622  13.975  19.769  0.00  0.00    +0.000 C 
ATOM     19  C   UNL     1       1.106  14.576  18.666  0.00  0.00    +0.000 C 
BRANCH  18  20
ATOM     20  S   UNL     1      -0.895  13.171  19.740  0.00  0.00    +0.000 S 
ATOM     21  O   UNL     1      -1.916  14.031  20.322  0.00  0.00    +0.000 OA
ATOM     22  O   UNL     1      -1.090  12.643  18.402  0.00  0.00    +0.000 OA
BRANCH  20  23
ATOM     23  C   UNL     1      -0.793  11.771  20.845  0.00  0.00    +0.000 A 
ATOM     24  C   UNL     1      -0.029  10.654  20.489  0.00  0.00    +0.000 A 
ATOM     25  C   UNL     1       0.173   9.634  21.424  0.00  0.00    +0.000 A 
ATOM     26  C   UNL     1      -0.369   9.736  22.706  0.00  0.00    +0.000 A 
ATOM     27  C   UNL     1      -1.134  10.848  23.056  0.00  0.00    +0.000 A 
ATOM     28  C   UNL     1      -1.349  11.869  22.127  0.00  0.00    +0.000 A 
ENDBRANCH  20  23
ENDBRANCH  18  20
BRANCH  18  30
ATOM     29  N   UNL     1       2.039  14.287  22.141  0.00  0.00    +0.000 NA
ATOM     30  C   UNL     1       1.396  14.145  21.066  0.00  0.00    +0.000 C 
ENDBRANCH  18  30
ENDBRANCH   1  19
TORSDOF 5
ENDMDL
MODEL 2
REMARK VINA RESULT:      -6.1      4.789      8.026
REMARK  Name = 
REMARK  5 active torsions:
REMARK  status: ('A' for Active; 'I' for Inactive)
REMARK    1  A    between atoms: C_2  and  C_3
REMARK    2  A    between atoms: C_3  and  S_22
REMARK    3  A    between atoms: C_4  and  C_5
REMARK    4  A    between atoms: C_6  and  N_7
REMARK    5  A    between atoms: S_22  and  C_25
REMARK                            x       y       z     vdW  Elec       q    Type
REMARK                         _______ _______ _______ _____ _____    ______ ____
ROOT
ATOM      1  C   UNL     1       6.043  15.523  19.774  0.00  0.00    +0.000 A 
ATOM      2  C   UNL     1       5.716  16.138  20.936  0.00  0.00    +0.000 A 
ATOM      3  N   UNL     1       4.554  16.853  21.079  0.00  0.00    +0.000 NA
ATOM      4  C   UNL     1       3.705  16.896  20.101  0.00  0.00    +0.000 A 
ATOM      5  C   UNL     1       2.452  17.690  20.268  0.00  0.00    +0.000 A 
ATOM      6  C   UNL     1       1.571  17.773  19.263  0.00  0.00    +0.000 A 
ATOM      7  C   UNL     1       1.808  17.072  18.029  0.00  0.00    +0.000 A 
ATOM      8  C   UNL     1       2.926  16.352  17.879  0.00  0.00    +0.000 A 
ATOM      9  N   UNL     1       3.885  16.265  18.883  0.00  0.00    +0.000 N 
ATOM     10  C   UNL     1       5.069  15.593  18.640  0.00  0.00    +0.000 A 
ATOM     11  O   UNL     1       5.370  15.088  17.556  0.00  0.00    +0.000 OA
ENDROOT
BRANCH   2  12
ATOM     12  N   UNL     1       6.620  16.107  22.004  0.00  0.00    +0.000 N 
ATOM     13  C   UNL     1       7.454  17.262  22.321  0.00  0.00    +0.000 C 
ATOM     14  C   UNL     1       8.904  16.780  22.386  0.00  0.00    +0.000 C 
ATOM     15  C   UNL     1       9.073  15.647  23.402  0.00  0.00    +0.000 C 
ATOM     16  C   UNL     1       8.064  14.521  23.174  0.00  0.00    +0.000 C 
ATOM     17  C   UNL     1       6.638  15.059  23.031  0.00  0.00    +0.000 C 
ENDBRANCH   2  12
BRANCH   1  19
ATOM     18  C   UNL     1       8.417  15.438  19.003  0.00  0.00    +0.000 C 
ATOM     19  C   UNL     1       7.347  14.869  19.590  0.00  0.00    +0.000 C 
BRANCH  18  20
ATOM     20  S   UNL     1       9.870  14.552  18.774  0.00  0.00    +0.000 S 
ATOM     21  O   UNL     1      10.283  14.641  17.380  0.00  0.00    +0.000 OA
ATOM     22  O   UNL     1      10.799  14.950  19.815  0.00  0.00    +0.000 OA
BRANCH  20  23
ATOM     23  C   UNL     1       9.503  12.823  19.034  0.00  0.00    +0.000 A 
ATOM     24  C   UNL     1       9.146  12.013  17.950  0.00  0.00    +0.000 A 
ATOM     25  C   UNL     1       9.017  10.634  18.136  0.00  0.00    +0.000 A 
ATOM     26  C   UNL     1       9.257  10.067  19.389  0.00  0.00    +0.000 A 
ATOM     27  C   UNL     1       9.608  10.876  20.468  0.00  0.00    +0.000 A 
ATOM     28  C   UNL     1       9.731  12.258  20.295  0.00  0.00    +0.000 A 
ENDBRANCH  20  23
ENDBRANCH  18  20
BRANCH  18  30
ATOM     29  N   UNL     1       8.275  18.149  18.400  0.00  0.00    +0.000 NA
ATOM     30  C   UNL     1       8.339  16.920  18.674  0.00  0.00    +0.000 C 
ENDBRANCH  18  30
ENDBRANCH   1  19
TORSDOF 5
ENDMDL
MODEL 3
REMARK VINA RESULT:      -6.0      3.657      6.243
REMARK  Name = 
REMARK  5 active torsions:
REMARK  status: ('A' for Active; 'I' for Inactive)
REMARK    1  A    between atoms: C_2  and  C_3
REMARK    2  A    between atoms: C_3  and  S_22
REMARK    3  A    between atoms: C_4  and  C_5
REMARK    4  A    between atoms: C_6  and  N_7
REMARK    5  A    between atoms: S_22  and  C_25
REMARK                            x       y       z     vdW  Elec       q    Type
REMARK                         _______ _______ _______ _____ _____    ______ ____
ROOT
ATOM      1  C   UNL     1      -0.010  12.585  19.226  0.00  0.00    +0.000 A 
ATOM      2  C   UNL     1       0.715  11.908  20.148  0.00  0.00    +0.000 A 
ATOM      3  N   UNL     1       1.662  12.526  20.925  0.00  0.00    +0.000 NA
ATOM      4  C   UNL     1       1.832  13.806  20.829  0.00  0.00    +0.000 A 
ATOM      5  C   UNL     1       2.876  14.461  21.672  0.00  0.00    +0.000 A 
ATOM      6  C   UNL     1       3.091  15.779  21.572  0.00  0.00    +0.000 A 
ATOM      7  C   UNL     1       2.296  16.579  20.678  0.00  0.00    +0.000 A 
ATOM      8  C   UNL     1       1.353  15.997  19.927  0.00  0.00    +0.000 A 
ATOM      9  N   UNL     1       1.118  14.626  19.973  0.00  0.00    +0.000 N 
ATOM     10  C   UNL     1       0.204  14.061  19.104  0.00  0.00    +0.000 A 
ATOM     11  O   UNL     1      -0.405  14.688  18.233  0.00  0.00    +0.000 OA
ENDROOT
BRANCH   2  12
ATOM     12  N   UNL     1       0.550  10.523  20.266  0.00  0.00    +0.000 N 
ATOM     13  C   UNL     1      -0.293   9.950  21.311  0.00  0.00    +0.000 C 
ATOM     14  C   UNL     1       0.541   8.906  22.055  0.00  0.00    +0.000 C 
ATOM     15  C   UNL     1       1.086   7.841  21.099  0.00  0.00    +0.000 C 
ATOM     16  C   UNL     1       1.808   8.461  19.904  0.00  0.00    +0.000 C 
ATOM     17  C   UNL     1       0.971   9.559  19.243  0.00  0.00    +0.000 C 
ENDBRANCH   2  12
BRANCH   1  19
ATOM     18  C   UNL     1      -2.239  11.688  18.544  0.00  0.00    +0.000 C 
ATOM     19  C   UNL     1      -0.930  11.893  18.310  0.00  0.00    +0.000 C 
BRANCH  18  20
ATOM     20  S   UNL     1      -3.203  10.801  17.434  0.00  0.00    +0.000 S 
ATOM     21  O   UNL     1      -2.878  11.202  16.073  0.00  0.00    +0.000 OA
ATOM     22  O   UNL     1      -3.120   9.398  17.799  0.00  0.00    +0.000 OA
BRANCH  20  23
ATOM     23  C   UNL     1      -4.903  11.300  17.665  0.00  0.00    +0.000 A 
ATOM     24  C   UNL     1      -5.690  10.676  18.639  0.00  0.00    +0.000 A 
ATOM     25  C   UNL     1      -6.963  11.179  18.920  0.00  0.00    +0.000 A 
ATOM     26  C   UNL     1      -7.441  12.304  18.246  0.00  0.00    +0.000 A 
ATOM     27  C   UNL     1      -6.657  12.922  17.272  0.00  0.00    +0.000 A 
ATOM     28  C   UNL     1      -5.385  12.422  16.977  0.00  0.00    +0.000 A 
ENDBRANCH  20  23
ENDBRANCH  18  20
BRANCH  18  30
ATOM     29  N   UNL     1      -3.375  12.949  20.747  0.00  0.00    +0.000 NA
ATOM     30  C   UNL     1      -2.860  12.377  19.748  0.00  0.00    +0.000 C 
ENDBRANCH  18  30
ENDBRANCH   1  19
TORSDOF 5
ENDMDL
MODEL 4
REMARK VINA RESULT:      -6.0      2.856      4.677
REMARK  Name = 
REMARK  5 active torsions:
REMARK  status: ('A' for Active; 'I' for Inactive)
REMARK    1  A    between atoms: C_2  and  C_3
REMARK    2  A    between atoms: C_3  and  S_22
REMARK    3  A    between atoms: C_4  and  C_5
REMARK    4  A    between atoms: C_6  and  N_7
REMARK    5  A    between atoms: S_22  and  C_25
REMARK                            x       y       z     vdW  Elec       q    Type
REMARK                         _______ _______ _______ _____ _____    ______ ____
ROOT
ATOM      1  C   UNL     1       0.945  13.623  19.896  0.00  0.00    +0.000 A 
ATOM      2  C   UNL     1      -0.061  14.476  20.205  0.00  0.00    +0.000 A 
ATOM      3  N   UNL     1      -0.110  15.754  19.706  0.00  0.00    +0.000 NA
ATOM      4  C   UNL     1       0.792  16.146  18.863  0.00  0.00    +0.000 A 
ATOM      5  C   UNL     1       0.732  17.544  18.340  0.00  0.00    +0.000 A 
ATOM      6  C   UNL     1       1.668  17.983  17.489  0.00  0.00    +0.000 A 
ATOM      7  C   UNL     1       2.718  17.104  17.046  0.00  0.00    +0.000 A 
ATOM      8  C   UNL     1       2.770  15.848  17.505  0.00  0.00    +0.000 A 
ATOM      9  N   UNL     1       1.839  15.359  18.417  0.00  0.00    +0.000 N 
ATOM     10  C   UNL     1       1.996  14.088  18.938  0.00  0.00    +0.000 A 
ATOM     11  O   UNL     1       2.951  13.348  18.685  0.00  0.00    +0.000 OA
ENDROOT
BRANCH   2  12
ATOM     12  N   UNL     1      -1.044  14.074  21.115  0.00  0.00    +0.000 N 
ATOM     13  C   UNL     1      -0.803  14.118  22.555  0.00  0.00    +0.000 C 
ATOM     14  C   UNL     1      -1.132  12.736  23.120  0.00  0.00    +0.000 C 
ATOM     15  C   UNL     1      -2.567  12.321  22.784  0.00  0.00    +0.000 C 
ATOM     16  C   UNL     1      -2.868  12.458  21.292  0.00  0.00    +0.000 C 
ATOM     17  C   UNL     1      -2.444  13.827  20.752  0.00  0.00    +0.000 C 
ENDBRANCH   2  12
BRANCH   1  19
ATOM     18  C   UNL     1       0.356  11.212  20.175  0.00  0.00    +0.000 C 
ATOM     19  C   UNL     1       1.058  12.303  20.534  0.00  0.00    +0.000 C 
BRANCH  18  20
ATOM     20  S   UNL     1       0.516   9.738  21.042  0.00  0.00    +0.000 S 
ATOM     21  O   UNL     1       1.320   9.957  22.236  0.00  0.00    +0.000 OA
ATOM     22  O   UNL     1      -0.808   9.158  21.174  0.00  0.00    +0.000 OA
BRANCH  20  23
ATOM     23  C   UNL     1       1.481   8.617  20.040  0.00  0.00    +0.000 A 
ATOM     24  C   UNL     1       1.788   7.339  20.520  0.00  0.00    +0.000 A 
ATOM     25  C   UNL     1       2.405   6.416  19.670  0.00  0.00    +0.000 A 
ATOM     26  C   UNL     1       2.697   6.761  18.349  0.00  0.00    +0.000 A 
ATOM     27  C   UNL     1       2.394   8.037  17.875  0.00  0.00    +0.000 A 
ATOM     28  C   UNL     1       1.786   8.970  18.719  0.00  0.00    +0.000 A 
ENDBRANCH  20  23
ENDBRANCH  18  20
BRANCH  18  30
ATOM     29  N   UNL     1      -1.164  11.356  17.852  0.00  0.00    +0.000 NA
ATOM     30  C   UNL     1      -0.474  11.291  18.905  0.00  0.00    +0.000 C 
ENDBRANCH  18  30
ENDBRANCH   1  19
TORSDOF 5
ENDMDL
MODEL 5
REMARK VINA RESULT:      -6.0      4.310      8.545
REMARK  Name = 
REMARK  5 active torsions:
REMARK  status: ('A' for Active; 'I' for Inactive)
REMARK    1  A    between atoms: C_2  and  C_3
REMARK    2  A    between atoms: C_3  and  S_22
REMARK    3  A    between atoms: C_4  and  C_5
REMARK    4  A    between atoms: C_6  and  N_7
REMARK    5  A    between atoms: S_22  and  C_25
REMARK                            x       y       z     vdW  Elec       q    Type
REMARK                         _______ _______ _______ _____ _____    ______ ____
ROOT
ATOM      1  C   UNL     1       6.040  14.865  19.875  0.00  0.00    +0.000 A 
ATOM      2  C   UNL     1       5.664  14.884  21.176  0.00  0.00    +0.000 A 
ATOM      3  N   UNL     1       4.352  15.030  21.552  0.00  0.00    +0.000 NA
ATOM      4  C   UNL     1       3.430  15.087  20.644  0.00  0.00    +0.000 A 
ATOM      5  C   UNL     1       2.009  15.260  21.069  0.00  0.00    +0.000 A 
ATOM      6  C   UNL     1       1.039  15.350  20.150  0.00  0.00    +0.000 A 
ATOM      7  C   UNL     1       1.353  15.246  18.750  0.00  0.00    +0.000 A 
ATOM      8  C   UNL     1       2.625  15.083  18.365  0.00  0.00    +0.000 A 
ATOM      9  N   UNL     1       3.669  15.018  19.283  0.00  0.00    +0.000 N 
ATOM     10  C   UNL     1       4.973  14.952  18.830  0.00  0.00    +0.000 A 
ATOM     11  O   UNL     1       5.297  14.992  17.640  0.00  0.00    +0.000 OA
ENDROOT
BRANCH   2  12
ATOM     12  N   UNL     1       6.645  14.827  22.172  0.00  0.00    +0.000 N 
ATOM     13  C   UNL     1       7.067  16.029  22.886  0.00  0.00    +0.000 C 
ATOM     14  C   UNL     1       8.591  16.111  22.791  0.00  0.00    +0.000 C 
ATOM     15  C   UNL     1       9.255  14.846  23.341  0.00  0.00    +0.000 C 
ATOM     16  C   UNL     1       8.671  13.577  22.720  0.00  0.00    +0.000 C 
ATOM     17  C   UNL     1       7.140  13.578  22.762  0.00  0.00    +0.000 C 
ENDBRANCH   2  12
BRANCH   1  19
ATOM     18  C   UNL     1       8.194  15.924  19.183  0.00  0.00    +0.000 C 
ATOM     19  C   UNL     1       7.458  14.838  19.484  0.00  0.00    +0.000 C 
BRANCH  18  20
ATOM     20  S   UNL     1       9.823  15.768  18.666  0.00  0.00    +0.000 S 
ATOM     21  O   UNL     1       9.916  16.060  17.243  0.00  0.00    +0.000 OA
ATOM     22  O   UNL     1      10.655  16.507  19.598  0.00  0.00    +0.000 OA
BRANCH  20  23
ATOM     23  C   UNL     1      10.280  14.047  18.810  0.00  0.00    +0.000 A 
ATOM     24  C   UNL     1      10.127  13.188  17.716  0.00  0.00    +0.000 A 
ATOM     25  C   UNL     1      10.633  11.887  17.787  0.00  0.00    +0.000 A 
ATOM     26  C   UNL     1      11.299  11.452  18.934  0.00  0.00    +0.000 A 
ATOM     27  C   UNL     1      11.446  12.308  20.025  0.00  0.00    +0.000 A 
ATOM     28  C   UNL     1      10.937  13.608  19.968  0.00  0.00    +0.000 A 
ENDBRANCH  20  23
ENDBRANCH  18  20
BRANCH  18  30
ATOM     29  N   UNL     1       7.070  18.423  19.659  0.00  0.00    +0.000 NA
ATOM     30  C   UNL     1       7.579  17.289  19.443  0.00  0.00    +0.000 C 
ENDBRANCH  18  30
ENDBRANCH   1  19
TORSDOF 5
ENDMDL
MODEL 6
REMARK VINA RESULT:      -5.9      3.879      6.340
REMARK  Name = 
REMARK  5 active torsions:
REMARK  status: ('A' for Active; 'I' for Inactive)
REMARK    1  A    between atoms: C_2  and  C_3
REMARK    2  A    between atoms: C_3  and  S_22
REMARK    3  A    between atoms: C_4  and  C_5
REMARK    4  A    between atoms: C_6  and  N_7
REMARK    5  A    between atoms: S_22  and  C_25
REMARK                            x       y       z     vdW  Elec       q    Type
REMARK                         _______ _______ _______ _____ _____    ______ ____
ROOT
ATOM      1  C   UNL     1       7.487  14.380  19.694  0.00  0.00    +0.000 A 
ATOM      2  C   UNL     1       8.120  14.263  20.886  0.00  0.00    +0.000 A 
ATOM      3  N   UNL     1       9.318  13.605  21.011  0.00  0.00    +0.000 NA
ATOM      4  C   UNL     1       9.902  13.133  19.956  0.00  0.00    +0.000 A 
ATOM      5  C   UNL     1      11.198  12.407  20.112  0.00  0.00    +0.000 A 
ATOM      6  C   UNL     1      11.808  11.886  19.040  0.00  0.00    +0.000 A 
ATOM      7  C   UNL     1      11.239  12.049  17.728  0.00  0.00    +0.000 A 
ATOM      8  C   UNL     1      10.082  12.706  17.584  0.00  0.00    +0.000 A 
ATOM      9  N   UNL     1       9.395  13.235  18.672  0.00  0.00    +0.000 N 
ATOM     10  C   UNL     1       8.155  13.814  18.481  0.00  0.00    +0.000 A 
ATOM     11  O   UNL     1       7.571  13.860  17.395  0.00  0.00    +0.000 OA
ENDROOT
BRANCH   2  12
ATOM     12  N   UNL     1       7.505  14.763  22.039  0.00  0.00    +0.000 N 
ATOM     13  C   UNL     1       6.809  13.877  22.968  0.00  0.00    +0.000 C 
ATOM     14  C   UNL     1       5.406  14.446  23.182  0.00  0.00    +0.000 C 
ATOM     15  C   UNL     1       5.459  15.891  23.687  0.00  0.00    +0.000 C 
ATOM     16  C   UNL     1       6.347  16.772  22.809  0.00  0.00    +0.000 C 
ATOM     17  C   UNL     1       7.710  16.122  22.551  0.00  0.00    +0.000 C 
ENDBRANCH   2  12
BRANCH   1  19
ATOM     18  C   UNL     1       5.893  16.255  19.269  0.00  0.00    +0.000 C 
ATOM     19  C   UNL     1       6.145  14.972  19.591  0.00  0.00    +0.000 C 
BRANCH  18  20
ATOM     20  S   UNL     1       4.286  16.859  19.250  0.00  0.00    +0.000 S 
ATOM     21  O   UNL     1       4.195  18.036  20.102  0.00  0.00    +0.000 OA
ATOM     22  O   UNL     1       3.865  16.953  17.864  0.00  0.00    +0.000 OA
BRANCH  20  23
ATOM     23  C   UNL     1       3.236  15.644  20.033  0.00  0.00    +0.000 A 
ATOM     24  C   UNL     1       2.695  15.898  21.298  0.00  0.00    +0.000 A 
ATOM     25  C   UNL     1       1.751  15.016  21.832  0.00  0.00    +0.000 A 
ATOM     26  C   UNL     1       1.340  13.899  21.103  0.00  0.00    +0.000 A 
ATOM     27  C   UNL     1       1.884  13.645  19.845  0.00  0.00    +0.000 A 
ATOM     28  C   UNL     1       2.835  14.516  19.305  0.00  0.00    +0.000 A 
ENDBRANCH  20  23
ENDBRANCH  18  20
BRANCH  18  30
ATOM     29  N   UNL     1       8.026  17.816  18.405  0.00  0.00    +0.000 NA
ATOM     30  C   UNL     1       7.059  17.108  18.797  0.00  0.00    +0.000 C 
ENDBRANCH  18  30
ENDBRANCH   1  19
TORSDOF 5
ENDMDL
MODEL 7
REMARK VINA RESULT:      -5.9      3.646      5.856
REMARK  Name = 
REMARK  5 active torsions:
REMARK  status: ('A' for Active; 'I' for Inactive)
REMARK    1  A    between atoms: C_2  and  C_3
REMARK    2  A    between atoms: C_3  and  S_22
REMARK    3  A    between atoms: C_4  and  C_5
REMARK    4  A    between atoms: C_6  and  N_7
REMARK    5  A    between atoms: S_22  and  C_25
REMARK                            x       y       z     vdW  Elec       q    Type
REMARK                         _______ _______ _______ _____ _____    ______ ____
ROOT
ATOM      1  C   UNL     1      -0.953  13.501  20.440  0.00  0.00    +0.000 A 
ATOM      2  C   UNL     1      -0.765  12.689  19.372  0.00  0.00    +0.000 A 
ATOM      3  N   UNL     1       0.343  12.789  18.569  0.00  0.00    +0.000 NA
ATOM      4  C   UNL     1       1.274  13.640  18.867  0.00  0.00    +0.000 A 
ATOM      5  C   UNL     1       2.466  13.746  17.974  0.00  0.00    +0.000 A 
ATOM      6  C   UNL     1       3.430  14.636  18.244  0.00  0.00    +0.000 A 
ATOM      7  C   UNL     1       3.341  15.472  19.412  0.00  0.00    +0.000 A 
ATOM      8  C   UNL     1       2.278  15.373  20.219  0.00  0.00    +0.000 A 
ATOM      9  N   UNL     1       1.237  14.487  19.960  0.00  0.00    +0.000 N 
ATOM     10  C   UNL     1       0.115  14.496  20.768  0.00  0.00    +0.000 A 
ATOM     11  O   UNL     1      -0.061  15.283  21.701  0.00  0.00    +0.000 OA
ENDROOT
BRANCH   2  12
ATOM     12  N   UNL     1      -1.759  11.765  19.031  0.00  0.00    +0.000 N 
ATOM     13  C   UNL     1      -1.502  10.329  19.073  0.00  0.00    +0.000 C 
ATOM     14  C   UNL     1      -1.901   9.749  17.716  0.00  0.00    +0.000 C 
ATOM     15  C   UNL     1      -3.360  10.068  17.378  0.00  0.00    +0.000 C 
ATOM     16  C   UNL     1      -3.667  11.559  17.520  0.00  0.00    +0.000 C 
ATOM     17  C   UNL     1      -3.174  12.113  18.859  0.00  0.00    +0.000 C 
ENDBRANCH   2  12
BRANCH   1  19
ATOM     18  C   UNL     1      -2.466  12.610  22.217  0.00  0.00    +0.000 C 
ATOM     19  C   UNL     1      -2.201  13.473  21.217  0.00  0.00    +0.000 C 
BRANCH  18  20
ATOM     20  S   UNL     1      -3.989  12.621  23.008  0.00  0.00    +0.000 S 
ATOM     21  O   UNL     1      -5.044  12.342  22.044  0.00  0.00    +0.000 OA
ATOM     22  O   UNL     1      -3.876  11.792  24.195  0.00  0.00    +0.000 OA
BRANCH  20  23
ATOM     23  C   UNL     1      -4.306  14.289  23.564  0.00  0.00    +0.000 A 
ATOM     24  C   UNL     1      -5.525  14.906  23.264  0.00  0.00    +0.000 A 
ATOM     25  C   UNL     1      -5.826  16.147  23.834  0.00  0.00    +0.000 A 
ATOM     26  C   UNL     1      -4.925  16.756  24.709  0.00  0.00    +0.000 A 
ATOM     27  C   UNL     1      -3.709  16.141  25.003  0.00  0.00    +0.000 A 
ATOM     28  C   UNL     1      -3.394  14.906  24.431  0.00  0.00    +0.000 A 
ENDBRANCH  20  23
ENDBRANCH  18  20
BRANCH  18  30
ATOM     29  N   UNL     1      -0.391  10.989  23.112  0.00  0.00    +0.000 NA
ATOM     30  C   UNL     1      -1.332  11.724  22.706  0.00  0.00    +0.000 C 
ENDBRANCH  18  30
ENDBRANCH   1  19
TORSDOF 5
ENDMDL
MODEL 8
REMARK VINA RESULT:      -5.8      4.670      7.348
REMARK  Name = 
REMARK  5 active torsions:
REMARK  status: ('A' for Active; 'I' for Inactive)
REMARK    1  A    between atoms: C_2  and  C_3
REMARK    2  A    between atoms: C_3  and  S_22
REMARK    3  A    between atoms: C_4  and  C_5
REMARK    4  A    between atoms: C_6  and  N_7
REMARK    5  A    between atoms: S_22  and  C_25
REMARK                            x       y       z     vdW  Elec       q    Type
REMARK                         _______ _______ _______ _____ _____    ______ ____
ROOT
ATOM      1  C   UNL     1       8.118  14.385  20.434  0.00  0.00    +0.000 A 
ATOM      2  C   UNL     1       8.786  13.955  21.531  0.00  0.00    +0.000 A 
ATOM      3  N   UNL     1       9.883  13.136  21.439  0.00  0.00    +0.000 NA
ATOM      4  C   UNL     1      10.340  12.808  20.272  0.00  0.00    +0.000 A 
ATOM      5  C   UNL     1      11.526  11.904  20.189  0.00  0.00    +0.000 A 
ATOM      6  C   UNL     1      12.002  11.528  18.996  0.00  0.00    +0.000 A 
ATOM      7  C   UNL     1      11.398  12.018  17.785  0.00  0.00    +0.000 A 
ATOM      8  C   UNL     1      10.340  12.836  17.855  0.00  0.00    +0.000 A 
ATOM      9  N   UNL     1       9.791  13.225  19.073  0.00  0.00    +0.000 N 
ATOM     10  C   UNL     1       8.638  13.987  19.088  0.00  0.00    +0.000 A 
ATOM     11  O   UNL     1       8.013  14.321  18.078  0.00  0.00    +0.000 OA
ENDROOT
BRANCH   2  12
ATOM     12  N   UNL     1       8.307  14.295  22.800  0.00  0.00    +0.000 N 
ATOM     13  C   UNL     1       7.439  13.389  23.547  0.00  0.00    +0.000 C 
ATOM     14  C   UNL     1       6.199  14.179  23.966  0.00  0.00    +0.000 C 
ATOM     15  C   UNL     1       6.575  15.422  24.777  0.00  0.00    +0.000 C 
ATOM     16  C   UNL     1       7.629  16.271  24.067  0.00  0.00    +0.000 C 
ATOM     17  C   UNL     1       8.811  15.424  23.590  0.00  0.00    +0.000 C 
ENDBRANCH   2  12
BRANCH   1  19
ATOM     18  C   UNL     1       6.787  16.499  20.491  0.00  0.00    +0.000 C 
ATOM     19  C   UNL     1       6.870  15.156  20.546  0.00  0.00    +0.000 C 
BRANCH  18  20
ATOM     20  S   UNL     1       5.283  17.298  20.708  0.00  0.00    +0.000 S 
ATOM     21  O   UNL     1       4.844  17.148  22.088  0.00  0.00    +0.000 OA
ATOM     22  O   UNL     1       5.405  18.629  20.142  0.00  0.00    +0.000 OA
BRANCH  20  23
ATOM     23  C   UNL     1       4.058  16.429  19.741  0.00  0.00    +0.000 A 
ATOM     24  C   UNL     1       4.251  16.246  18.368  0.00  0.00    +0.000 A 
ATOM     25  C   UNL     1       3.369  15.431  17.652  0.00  0.00    +0.000 A 
ATOM     26  C   UNL     1       2.313  14.793  18.305  0.00  0.00    +0.000 A 
ATOM     27  C   UNL     1       2.120  14.980  19.673  0.00  0.00    +0.000 A 
ATOM     28  C   UNL     1       2.991  15.800  20.396  0.00  0.00    +0.000 A 
ENDBRANCH  20  23
ENDBRANCH  18  20
BRANCH  18  30
ATOM     29  N   UNL     1       9.075  17.909  19.776  0.00  0.00    +0.000 NA
ATOM     30  C   UNL     1       8.038  17.269  20.100  0.00  0.00    +0.000 C 
ENDBRANCH  18  30
ENDBRANCH   1  19
TORSDOF 5
ENDMDL
MODEL 9
REMARK VINA RESULT:      -5.8      3.155      5.322
REMARK  Name = 
REMARK  5 active torsions:
REMARK  status: ('A' for Active; 'I' for Inactive)
REMARK    1  A    between atoms: C_2  and  C_3
REMARK    2  A    between atoms: C_3  and  S_22
REMARK    3  A    between atoms: C_4  and  C_5
REMARK    4  A    between atoms: C_6  and  N_7
REMARK    5  A    between atoms: S_22  and  C_25
REMARK                            x       y       z     vdW  Elec       q    Type
REMARK                         _______ _______ _______ _____ _____    ______ ____
ROOT
ATOM      1  C   UNL     1       0.543  13.101  20.477  0.00  0.00    +0.000 A 
ATOM      2  C   UNL     1      -0.598  13.774  20.760  0.00  0.00    +0.000 A 
ATOM      3  N   UNL     1      -0.812  15.057  20.324  0.00  0.00    +0.000 NA
ATOM      4  C   UNL     1       0.068  15.630  19.566  0.00  0.00    +0.000 A 
ATOM      5  C   UNL     1      -0.174  17.032  19.112  0.00  0.00    +0.000 A 
ATOM      6  C   UNL     1       0.733  17.658  18.351  0.00  0.00    +0.000 A 
ATOM      7  C   UNL     1       1.929  16.974  17.936  0.00  0.00    +0.000 A 
ATOM      8  C   UNL     1       2.145  15.714  18.333  0.00  0.00    +0.000 A 
ATOM      9  N   UNL     1       1.247  15.037  19.153  0.00  0.00    +0.000 N 
ATOM     10  C   UNL     1       1.567  13.775  19.618  0.00  0.00    +0.000 A 
ATOM     11  O   UNL     1       2.637  13.203  19.395  0.00  0.00    +0.000 OA
ENDROOT
BRANCH   2  12
ATOM     12  N   UNL     1      -1.560  13.174  21.580  0.00  0.00    +0.000 N 
ATOM     13  C   UNL     1      -2.719  12.493  21.011  0.00  0.00    +0.000 C 
ATOM     14  C   UNL     1      -3.968  13.077  21.673  0.00  0.00    +0.000 C 
ATOM     15  C   UNL     1      -3.907  12.943  23.197  0.00  0.00    +0.000 C 
ATOM     16  C   UNL     1      -2.600  13.492  23.768  0.00  0.00    +0.000 C 
ATOM     17  C   UNL     1      -1.381  12.946  23.018  0.00  0.00    +0.000 C 
ENDBRANCH   2  12
BRANCH   1  19
ATOM     18  C   UNL     1       0.355  10.612  20.565  0.00  0.00    +0.000 C 
ATOM     19  C   UNL     1       0.819  11.777  21.055  0.00  0.00    +0.000 C 
BRANCH  18  20
ATOM     20  S   UNL     1       0.681   9.128  21.365  0.00  0.00    +0.000 S 
ATOM     21  O   UNL     1       1.583   9.363  22.484  0.00  0.00    +0.000 OA
ATOM     22  O   UNL     1      -0.589   8.467  21.605  0.00  0.00    +0.000 OA
BRANCH  20  23
ATOM     23  C   UNL     1       1.605   8.092  20.241  0.00  0.00    +0.000 A 
ATOM     24  C   UNL     1       1.836   6.749  20.557  0.00  0.00    +0.000 A 
ATOM     25  C   UNL     1       2.420   5.909  19.604  0.00  0.00    +0.000 A 
ATOM     26  C   UNL     1       2.755   6.402  18.342  0.00  0.00    +0.000 A 
ATOM     27  C   UNL     1       2.528   7.742  18.031  0.00  0.00    +0.000 A 
ATOM     28  C   UNL     1       1.953   8.592  18.979  0.00  0.00    +0.000 A 
ENDBRANCH  20  23
ENDBRANCH  18  20
BRANCH  18  30
ATOM     29  N   UNL     1      -0.933  10.665  18.101  0.00  0.00    +0.000 NA
ATOM     30  C   UNL     1      -0.349  10.641  19.218  0.00  0.00    +0.000 C 
ENDBRANCH  18  30
ENDBRANCH   1  19
TORSDOF 5
ENDMDL
