MODEL 1
REMARK VINA RESULT:      -7.1      0.000      0.000
REMARK  Name = 
REMARK  12 active torsions:
REMARK  status: ('A' for Active; 'I' for Inactive)
REMARK    1  A    between atoms: C_1  and  C_2
REMARK    2  A    between atoms: C_6  and  C_7
REMARK    3  A    between atoms: C_8  and  N_9
REMARK    4  A    between atoms: C_10  and  C_12
REMARK    5  A    between atoms: C_12  and  N_13
REMARK    6  A    between atoms: N_13  and  C_14
REMARK    7  A    between atoms: C_15  and  C_17
REMARK    8  A    between atoms: C_19  and  S_20
REMARK    9  A    between atoms: S_20  and  N_23
REMARK   10  A    between atoms: N_23  and  C_24
REMARK   11  A    between atoms: N_23  and  C_25
REMARK   12  A    between atoms: C_28  and  N_29
REMARK                            x       y       z     vdW  Elec       q    Type
REMARK                         _______ _______ _______ _____ _____    ______ ____
ROOT
ATOM      1  N   UNL     1       1.004   9.355  20.621  0.00  0.00    +0.000 N 
ATOM      2  C   UNL     1       0.761   8.070  21.273  0.00  0.00    +0.000 C 
ATOM      3  C   UNL     1       0.102  10.383  20.995  0.00  0.00    +0.000 C 
ATOM      4  O   UNL     1      -0.681  10.217  21.932  0.00  0.00    +0.000 OA
ENDROOT
BRANCH   3   5
ATOM      5  C   UNL     1       0.065  11.695  20.280  0.00  0.00    +0.000 A 
ATOM      6  C   UNL     1       0.973  12.679  20.727  0.00  0.00    +0.000 A 
ATOM      7  C   UNL     1       0.997  13.955  20.167  0.00  0.00    +0.000 A 
ATOM      8  C   UNL     1       0.298  14.198  18.995  0.00  0.00    +0.000 A 
ATOM      9  C   UNL     1      -0.520  13.187  18.473  0.00  0.00    +0.000 A 
ATOM     10  C   UNL     1      -0.707  11.932  19.111  0.00  0.00    +0.000 A 
BRANCH  10  11
ATOM     11  N   UNL     1      -1.637  11.090  18.522  0.00  0.00    +0.000 N 
ATOM     12  C   UNL     1      -1.376  10.014  17.576  0.00  0.00    +0.000 C 
ATOM     13  C   UNL     1      -2.391  10.234  16.465  0.00  0.00    +0.000 C 
ATOM     14  C   UNL     1      -3.597  10.820  17.180  0.00  0.00    +0.000 C 
ATOM     15  C   UNL     1      -3.023  11.564  18.387  0.00  0.00    +0.000 C 
ENDBRANCH  10  11
BRANCH   7  16
ATOM     16  S   UNL     1       1.957  15.244  20.947  0.00  0.00    +0.000 S 
ATOM     17  O   UNL     1       1.221  16.480  20.760  0.00  0.00    +0.000 OA
ATOM     18  O   UNL     1       2.322  14.770  22.262  0.00  0.00    +0.000 OA
BRANCH  16  19
ATOM     19  N   UNL     1       3.376  15.359  20.010  0.00  0.00    +0.000 NA
ATOM     20  C   UNL     1       3.513  16.532  19.128  0.00  0.00    +0.000 C 
ATOM     21  C   UNL     1       4.617  14.879  20.645  0.00  0.00    +0.000 C 
ENDBRANCH  16  19
ENDBRANCH   7  16
ENDBRANCH   3   5
BRANCH   1  22
ATOM     22  C   UNL     1       1.866   9.314  19.421  0.00  0.00    +0.000 C 
BRANCH  22  24
ATOM     23  N   UNL     1       2.913   7.070  19.175  0.00  0.00    +0.000 N 
ATOM     24  C   UNL     1       2.014   7.986  18.644  0.00  0.00    +0.000 C 
ATOM     25  O   UNL     1       1.413   7.836  17.580  0.00  0.00    +0.000 OA
ATOM     26  H   UNL     1       2.931   7.102  20.186  0.00  0.00    +0.000 HD
BRANCH  23  34
ATOM     27  C   UNL     1       1.447   4.713  20.190  0.00  0.00    +0.000 C 
ATOM     28  C   UNL     1       2.442   4.653  19.073  0.00  0.00    +0.000 A 
ATOM     29  C   UNL     1       2.638   3.410  18.426  0.00  0.00    +0.000 A 
ATOM     30  C   UNL     1       3.496   3.269  17.345  0.00  0.00    +0.000 A 
ATOM     31  C   UNL     1       4.187   4.374  16.900  0.00  0.00    +0.000 A 
ATOM     32  C   UNL     1       4.008   5.624  17.521  0.00  0.00    +0.000 A 
ATOM     33  C   UNL     1       4.803   6.730  16.940  0.00  0.00    +0.000 C 
ATOM     34  C   UNL     1       3.097   5.787  18.578  0.00  0.00    +0.000 A 
ENDBRANCH  23  34
ENDBRANCH  22  24
ENDBRANCH   1  22
TORSDOF 7
ENDMDL
MODEL 2
REMARK VINA RESULT:      -7.1      0.066      1.506
REMARK  Name = 
REMARK  12 active torsions:
REMARK  status: ('A' for Active; 'I' for Inactive)
REMARK    1  A    between atoms: C_1  and  C_2
REMARK    2  A    between atoms: C_6  and  C_7
REMARK    3  A    between atoms: C_8  and  N_9
REMARK    4  A    between atoms: C_10  and  C_12
REMARK    5  A    between atoms: C_12  and  N_13
REMARK    6  A    between atoms: N_13  and  C_14
REMARK    7  A    between atoms: C_15  and  C_17
REMARK    8  A    between atoms: C_19  and  S_20
REMARK    9  A    between atoms: S_20  and  N_23
REMARK   10  A    between atoms: N_23  and  C_24
REMARK   11  A    between atoms: N_23  and  C_25
REMARK   12  A    between atoms: C_28  and  N_29
REMARK                            x       y       z     vdW  Elec       q    Type
REMARK                         _______ _______ _______ _____ _____    ______ ____
ROOT
ATOM      1  N   UNL     1       1.007   9.314  20.595  0.00  0.00    +0.000 N 
ATOM      2  C   UNL     1       0.757   8.029  21.245  0.00  0.00    +0.000 C 
ATOM      3  C   UNL     1       0.106  10.343  20.966  0.00  0.00    +0.000 C 
ATOM      4  O   UNL     1      -0.682  10.179  21.899  0.00  0.00    +0.000 OA
ENDROOT
BRANCH   3   5
ATOM      5  C   UNL     1       0.076  11.656  20.252  0.00  0.00    +0.000 A 
ATOM      6  C   UNL     1       0.991  12.634  20.699  0.00  0.00    +0.000 A 
ATOM      7  C   UNL     1       1.021  13.911  20.141  0.00  0.00    +0.000 A 
ATOM      8  C   UNL     1       0.322  14.159  18.969  0.00  0.00    +0.000 A 
ATOM      9  C   UNL     1      -0.501  13.153  18.447  0.00  0.00    +0.000 A 
ATOM     10  C   UNL     1      -0.695  11.898  19.084  0.00  0.00    +0.000 A 
BRANCH  10  11
ATOM     11  N   UNL     1      -1.630  11.063  18.495  0.00  0.00    +0.000 N 
ATOM     12  C   UNL     1      -1.378  10.002  17.529  0.00  0.00    +0.000 C 
ATOM     13  C   UNL     1      -2.410  10.235  16.435  0.00  0.00    +0.000 C 
ATOM     14  C   UNL     1      -3.608  10.805  17.176  0.00  0.00    +0.000 C 
ATOM     15  C   UNL     1      -3.019  11.533  18.386  0.00  0.00    +0.000 C 
ENDBRANCH  10  11
BRANCH   7  16
ATOM     16  S   UNL     1       1.989  15.194  20.920  0.00  0.00    +0.000 S 
ATOM     17  O   UNL     1       1.245  16.429  20.762  0.00  0.00    +0.000 OA
ATOM     18  O   UNL     1       2.378  14.705  22.223  0.00  0.00    +0.000 OA
BRANCH  16  19
ATOM     19  N   UNL     1       3.391  15.327  19.962  0.00  0.00    +0.000 NA
ATOM     20  C   UNL     1       3.455  16.447  19.005  0.00  0.00    +0.000 C 
ATOM     21  C   UNL     1       4.663  14.959  20.611  0.00  0.00    +0.000 C 
ENDBRANCH  16  19
ENDBRANCH   7  16
ENDBRANCH   3   5
BRANCH   1  22
ATOM     22  C   UNL     1       1.874   9.270  19.400  0.00  0.00    +0.000 C 
BRANCH  22  24
ATOM     23  N   UNL     1       2.955   7.043  19.148  0.00  0.00    +0.000 N 
ATOM     24  C   UNL     1       2.031   7.940  18.628  0.00  0.00    +0.000 C 
ATOM     25  O   UNL     1       1.413   7.773  17.576  0.00  0.00    +0.000 OA
ATOM     26  H   UNL     1       2.992   7.082  20.159  0.00  0.00    +0.000 HD
BRANCH  23  34
ATOM     27  C   UNL     1       4.815   6.701  16.878  0.00  0.00    +0.000 C 
ATOM     28  C   UNL     1       3.997   5.589  17.454  0.00  0.00    +0.000 A 
ATOM     29  C   UNL     1       4.176   4.289  16.923  0.00  0.00    +0.000 A 
ATOM     30  C   UNL     1       3.504   3.187  17.429  0.00  0.00    +0.000 A 
ATOM     31  C   UNL     1       2.624   3.369  18.473  0.00  0.00    +0.000 A 
ATOM     32  C   UNL     1       2.430   4.649  19.024  0.00  0.00    +0.000 A 
ATOM     33  C   UNL     1       1.465   4.706  20.147  0.00  0.00    +0.000 C 
ATOM     34  C   UNL     1       3.150   5.760  18.556  0.00  0.00    +0.000 A 
ENDBRANCH  23  34
ENDBRANCH  22  24
ENDBRANCH   1  22
TORSDOF 7
ENDMDL
MODEL 3
REMARK VINA RESULT:      -7.0      0.947      1.211
REMARK  Name = 
REMARK  12 active torsions:
REMARK  status: ('A' for Active; 'I' for Inactive)
REMARK    1  A    between atoms: C_1  and  C_2
REMARK    2  A    between atoms: C_6  and  C_7
REMARK    3  A    between atoms: C_8  and  N_9
REMARK    4  A    between atoms: C_10  and  C_12
REMARK    5  A    between atoms: C_12  and  N_13
REMARK    6  A    between atoms: N_13  and  C_14
REMARK    7  A    between atoms: C_15  and  C_17
REMARK    8  A    between atoms: C_19  and  S_20
REMARK    9  A    between atoms: S_20  and  N_23
REMARK   10  A    between atoms: N_23  and  C_24
REMARK   11  A    between atoms: N_23  and  C_25
REMARK   12  A    between atoms: C_28  and  N_29
REMARK                            x       y       z     vdW  Elec       q    Type
REMARK                         _______ _______ _______ _____ _____    ______ ____
ROOT
ATOM      1  N   UNL     1       0.963   9.275  20.755  0.00  0.00    +0.000 N 
ATOM      2  C   UNL     1       0.626   8.022  21.428  0.00  0.00    +0.000 C 
ATOM      3  C   UNL     1       0.075  10.345  21.030  0.00  0.00    +0.000 C 
ATOM      4  O   UNL     1      -0.778  10.240  21.913  0.00  0.00    +0.000 OA
ENDROOT
BRANCH   3   5
ATOM      5  C   UNL     1       0.138  11.633  20.273  0.00  0.00    +0.000 A 
ATOM      6  C   UNL     1       1.116  12.560  20.693  0.00  0.00    +0.000 A 
ATOM      7  C   UNL     1       1.236  13.813  20.093  0.00  0.00    +0.000 A 
ATOM      8  C   UNL     1       0.560  14.069  18.910  0.00  0.00    +0.000 A 
ATOM      9  C   UNL     1      -0.329  13.105  18.416  0.00  0.00    +0.000 A 
ATOM     10  C   UNL     1      -0.611  11.888  19.093  0.00  0.00    +0.000 A 
BRANCH  10  11
ATOM     11  N   UNL     1      -1.599  11.100  18.527  0.00  0.00    +0.000 N 
ATOM     12  C   UNL     1      -1.424  10.040  17.543  0.00  0.00    +0.000 C 
ATOM     13  C   UNL     1      -2.479  10.328  16.486  0.00  0.00    +0.000 C 
ATOM     14  C   UNL     1      -3.627  10.941  17.271  0.00  0.00    +0.000 C 
ATOM     15  C   UNL     1      -2.970  11.630  18.468  0.00  0.00    +0.000 C 
ENDBRANCH  10  11
BRANCH   7  16
ATOM     16  S   UNL     1       2.287  15.052  20.835  0.00  0.00    +0.000 S 
ATOM     17  O   UNL     1       2.273  14.807  22.264  0.00  0.00    +0.000 OA
ATOM     18  O   UNL     1       3.520  15.074  20.082  0.00  0.00    +0.000 OA
BRANCH  16  19
ATOM     19  N   UNL     1       1.477  16.527  20.571  0.00  0.00    +0.000 NA
ATOM     20  C   UNL     1       0.784  17.135  21.721  0.00  0.00    +0.000 C 
ATOM     21  C   UNL     1       2.120  17.466  19.633  0.00  0.00    +0.000 C 
ENDBRANCH  16  19
ENDBRANCH   7  16
ENDBRANCH   3   5
BRANCH   1  22
ATOM     22  C   UNL     1       1.905   9.162  19.623  0.00  0.00    +0.000 C 
BRANCH  22  24
ATOM     23  N   UNL     1       2.757   6.843  19.324  0.00  0.00    +0.000 N 
ATOM     24  C   UNL     1       1.952   7.850  18.807  0.00  0.00    +0.000 C 
ATOM     25  O   UNL     1       1.360   7.785  17.729  0.00  0.00    +0.000 OA
ATOM     26  H   UNL     1       2.759   6.844  20.336  0.00  0.00    +0.000 HD
BRANCH  23  34
ATOM     27  C   UNL     1       1.139   4.571  20.299  0.00  0.00    +0.000 C 
ATOM     28  C   UNL     1       2.111   4.471  19.167  0.00  0.00    +0.000 A 
ATOM     29  C   UNL     1       2.208   3.235  18.484  0.00  0.00    +0.000 A 
ATOM     30  C   UNL     1       3.039   3.062  17.387  0.00  0.00    +0.000 A 
ATOM     31  C   UNL     1       3.802   4.126  16.959  0.00  0.00    +0.000 A 
ATOM     32  C   UNL     1       3.722   5.368  17.616  0.00  0.00    +0.000 A 
ATOM     33  C   UNL     1       4.587   6.430  17.053  0.00  0.00    +0.000 C 
ATOM     34  C   UNL     1       2.840   5.568  18.691  0.00  0.00    +0.000 A 
ENDBRANCH  23  34
ENDBRANCH  22  24
ENDBRANCH   1  22
TORSDOF 7
ENDMDL
MODEL 4
REMARK VINA RESULT:      -7.0      1.079      2.034
REMARK  Name = 
REMARK  12 active torsions:
REMARK  status: ('A' for Active; 'I' for Inactive)
REMARK    1  A    between atoms: C_1  and  C_2
REMARK    2  A    between atoms: C_6  and  C_7
REMARK    3  A    between atoms: C_8  and  N_9
REMARK    4  A    between atoms: C_10  and  C_12
REMARK    5  A    between atoms: C_12  and  N_13
REMARK    6  A    between atoms: N_13  and  C_14
REMARK    7  A    between atoms: C_15  and  C_17
REMARK    8  A    between atoms: C_19  and  S_20
REMARK    9  A    between atoms: S_20  and  N_23
REMARK   10  A    between atoms: N_23  and  C_24
REMARK   11  A    between atoms: N_23  and  C_25
REMARK   12  A    between atoms: C_28  and  N_29
REMARK                            x       y       z     vdW  Elec       q    Type
REMARK                         _______ _______ _______ _____ _____    ______ ____
ROOT
ATOM      1  N   UNL     1       1.019   9.318  20.612  0.00  0.00    +0.000 N 
ATOM      2  C   UNL     1       0.775   8.030  21.259  0.00  0.00    +0.000 C 
ATOM      3  C   UNL     1       0.112  10.342  20.984  0.00  0.00    +0.000 C 
ATOM      4  O   UNL     1      -0.677  10.172  21.915  0.00  0.00    +0.000 OA
ENDROOT
BRANCH   3   5
ATOM      5  C   UNL     1       0.076  11.656  20.272  0.00  0.00    +0.000 A 
ATOM      6  C   UNL     1       0.987  12.637  20.721  0.00  0.00    +0.000 A 
ATOM      7  C   UNL     1       1.012  13.915  20.165  0.00  0.00    +0.000 A 
ATOM      8  C   UNL     1       0.311  14.162  18.994  0.00  0.00    +0.000 A 
ATOM      9  C   UNL     1      -0.508  13.154  18.471  0.00  0.00    +0.000 A 
ATOM     10  C   UNL     1      -0.697  11.897  19.105  0.00  0.00    +0.000 A 
BRANCH  10  11
ATOM     11  N   UNL     1      -1.628  11.059  18.515  0.00  0.00    +0.000 N 
ATOM     12  C   UNL     1      -1.372   9.998  17.551  0.00  0.00    +0.000 C 
ATOM     13  C   UNL     1      -2.401  10.227  16.454  0.00  0.00    +0.000 C 
ATOM     14  C   UNL     1      -3.602  10.796  17.191  0.00  0.00    +0.000 C 
ATOM     15  C   UNL     1      -3.018  11.527  18.401  0.00  0.00    +0.000 C 
ENDBRANCH  10  11
BRANCH   7  16
ATOM     16  S   UNL     1       1.975  15.201  20.947  0.00  0.00    +0.000 S 
ATOM     17  O   UNL     1       2.481  14.645  22.187  0.00  0.00    +0.000 OA
ATOM     18  O   UNL     1       2.860  15.743  19.942  0.00  0.00    +0.000 OA
BRANCH  16  19
ATOM     19  N   UNL     1       0.842  16.404  21.362  0.00  0.00    +0.000 NA
ATOM     20  C   UNL     1       0.615  17.486  20.388  0.00  0.00    +0.000 C 
ATOM     21  C   UNL     1      -0.343  15.952  22.115  0.00  0.00    +0.000 C 
ENDBRANCH  16  19
ENDBRANCH   7  16
ENDBRANCH   3   5
BRANCH   1  22
ATOM     22  C   UNL     1       1.889   9.282  19.419  0.00  0.00    +0.000 C 
BRANCH  22  24
ATOM     23  N   UNL     1       2.967   7.056  19.149  0.00  0.00    +0.000 N 
ATOM     24  C   UNL     1       2.044   7.958  18.636  0.00  0.00    +0.000 C 
ATOM     25  O   UNL     1       1.425   7.800  17.584  0.00  0.00    +0.000 OA
ATOM     26  H   UNL     1       3.004   7.087  20.160  0.00  0.00    +0.000 HD
BRANCH  23  34
ATOM     27  C   UNL     1       4.850   6.722  16.896  0.00  0.00    +0.000 C 
ATOM     28  C   UNL     1       4.017   5.610  17.452  0.00  0.00    +0.000 A 
ATOM     29  C   UNL     1       4.195   4.315  16.911  0.00  0.00    +0.000 A 
ATOM     30  C   UNL     1       3.509   3.212  17.399  0.00  0.00    +0.000 A 
ATOM     31  C   UNL     1       2.619   3.390  18.435  0.00  0.00    +0.000 A 
ATOM     32  C   UNL     1       2.427   4.666  18.996  0.00  0.00    +0.000 A 
ATOM     33  C   UNL     1       1.450   4.719  20.108  0.00  0.00    +0.000 C 
ATOM     34  C   UNL     1       3.160   5.777  18.547  0.00  0.00    +0.000 A 
ENDBRANCH  23  34
ENDBRANCH  22  24
ENDBRANCH   1  22
TORSDOF 7
ENDMDL
MODEL 5
REMARK VINA RESULT:      -6.8      1.224      2.009
REMARK  Name = 
REMARK  12 active torsions:
REMARK  status: ('A' for Active; 'I' for Inactive)
REMARK    1  A    between atoms: C_1  and  C_2
REMARK    2  A    between atoms: C_6  and  C_7
REMARK    3  A    between atoms: C_8  and  N_9
REMARK    4  A    between atoms: C_10  and  C_12
REMARK    5  A    between atoms: C_12  and  N_13
REMARK    6  A    between atoms: N_13  and  C_14
REMARK    7  A    between atoms: C_15  and  C_17
REMARK    8  A    between atoms: C_19  and  S_20
REMARK    9  A    between atoms: S_20  and  N_23
REMARK   10  A    between atoms: N_23  and  C_24
REMARK   11  A    between atoms: N_23  and  C_25
REMARK   12  A    between atoms: C_28  and  N_29
REMARK                            x       y       z     vdW  Elec       q    Type
REMARK                         _______ _______ _______ _____ _____    ______ ____
ROOT
ATOM      1  N   UNL     1       0.818   8.946  20.612  0.00  0.00    +0.000 N 
ATOM      2  C   UNL     1       0.392   7.749  21.334  0.00  0.00    +0.000 C 
ATOM      3  C   UNL     1       0.144  10.133  20.996  0.00  0.00    +0.000 C 
ATOM      4  O   UNL     1      -0.590  10.143  21.986  0.00  0.00    +0.000 OA
ENDROOT
BRANCH   3   5
ATOM      5  C   UNL     1       0.295  11.406  20.229  0.00  0.00    +0.000 A 
ATOM      6  C   UNL     1       1.350  12.256  20.625  0.00  0.00    +0.000 A 
ATOM      7  C   UNL     1       1.559  13.491  20.013  0.00  0.00    +0.000 A 
ATOM      8  C   UNL     1       0.885  13.792  18.840  0.00  0.00    +0.000 A 
ATOM      9  C   UNL     1      -0.086  12.899  18.369  0.00  0.00    +0.000 A 
ATOM     10  C   UNL     1      -0.452  11.712  19.059  0.00  0.00    +0.000 A 
BRANCH  10  11
ATOM     11  N   UNL     1      -1.508  11.001  18.515  0.00  0.00    +0.000 N 
ATOM     12  C   UNL     1      -1.438   9.954  17.505  0.00  0.00    +0.000 C 
ATOM     13  C   UNL     1      -2.510  10.331  16.494  0.00  0.00    +0.000 C 
ATOM     14  C   UNL     1      -3.587  10.999  17.333  0.00  0.00    +0.000 C 
ATOM     15  C   UNL     1      -2.843  11.619  18.518  0.00  0.00    +0.000 C 
ENDBRANCH  10  11
BRANCH   7  16
ATOM     16  S   UNL     1       2.717  14.648  20.729  0.00  0.00    +0.000 S 
ATOM     17  O   UNL     1       2.664  14.454  22.164  0.00  0.00    +0.000 OA
ATOM     18  O   UNL     1       3.954  14.526  19.992  0.00  0.00    +0.000 OA
BRANCH  16  19
ATOM     19  N   UNL     1       2.055  16.184  20.406  0.00  0.00    +0.000 NA
ATOM     20  C   UNL     1       1.410  16.894  21.525  0.00  0.00    +0.000 C 
ATOM     21  C   UNL     1       2.796  17.026  19.448  0.00  0.00    +0.000 C 
ENDBRANCH  16  19
ENDBRANCH   7  16
ENDBRANCH   3   5
BRANCH   1  22
ATOM     22  C   UNL     1       1.573   8.710  19.365  0.00  0.00    +0.000 C 
BRANCH  22  24
ATOM     23  N   UNL     1       2.503   6.921  17.906  0.00  0.00    +0.000 N 
ATOM     24  C   UNL     1       2.375   7.398  19.204  0.00  0.00    +0.000 C 
ATOM     25  O   UNL     1       2.780   6.808  20.206  0.00  0.00    +0.000 OA
ATOM     26  H   UNL     1       2.569   7.674  17.233  0.00  0.00    +0.000 HD
BRANCH  23  34
ATOM     27  C   UNL     1       5.348   7.128  17.136  0.00  0.00    +0.000 C 
ATOM     28  C   UNL     1       4.604   5.833  17.217  0.00  0.00    +0.000 A 
ATOM     29  C   UNL     1       5.323   4.638  16.976  0.00  0.00    +0.000 A 
ATOM     30  C   UNL     1       4.732   3.388  17.083  0.00  0.00    +0.000 A 
ATOM     31  C   UNL     1       3.399   3.312  17.422  0.00  0.00    +0.000 A 
ATOM     32  C   UNL     1       2.661   4.483  17.672  0.00  0.00    +0.000 A 
ATOM     33  C   UNL     1       1.242   4.262  18.035  0.00  0.00    +0.000 C 
ATOM     34  C   UNL     1       3.266   5.750  17.623  0.00  0.00    +0.000 A 
ENDBRANCH  23  34
ENDBRANCH  22  24
ENDBRANCH   1  22
TORSDOF 7
ENDMDL
MODEL 6
REMARK VINA RESULT:      -6.7      1.084      1.394
REMARK  Name = 
REMARK  12 active torsions:
REMARK  status: ('A' for Active; 'I' for Inactive)
REMARK    1  A    between atoms: C_1  and  C_2
REMARK    2  A    between atoms: C_6  and  C_7
REMARK    3  A    between atoms: C_8  and  N_9
REMARK    4  A    between atoms: C_10  and  C_12
REMARK    5  A    between atoms: C_12  and  N_13
REMARK    6  A    between atoms: N_13  and  C_14
REMARK    7  A    between atoms: C_15  and  C_17
REMARK    8  A    between atoms: C_19  and  S_20
REMARK    9  A    between atoms: S_20  and  N_23
REMARK   10  A    between atoms: N_23  and  C_24
REMARK   11  A    between atoms: N_23  and  C_25
REMARK   12  A    between atoms: C_28  and  N_29
REMARK                            x       y       z     vdW  Elec       q    Type
REMARK                         _______ _______ _______ _____ _____    ______ ____
ROOT
ATOM      1  N   UNL     1       1.193   9.458  20.432  0.00  0.00    +0.000 N 
ATOM      2  C   UNL     1       1.010   8.218  21.185  0.00  0.00    +0.000 C 
ATOM      3  C   UNL     1       0.340  10.517  20.832  0.00  0.00    +0.000 C 
ATOM      4  O   UNL     1      -0.343  10.420  21.853  0.00  0.00    +0.000 OA
ENDROOT
BRANCH   3   5
ATOM      5  C   UNL     1       0.238  11.784  20.044  0.00  0.00    +0.000 A 
ATOM      6  C   UNL     1       1.188  12.785  20.341  0.00  0.00    +0.000 A 
ATOM      7  C   UNL     1       1.161  14.024  19.704  0.00  0.00    +0.000 A 
ATOM      8  C   UNL     1       0.353  14.201  18.591  0.00  0.00    +0.000 A 
ATOM      9  C   UNL     1      -0.514  13.167  18.214  0.00  0.00    +0.000 A 
ATOM     10  C   UNL     1      -0.642  11.955  18.943  0.00  0.00    +0.000 A 
BRANCH  10  11
ATOM     11  N   UNL     1      -1.627  11.087  18.499  0.00  0.00    +0.000 N 
ATOM     12  C   UNL     1      -1.460   9.950  17.604  0.00  0.00    +0.000 C 
ATOM     13  C   UNL     1      -2.575  10.108  16.581  0.00  0.00    +0.000 C 
ATOM     14  C   UNL     1      -3.706  10.751  17.367  0.00  0.00    +0.000 C 
ATOM     15  C   UNL     1      -3.017  11.566  18.464  0.00  0.00    +0.000 C 
ENDBRANCH  10  11
BRANCH   7  16
ATOM     16  S   UNL     1       2.195  15.351  20.306  0.00  0.00    +0.000 S 
ATOM     17  O   UNL     1       3.553  14.842  20.326  0.00  0.00    +0.000 OA
ATOM     18  O   UNL     1       1.842  16.539  19.563  0.00  0.00    +0.000 OA
BRANCH  16  19
ATOM     19  N   UNL     1       1.719  15.575  21.926  0.00  0.00    +0.000 NA
ATOM     20  C   UNL     1       2.641  16.314  22.808  0.00  0.00    +0.000 C 
ATOM     21  C   UNL     1       0.281  15.802  22.158  0.00  0.00    +0.000 C 
ENDBRANCH  16  19
ENDBRANCH   7  16
ENDBRANCH   3   5
BRANCH   1  22
ATOM     22  C   UNL     1       1.925   9.331  19.156  0.00  0.00    +0.000 C 
BRANCH  22  24
ATOM     23  N   UNL     1       3.059   7.125  18.961  0.00  0.00    +0.000 N 
ATOM     24  C   UNL     1       2.043   7.943  18.486  0.00  0.00    +0.000 C 
ATOM     25  O   UNL     1       1.309   7.663  17.537  0.00  0.00    +0.000 OA
ATOM     26  H   UNL     1       3.216   7.255  19.953  0.00  0.00    +0.000 HD
BRANCH  23  34
ATOM     27  C   UNL     1       1.672   4.843  20.226  0.00  0.00    +0.000 C 
ATOM     28  C   UNL     1       2.617   4.703  19.074  0.00  0.00    +0.000 A 
ATOM     29  C   UNL     1       2.801   3.414  18.520  0.00  0.00    +0.000 A 
ATOM     30  C   UNL     1       3.613   3.196  17.416  0.00  0.00    +0.000 A 
ATOM     31  C   UNL     1       4.268   4.268  16.853  0.00  0.00    +0.000 A 
ATOM     32  C   UNL     1       4.100   5.562  17.380  0.00  0.00    +0.000 A 
ATOM     33  C   UNL     1       4.853   6.626  16.678  0.00  0.00    +0.000 C 
ATOM     34  C   UNL     1       3.234   5.800  18.461  0.00  0.00    +0.000 A 
ENDBRANCH  23  34
ENDBRANCH  22  24
ENDBRANCH   1  22
TORSDOF 7
ENDMDL
MODEL 7
REMARK VINA RESULT:      -6.7      1.316      1.486
REMARK  Name = 
REMARK  12 active torsions:
REMARK  status: ('A' for Active; 'I' for Inactive)
REMARK    1  A    between atoms: C_1  and  C_2
REMARK    2  A    between atoms: C_6  and  C_7
REMARK    3  A    between atoms: C_8  and  N_9
REMARK    4  A    between atoms: C_10  and  C_12
REMARK    5  A    between atoms: C_12  and  N_13
REMARK    6  A    between atoms: N_13  and  C_14
REMARK    7  A    between atoms: C_15  and  C_17
REMARK    8  A    between atoms: C_19  and  S_20
REMARK    9  A    between atoms: S_20  and  N_23
REMARK   10  A    between atoms: N_23  and  C_24
REMARK   11  A    between atoms: N_23  and  C_25
REMARK   12  A    between atoms: C_28  and  N_29
REMARK                            x       y       z     vdW  Elec       q    Type
REMARK                         _______ _______ _______ _____ _____    ______ ____
ROOT
ATOM      1  N   UNL     1       0.798   8.922  20.604  0.00  0.00    +0.000 N 
ATOM      2  C   UNL     1       0.331   7.745  21.334  0.00  0.00    +0.000 C 
ATOM      3  C   UNL     1       0.174  10.136  20.988  0.00  0.00    +0.000 C 
ATOM      4  O   UNL     1      -0.551  10.179  21.983  0.00  0.00    +0.000 OA
ENDROOT
BRANCH   3   5
ATOM      5  C   UNL     1       0.370  11.399  20.214  0.00  0.00    +0.000 A 
ATOM      6  C   UNL     1       1.487  12.186  20.569  0.00  0.00    +0.000 A 
ATOM      7  C   UNL     1       1.743  13.408  19.949  0.00  0.00    +0.000 A 
ATOM      8  C   UNL     1       1.044  13.748  18.800  0.00  0.00    +0.000 A 
ATOM      9  C   UNL     1       0.007  12.913  18.367  0.00  0.00    +0.000 A 
ATOM     10  C   UNL     1      -0.401  11.749  19.072  0.00  0.00    +0.000 A 
BRANCH  10  11
ATOM     11  N   UNL     1      -1.516  11.100  18.569  0.00  0.00    +0.000 N 
ATOM     12  C   UNL     1      -1.548  10.086  17.524  0.00  0.00    +0.000 C 
ATOM     13  C   UNL     1      -2.660  10.542  16.590  0.00  0.00    +0.000 C 
ATOM     14  C   UNL     1      -3.657  11.223  17.512  0.00  0.00    +0.000 C 
ATOM     15  C   UNL     1      -2.821  11.771  18.670  0.00  0.00    +0.000 C 
ENDBRANCH  10  11
BRANCH   7  16
ATOM     16  S   UNL     1       2.992  14.495  20.619  0.00  0.00    +0.000 S 
ATOM     17  O   UNL     1       3.572  13.810  21.756  0.00  0.00    +0.000 OA
ATOM     18  O   UNL     1       3.803  14.948  19.512  0.00  0.00    +0.000 OA
BRANCH  16  19
ATOM     19  N   UNL     1       2.127  15.832  21.226  0.00  0.00    +0.000 NA
ATOM     20  C   UNL     1       1.923  16.976  20.319  0.00  0.00    +0.000 C 
ATOM     21  C   UNL     1       1.013  15.527  22.143  0.00  0.00    +0.000 C 
ENDBRANCH  16  19
ENDBRANCH   7  16
ENDBRANCH   3   5
BRANCH   1  22
ATOM     22  C   UNL     1       1.534   8.651  19.353  0.00  0.00    +0.000 C 
BRANCH  22  24
ATOM     23  N   UNL     1       2.238   6.672  18.018  0.00  0.00    +0.000 N 
ATOM     24  C   UNL     1       2.355   7.347  19.226  0.00  0.00    +0.000 C 
ATOM     25  O   UNL     1       2.990   6.934  20.197  0.00  0.00    +0.000 OA
ATOM     26  H   UNL     1       2.122   7.308  17.240  0.00  0.00    +0.000 HD
BRANCH  23  34
ATOM     27  C   UNL     1       1.214   4.031  18.859  0.00  0.00    +0.000 C 
ATOM     28  C   UNL     1       2.536   4.232  18.190  0.00  0.00    +0.000 A 
ATOM     29  C   UNL     1       3.306   3.084  17.883  0.00  0.00    +0.000 A 
ATOM     30  C   UNL     1       4.518   3.167  17.213  0.00  0.00    +0.000 A 
ATOM     31  C   UNL     1       4.990   4.408  16.848  0.00  0.00    +0.000 A 
ATOM     32  C   UNL     1       4.243   5.566  17.135  0.00  0.00    +0.000 A 
ATOM     33  C   UNL     1       4.858   6.835  16.682  0.00  0.00    +0.000 C 
ATOM     34  C   UNL     1       2.988   5.486  17.761  0.00  0.00    +0.000 A 
ENDBRANCH  23  34
ENDBRANCH  22  24
ENDBRANCH   1  22
TORSDOF 7
ENDMDL
MODEL 8
REMARK VINA RESULT:      -6.7      1.007      1.060
REMARK  Name = 
REMARK  12 active torsions:
REMARK  status: ('A' for Active; 'I' for Inactive)
REMARK    1  A    between atoms: C_1  and  C_2
REMARK    2  A    between atoms: C_6  and  C_7
REMARK    3  A    between atoms: C_8  and  N_9
REMARK    4  A    between atoms: C_10  and  C_12
REMARK    5  A    between atoms: C_12  and  N_13
REMARK    6  A    between atoms: N_13  and  C_14
REMARK    7  A    between atoms: C_15  and  C_17
REMARK    8  A    between atoms: C_19  and  S_20
REMARK    9  A    between atoms: S_20  and  N_23
REMARK   10  A    between atoms: N_23  and  C_24
REMARK   11  A    between atoms: N_23  and  C_25
REMARK   12  A    between atoms: C_28  and  N_29
REMARK                            x       y       z     vdW  Elec       q    Type
REMARK                         _______ _______ _______ _____ _____    ______ ____
ROOT
ATOM      1  N   UNL     1       0.808   8.924  20.610  0.00  0.00    +0.000 N 
ATOM      2  C   UNL     1       0.387   7.711  21.307  0.00  0.00    +0.000 C 
ATOM      3  C   UNL     1       0.117  10.097  21.005  0.00  0.00    +0.000 C 
ATOM      4  O   UNL     1      -0.628  10.084  21.987  0.00  0.00    +0.000 OA
ENDROOT
BRANCH   3   5
ATOM      5  C   UNL     1       0.263  11.385  20.260  0.00  0.00    +0.000 A 
ATOM      6  C   UNL     1       1.303  12.240  20.684  0.00  0.00    +0.000 A 
ATOM      7  C   UNL     1       1.505  13.487  20.095  0.00  0.00    +0.000 A 
ATOM      8  C   UNL     1       0.843  13.799  18.917  0.00  0.00    +0.000 A 
ATOM      9  C   UNL     1      -0.110  12.902  18.419  0.00  0.00    +0.000 A 
ATOM     10  C   UNL     1      -0.471  11.701  19.086  0.00  0.00    +0.000 A 
BRANCH  10  11
ATOM     11  N   UNL     1      -1.512  10.986  18.516  0.00  0.00    +0.000 N 
ATOM     12  C   UNL     1      -1.416   9.958  17.488  0.00  0.00    +0.000 C 
ATOM     13  C   UNL     1      -2.480  10.341  16.471  0.00  0.00    +0.000 C 
ATOM     14  C   UNL     1      -3.576  10.979  17.309  0.00  0.00    +0.000 C 
ATOM     15  C   UNL     1      -2.854  11.586  18.514  0.00  0.00    +0.000 C 
ENDBRANCH  10  11
BRANCH   7  16
ATOM     16  S   UNL     1       2.640  14.646  20.844  0.00  0.00    +0.000 S 
ATOM     17  O   UNL     1       1.832  15.694  21.436  0.00  0.00    +0.000 OA
ATOM     18  O   UNL     1       3.579  13.878  21.629  0.00  0.00    +0.000 OA
BRANCH  16  19
ATOM     19  N   UNL     1       3.482  15.340  19.537  0.00  0.00    +0.000 NA
ATOM     20  C   UNL     1       3.112  16.711  19.142  0.00  0.00    +0.000 C 
ATOM     21  C   UNL     1       4.913  15.000  19.428  0.00  0.00    +0.000 C 
ENDBRANCH  16  19
ENDBRANCH   7  16
ENDBRANCH   3   5
BRANCH   1  22
ATOM     22  C   UNL     1       1.580   8.716  19.368  0.00  0.00    +0.000 C 
BRANCH  22  24
ATOM     23  N   UNL     1       2.510   6.947  17.885  0.00  0.00    +0.000 N 
ATOM     24  C   UNL     1       2.386   7.409  19.189  0.00  0.00    +0.000 C 
ATOM     25  O   UNL     1       2.799   6.811  20.183  0.00  0.00    +0.000 OA
ATOM     26  H   UNL     1       2.569   7.707  17.220  0.00  0.00    +0.000 HD
BRANCH  23  34
ATOM     27  C   UNL     1       1.280   4.264  18.014  0.00  0.00    +0.000 C 
ATOM     28  C   UNL     1       2.720   4.500  17.683  0.00  0.00    +0.000 A 
ATOM     29  C   UNL     1       3.516   3.379  17.347  0.00  0.00    +0.000 A 
ATOM     30  C   UNL     1       4.845   3.506  16.972  0.00  0.00    +0.000 A 
ATOM     31  C   UNL     1       5.408   4.762  16.939  0.00  0.00    +0.000 A 
ATOM     32  C   UNL     1       4.638   5.895  17.262  0.00  0.00    +0.000 A 
ATOM     33  C   UNL     1       5.360   7.186  17.179  0.00  0.00    +0.000 C 
ATOM     34  C   UNL     1       3.276   5.782  17.586  0.00  0.00    +0.000 A 
ENDBRANCH  23  34
ENDBRANCH  22  24
ENDBRANCH   1  22
TORSDOF 7
ENDMDL
MODEL 9
REMARK VINA RESULT:      -6.6      0.726      1.026
REMARK  Name = 
REMARK  12 active torsions:
REMARK  status: ('A' for Active; 'I' for Inactive)
REMARK    1  A    between atoms: C_1  and  C_2
REMARK    2  A    between atoms: C_6  and  C_7
REMARK    3  A    between atoms: C_8  and  N_9
REMARK    4  A    between atoms: C_10  and  C_12
REMARK    5  A    between atoms: C_12  and  N_13
REMARK    6  A    between atoms: N_13  and  C_14
REMARK    7  A    between atoms: C_15  and  C_17
REMARK    8  A    between atoms: C_19  and  S_20
REMARK    9  A    between atoms: S_20  and  N_23
REMARK   10  A    between atoms: N_23  and  C_24
REMARK   11  A    between atoms: N_23  and  C_25
REMARK   12  A    between atoms: C_28  and  N_29
REMARK                            x       y       z     vdW  Elec       q    Type
REMARK                         _______ _______ _______ _____ _____    ______ ____
ROOT
ATOM      1  N   UNL     1       0.638   9.582  20.648  0.00  0.00    +0.000 N 
ATOM      2  C   UNL     1       0.091   8.339  21.188  0.00  0.00    +0.000 C 
ATOM      3  C   UNL     1      -0.208  10.709  20.799  0.00  0.00    +0.000 C 
ATOM      4  O   UNL     1      -1.219  10.643  21.500  0.00  0.00    +0.000 OA
ENDROOT
BRANCH   3   5
ATOM      5  C   UNL     1       0.089  12.011  20.127  0.00  0.00    +0.000 A 
ATOM      6  C   UNL     1       1.107  12.798  20.707  0.00  0.00    +0.000 A 
ATOM      7  C   UNL     1       1.439  14.052  20.195  0.00  0.00    +0.000 A 
ATOM      8  C   UNL     1       0.943  14.434  18.958  0.00  0.00    +0.000 A 
ATOM      9  C   UNL     1       0.018  13.603  18.313  0.00  0.00    +0.000 A 
ATOM     10  C   UNL     1      -0.478  12.401  18.884  0.00  0.00    +0.000 A 
BRANCH  10  11
ATOM     11  N   UNL     1      -1.472  11.758  18.165  0.00  0.00    +0.000 N 
ATOM     12  C   UNL     1      -2.912  11.902  18.331  0.00  0.00    +0.000 C 
ATOM     13  C   UNL     1      -3.433  10.473  18.361  0.00  0.00    +0.000 C 
ATOM     14  C   UNL     1      -2.487   9.718  17.442  0.00  0.00    +0.000 C 
ATOM     15  C   UNL     1      -1.157  10.467  17.535  0.00  0.00    +0.000 C 
ENDBRANCH  10  11
BRANCH   7  16
ATOM     16  S   UNL     1       2.524  15.127  21.121  0.00  0.00    +0.000 S 
ATOM     17  O   UNL     1       2.442  16.434  20.500  0.00  0.00    +0.000 OA
ATOM     18  O   UNL     1       2.226  14.932  22.521  0.00  0.00    +0.000 OA
BRANCH  16  19
ATOM     19  N   UNL     1       4.091  14.527  20.823  0.00  0.00    +0.000 NA
ATOM     20  C   UNL     1       4.821  15.083  19.669  0.00  0.00    +0.000 C 
ATOM     21  C   UNL     1       4.904  14.208  22.010  0.00  0.00    +0.000 C 
ENDBRANCH  16  19
ENDBRANCH   7  16
ENDBRANCH   3   5
BRANCH   1  22
ATOM     22  C   UNL     1       1.769   9.431  19.710  0.00  0.00    +0.000 C 
BRANCH  22  24
ATOM     23  N   UNL     1       2.702   7.140  19.438  0.00  0.00    +0.000 N 
ATOM     24  C   UNL     1       1.899   8.129  18.886  0.00  0.00    +0.000 C 
ATOM     25  O   UNL     1       1.371   8.059  17.775  0.00  0.00    +0.000 OA
ATOM     26  H   UNL     1       2.647   7.129  20.448  0.00  0.00    +0.000 HD
BRANCH  23  34
ATOM     27  C   UNL     1       1.146   4.797  20.345  0.00  0.00    +0.000 C 
ATOM     28  C   UNL     1       2.157   4.744  19.243  0.00  0.00    +0.000 A 
ATOM     29  C   UNL     1       2.325   3.519  18.555  0.00  0.00    +0.000 A 
ATOM     30  C   UNL     1       3.197   3.389  17.484  0.00  0.00    +0.000 A 
ATOM     31  C   UNL     1       3.930   4.486  17.089  0.00  0.00    +0.000 A 
ATOM     32  C   UNL     1       3.779   5.718  17.751  0.00  0.00    +0.000 A 
ATOM     33  C   UNL     1       4.618   6.819  17.224  0.00  0.00    +0.000 C 
ATOM     34  C   UNL     1       2.856   5.874  18.799  0.00  0.00    +0.000 A 
ENDBRANCH  23  34
ENDBRANCH  22  24
ENDBRANCH   1  22
TORSDOF 7
ENDMDL
