MODEL 1
REMARK VINA RESULT:      -7.5      0.000      0.000
REMARK  Name = 
REMARK  6 active torsions:
REMARK  status: ('A' for Active; 'I' for Inactive)
REMARK    1  A    between atoms: C_1  and  C_2
REMARK    2  A    between atoms: N_6  and  C_7
REMARK    3  A    between atoms: C_7  and  C_8
REMARK    4  A    between atoms: C_8  and  N_9
REMARK    5  A    between atoms: C_14  and  C_15
REMARK    6  A    between atoms: C_18  and  C_19
REMARK                            x       y       z     vdW  Elec       q    Type
REMARK                         _______ _______ _______ _____ _____    ______ ____
ROOT
ATOM      1  N   UNL     1      -0.737  11.507  20.366  0.00  0.00    +0.000 N 
ATOM      2  C   UNL     1       0.048  12.055  19.267  0.00  0.00    +0.000 C 
ATOM      3  C   UNL     1       0.320  10.973  18.230  0.00  0.00    +0.000 C 
ATOM      4  C   UNL     1       0.930   9.775  18.908  0.00  0.00    +0.000 A 
ATOM      5  C   UNL     1       1.757   8.900  18.194  0.00  0.00    +0.000 A 
ATOM      6  C   UNL     1       2.316   7.759  18.802  0.00  0.00    +0.000 A 
ATOM      7  C   UNL     1       2.001   7.513  20.151  0.00  0.00    +0.000 A 
ATOM      8  C   UNL     1       1.151   8.358  20.864  0.00  0.00    +0.000 A 
ATOM      9  C   UNL     1       0.618   9.487  20.245  0.00  0.00    +0.000 A 
ATOM     10  C   UNL     1      -0.344  10.334  20.995  0.00  0.00    +0.000 C 
ATOM     11  O   UNL     1      -0.781   9.962  22.078  0.00  0.00    +0.000 OA
ENDROOT
BRANCH   6  12
ATOM     12  C   UNL     1       3.184   6.838  18.037  0.00  0.00    +0.000 A 
ATOM     13  C   UNL     1       4.228   7.322  17.226  0.00  0.00    +0.000 A 
ATOM     14  C   UNL     1       5.017   6.456  16.464  0.00  0.00    +0.000 A 
ATOM     15  C   UNL     1       4.785   5.081  16.510  0.00  0.00    +0.000 A 
ATOM     16  C   UNL     1       3.777   4.576  17.328  0.00  0.00    +0.000 A 
ATOM     17  C   UNL     1       2.982   5.448  18.077  0.00  0.00    +0.000 A 
BRANCH  15  18
ATOM     18  C   UNL     1       5.572   4.195  15.713  0.00  0.00    +0.000 C 
ATOM     19  N   UNL     1       6.208   3.469  15.064  0.00  0.00    +0.000 NA
ENDBRANCH  15  18
ENDBRANCH   6  12
BRANCH   1  20
ATOM     20  C   UNL     1      -1.830  12.279  20.927  0.00  0.00    +0.000 C 
BRANCH  20  21
ATOM     21  C   UNL     1      -2.852  12.771  19.885  0.00  0.00    +0.000 C 
BRANCH  21  27
ATOM     22  C   UNL     1      -3.061   9.940  17.741  0.00  0.00    +0.000 C 
ATOM     23  C   UNL     1      -3.435  11.408  17.919  0.00  0.00    +0.000 C 
ATOM     24  C   UNL     1      -4.706  11.791  17.166  0.00  0.00    +0.000 C 
ATOM     25  C   UNL     1      -5.569  12.499  18.191  0.00  0.00    +0.000 C 
ATOM     26  C   UNL     1      -5.109  11.920  19.512  0.00  0.00    +0.000 C 
ATOM     27  N   UNL     1      -3.672  11.669  19.350  0.00  0.00    +0.000 NA
ENDBRANCH  21  27
ENDBRANCH  20  21
ENDBRANCH   1  20
TORSDOF 5
ENDMDL
MODEL 2
REMARK VINA RESULT:      -7.5      1.848      2.949
REMARK  Name = 
REMARK  6 active torsions:
REMARK  status: ('A' for Active; 'I' for Inactive)
REMARK    1  A    between atoms: C_1  and  C_2
REMARK    2  A    between atoms: N_6  and  C_7
REMARK    3  A    between atoms: C_7  and  C_8
REMARK    4  A    between atoms: C_8  and  N_9
REMARK    5  A    between atoms: C_14  and  C_15
REMARK    6  A    between atoms: C_18  and  C_19
REMARK                            x       y       z     vdW  Elec       q    Type
REMARK                         _______ _______ _______ _____ _____    ______ ____
ROOT
ATOM      1  N   UNL     1      -0.527  11.005  21.987  0.00  0.00    +0.000 N 
ATOM      2  C   UNL     1      -0.487   9.671  22.571  0.00  0.00    +0.000 C 
ATOM      3  C   UNL     1       0.839   8.997  22.243  0.00  0.00    +0.000 C 
ATOM      4  C   UNL     1       1.066   9.044  20.755  0.00  0.00    +0.000 A 
ATOM      5  C   UNL     1       1.862   8.078  20.128  0.00  0.00    +0.000 A 
ATOM      6  C   UNL     1       2.109   8.118  18.742  0.00  0.00    +0.000 A 
ATOM      7  C   UNL     1       1.546   9.176  18.006  0.00  0.00    +0.000 A 
ATOM      8  C   UNL     1       0.780  10.164  18.624  0.00  0.00    +0.000 A 
ATOM      9  C   UNL     1       0.539  10.097  19.994  0.00  0.00    +0.000 A 
ATOM     10  C   UNL     1      -0.215  11.197  20.649  0.00  0.00    +0.000 C 
ATOM     11  O   UNL     1      -0.483  12.218  20.026  0.00  0.00    +0.000 OA
ENDROOT
BRANCH   6  12
ATOM     12  C   UNL     1       2.956   7.096  18.091  0.00  0.00    +0.000 A 
ATOM     13  C   UNL     1       4.066   7.458  17.305  0.00  0.00    +0.000 A 
ATOM     14  C   UNL     1       4.836   6.494  16.649  0.00  0.00    +0.000 A 
ATOM     15  C   UNL     1       4.519   5.141  16.779  0.00  0.00    +0.000 A 
ATOM     16  C   UNL     1       3.442   4.757  17.575  0.00  0.00    +0.000 A 
ATOM     17  C   UNL     1       2.666   5.726  18.217  0.00  0.00    +0.000 A 
BRANCH  15  18
ATOM     18  C   UNL     1       5.288   4.156  16.089  0.00  0.00    +0.000 C 
ATOM     19  N   UNL     1       5.920   3.356  15.530  0.00  0.00    +0.000 NA
ENDBRANCH  15  18
ENDBRANCH   6  12
BRANCH   1  20
ATOM     20  C   UNL     1      -1.067  12.112  22.754  0.00  0.00    +0.000 C 
BRANCH  20  21
ATOM     21  C   UNL     1      -2.557  11.961  23.112  0.00  0.00    +0.000 C 
BRANCH  21  27
ATOM     22  C   UNL     1      -5.167  14.262  23.850  0.00  0.00    +0.000 C 
ATOM     23  C   UNL     1      -4.776  13.024  23.049  0.00  0.00    +0.000 C 
ATOM     24  C   UNL     1      -5.575  12.880  21.756  0.00  0.00    +0.000 C 
ATOM     25  C   UNL     1      -4.534  12.660  20.677  0.00  0.00    +0.000 C 
ATOM     26  C   UNL     1      -3.293  13.329  21.229  0.00  0.00    +0.000 C 
ATOM     27  N   UNL     1      -3.352  13.125  22.682  0.00  0.00    +0.000 NA
ENDBRANCH  21  27
ENDBRANCH  20  21
ENDBRANCH   1  20
TORSDOF 5
ENDMDL
MODEL 3
REMARK VINA RESULT:      -7.4      6.656      9.143
REMARK  Name = 
REMARK  6 active torsions:
REMARK  status: ('A' for Active; 'I' for Inactive)
REMARK    1  A    between atoms: C_1  and  C_2
REMARK    2  A    between atoms: N_6  and  C_7
REMARK    3  A    between atoms: C_7  and  C_8
REMARK    4  A    between atoms: C_8  and  N_9
REMARK    5  A    between atoms: C_14  and  C_15
REMARK    6  A    between atoms: C_18  and  C_19
REMARK                            x       y       z     vdW  Elec       q    Type
REMARK                         _______ _______ _______ _____ _____    ______ ____
ROOT
ATOM      1  N   UNL     1       5.119   4.925  17.368  0.00  0.00    +0.000 N 
ATOM      2  C   UNL     1       4.285   6.100  17.151  0.00  0.00    +0.000 C 
ATOM      3  C   UNL     1       5.110   7.216  16.524  0.00  0.00    +0.000 C 
ATOM      4  C   UNL     1       6.338   7.457  17.361  0.00  0.00    +0.000 A 
ATOM      5  C   UNL     1       6.961   8.711  17.363  0.00  0.00    +0.000 A 
ATOM      6  C   UNL     1       8.126   8.951  18.117  0.00  0.00    +0.000 A 
ATOM      7  C   UNL     1       8.660   7.880  18.857  0.00  0.00    +0.000 A 
ATOM      8  C   UNL     1       8.070   6.617  18.837  0.00  0.00    +0.000 A 
ATOM      9  C   UNL     1       6.911   6.407  18.092  0.00  0.00    +0.000 A 
ATOM     10  C   UNL     1       6.338   5.038  18.021  0.00  0.00    +0.000 C 
ATOM     11  O   UNL     1       6.959   4.084  18.477  0.00  0.00    +0.000 OA
ENDROOT
BRANCH   6  12
ATOM     12  C   UNL     1       8.778  10.278  18.108  0.00  0.00    +0.000 A 
ATOM     13  C   UNL     1      10.062  10.466  18.653  0.00  0.00    +0.000 A 
ATOM     14  C   UNL     1      10.658  11.729  18.690  0.00  0.00    +0.000 A 
ATOM     15  C   UNL     1       9.984  12.833  18.165  0.00  0.00    +0.000 A 
ATOM     16  C   UNL     1       8.724  12.667  17.594  0.00  0.00    +0.000 A 
ATOM     17  C   UNL     1       8.127  11.403  17.573  0.00  0.00    +0.000 A 
BRANCH  15  18
ATOM     18  C   UNL     1      10.579  14.129  18.224  0.00  0.00    +0.000 C 
ATOM     19  N   UNL     1      11.065  15.184  18.278  0.00  0.00    +0.000 NA
ENDBRANCH  15  18
ENDBRANCH   6  12
BRANCH   1  20
ATOM     20  C   UNL     1       4.598   3.605  17.066  0.00  0.00    +0.000 C 
BRANCH  20  21
ATOM     21  C   UNL     1       3.869   2.932  18.244  0.00  0.00    +0.000 C 
BRANCH  21  27
ATOM     22  C   UNL     1       2.421   4.928  20.807  0.00  0.00    +0.000 C 
ATOM     23  C   UNL     1       2.431   3.554  20.143  0.00  0.00    +0.000 C 
ATOM     24  C   UNL     1       1.095   2.827  20.265  0.00  0.00    +0.000 C 
ATOM     25  C   UNL     1       0.762   2.382  18.855  0.00  0.00    +0.000 C 
ATOM     26  C   UNL     1       1.484   3.385  17.980  0.00  0.00    +0.000 C 
ATOM     27  N   UNL     1       2.714   3.723  18.706  0.00  0.00    +0.000 NA
ENDBRANCH  21  27
ENDBRANCH  20  21
ENDBRANCH   1  20
TORSDOF 5
ENDMDL
MODEL 4
REMARK VINA RESULT:      -7.4      2.052      3.197
REMARK  Name = 
REMARK  6 active torsions:
REMARK  status: ('A' for Active; 'I' for Inactive)
REMARK    1  A    between atoms: C_1  and  C_2
REMARK    2  A    between atoms: N_6  and  C_7
REMARK    3  A    between atoms: C_7  and  C_8
REMARK    4  A    between atoms: C_8  and  N_9
REMARK    5  A    between atoms: C_14  and  C_15
REMARK    6  A    between atoms: C_18  and  C_19
REMARK                            x       y       z     vdW  Elec       q    Type
REMARK                         _______ _______ _______ _____ _____    ______ ____
ROOT
ATOM      1  N   UNL     1      -0.656  11.068  22.124  0.00  0.00    +0.000 N 
ATOM      2  C   UNL     1      -0.558   9.741  22.717  0.00  0.00    +0.000 C 
ATOM      3  C   UNL     1       0.772   9.099  22.341  0.00  0.00    +0.000 C 
ATOM      4  C   UNL     1       0.937   9.138  20.845  0.00  0.00    +0.000 A 
ATOM      5  C   UNL     1       1.732   8.188  20.193  0.00  0.00    +0.000 A 
ATOM      6  C   UNL     1       1.922   8.222  18.798  0.00  0.00    +0.000 A 
ATOM      7  C   UNL     1       1.301   9.258  18.077  0.00  0.00    +0.000 A 
ATOM      8  C   UNL     1       0.535  10.231  18.717  0.00  0.00    +0.000 A 
ATOM      9  C   UNL     1       0.351  10.170  20.097  0.00  0.00    +0.000 A 
ATOM     10  C   UNL     1      -0.405  11.256  20.773  0.00  0.00    +0.000 C 
ATOM     11  O   UNL     1      -0.725  12.264  20.153  0.00  0.00    +0.000 OA
ENDROOT
BRANCH   6  12
ATOM     12  C   UNL     1       2.768   7.216  18.121  0.00  0.00    +0.000 A 
ATOM     13  C   UNL     1       2.458   5.844  18.175  0.00  0.00    +0.000 A 
ATOM     14  C   UNL     1       3.284   4.888  17.578  0.00  0.00    +0.000 A 
ATOM     15  C   UNL     1       4.435   5.290  16.898  0.00  0.00    +0.000 A 
ATOM     16  C   UNL     1       4.748   6.644  16.807  0.00  0.00    +0.000 A 
ATOM     17  C   UNL     1       3.925   7.595  17.418  0.00  0.00    +0.000 A 
BRANCH  15  18
ATOM     18  C   UNL     1       5.296   4.315  16.309  0.00  0.00    +0.000 C 
ATOM     19  N   UNL     1       5.991   3.516  15.828  0.00  0.00    +0.000 NA
ENDBRANCH  15  18
ENDBRANCH   6  12
BRANCH   1  20
ATOM     20  C   UNL     1      -1.194  12.168  22.904  0.00  0.00    +0.000 C 
BRANCH  20  21
ATOM     21  C   UNL     1      -2.661  11.975  23.333  0.00  0.00    +0.000 C 
BRANCH  21  27
ATOM     22  C   UNL     1      -5.768  13.638  23.815  0.00  0.00    +0.000 C 
ATOM     23  C   UNL     1      -4.838  12.990  22.794  0.00  0.00    +0.000 C 
ATOM     24  C   UNL     1      -5.002  13.571  21.392  0.00  0.00    +0.000 C 
ATOM     25  C   UNL     1      -3.595  13.912  20.944  0.00  0.00    +0.000 C 
ATOM     26  C   UNL     1      -2.851  14.151  22.241  0.00  0.00    +0.000 C 
ATOM     27  N   UNL     1      -3.443  13.219  23.209  0.00  0.00    +0.000 NA
ENDBRANCH  21  27
ENDBRANCH  20  21
ENDBRANCH   1  20
TORSDOF 5
ENDMDL
MODEL 5
REMARK VINA RESULT:      -7.4      2.237      3.420
REMARK  Name = 
REMARK  6 active torsions:
REMARK  status: ('A' for Active; 'I' for Inactive)
REMARK    1  A    between atoms: C_1  and  C_2
REMARK    2  A    between atoms: N_6  and  C_7
REMARK    3  A    between atoms: C_7  and  C_8
REMARK    4  A    between atoms: C_8  and  N_9
REMARK    5  A    between atoms: C_14  and  C_15
REMARK    6  A    between atoms: C_18  and  C_19
REMARK                            x       y       z     vdW  Elec       q    Type
REMARK                         _______ _______ _______ _____ _____    ______ ____
ROOT
ATOM      1  N   UNL     1      -0.681  11.056  22.208  0.00  0.00    +0.000 N 
ATOM      2  C   UNL     1      -0.530   9.741  22.817  0.00  0.00    +0.000 C 
ATOM      3  C   UNL     1       0.803   9.127  22.410  0.00  0.00    +0.000 C 
ATOM      4  C   UNL     1       0.922   9.147  20.909  0.00  0.00    +0.000 A 
ATOM      5  C   UNL     1       1.722   8.207  20.248  0.00  0.00    +0.000 A 
ATOM      6  C   UNL     1       1.869   8.224  18.848  0.00  0.00    +0.000 A 
ATOM      7  C   UNL     1       1.200   9.232  18.131  0.00  0.00    +0.000 A 
ATOM      8  C   UNL     1       0.429  10.196  18.779  0.00  0.00    +0.000 A 
ATOM      9  C   UNL     1       0.288  10.152  20.165  0.00  0.00    +0.000 A 
ATOM     10  C   UNL     1      -0.475  11.229  20.847  0.00  0.00    +0.000 C 
ATOM     11  O   UNL     1      -0.840  12.218  20.222  0.00  0.00    +0.000 OA
ENDROOT
BRANCH   6  12
ATOM     12  C   UNL     1       2.721   7.230  18.161  0.00  0.00    +0.000 A 
ATOM     13  C   UNL     1       2.435   5.853  18.226  0.00  0.00    +0.000 A 
ATOM     14  C   UNL     1       3.267   4.909  17.618  0.00  0.00    +0.000 A 
ATOM     15  C   UNL     1       4.399   5.327  16.917  0.00  0.00    +0.000 A 
ATOM     16  C   UNL     1       4.687   6.686  16.815  0.00  0.00    +0.000 A 
ATOM     17  C   UNL     1       3.858   7.625  17.436  0.00  0.00    +0.000 A 
BRANCH  15  18
ATOM     18  C   UNL     1       5.266   4.363  16.317  0.00  0.00    +0.000 C 
ATOM     19  N   UNL     1       5.970   3.582  15.823  0.00  0.00    +0.000 NA
ENDBRANCH  15  18
ENDBRANCH   6  12
BRANCH   1  20
ATOM     20  C   UNL     1      -1.224  12.154  22.987  0.00  0.00    +0.000 C 
BRANCH  20  21
ATOM     21  C   UNL     1      -2.744  12.068  23.218  0.00  0.00    +0.000 C 
BRANCH  21  27
ATOM     22  C   UNL     1      -2.818  15.502  22.292  0.00  0.00    +0.000 C 
ATOM     23  C   UNL     1      -3.356  14.453  23.260  0.00  0.00    +0.000 C 
ATOM     24  C   UNL     1      -4.739  14.802  23.803  0.00  0.00    +0.000 C 
ATOM     25  C   UNL     1      -5.570  13.554  23.584  0.00  0.00    +0.000 C 
ATOM     26  C   UNL     1      -4.901  12.875  22.407  0.00  0.00    +0.000 C 
ATOM     27  N   UNL     1      -3.469  13.165  22.552  0.00  0.00    +0.000 NA
ENDBRANCH  21  27
ENDBRANCH  20  21
ENDBRANCH   1  20
TORSDOF 5
ENDMDL
MODEL 6
REMARK VINA RESULT:      -7.4      2.203      2.744
REMARK  Name = 
REMARK  6 active torsions:
REMARK  status: ('A' for Active; 'I' for Inactive)
REMARK    1  A    between atoms: C_1  and  C_2
REMARK    2  A    between atoms: N_6  and  C_7
REMARK    3  A    between atoms: C_7  and  C_8
REMARK    4  A    between atoms: C_8  and  N_9
REMARK    5  A    between atoms: C_14  and  C_15
REMARK    6  A    between atoms: C_18  and  C_19
REMARK                            x       y       z     vdW  Elec       q    Type
REMARK                         _______ _______ _______ _____ _____    ______ ____
ROOT
ATOM      1  N   UNL     1      -0.272  10.729  21.090  0.00  0.00    +0.000 N 
ATOM      2  C   UNL     1       0.582  11.462  20.165  0.00  0.00    +0.000 C 
ATOM      3  C   UNL     1       0.828  10.630  18.912  0.00  0.00    +0.000 C 
ATOM      4  C   UNL     1       1.343   9.272  19.310  0.00  0.00    +0.000 A 
ATOM      5  C   UNL     1       2.143   8.532  18.432  0.00  0.00    +0.000 A 
ATOM      6  C   UNL     1       2.614   7.248  18.773  0.00  0.00    +0.000 A 
ATOM      7  C   UNL     1       2.236   6.722  20.021  0.00  0.00    +0.000 A 
ATOM      8  C   UNL     1       1.411   7.435  20.891  0.00  0.00    +0.000 A 
ATOM      9  C   UNL     1       0.968   8.707  20.537  0.00  0.00    +0.000 A 
ATOM     10  C   UNL     1       0.029   9.421  21.441  0.00  0.00    +0.000 C 
ATOM     11  O   UNL     1      -0.468   8.840  22.399  0.00  0.00    +0.000 OA
ENDROOT
BRANCH   6  12
ATOM     12  C   UNL     1       3.454   6.473  17.836  0.00  0.00    +0.000 A 
ATOM     13  C   UNL     1       4.400   7.106  17.007  0.00  0.00    +0.000 A 
ATOM     14  C   UNL     1       5.160   6.380  16.086  0.00  0.00    +0.000 A 
ATOM     15  C   UNL     1       4.998   4.997  15.986  0.00  0.00    +0.000 A 
ATOM     16  C   UNL     1       4.089   4.345  16.815  0.00  0.00    +0.000 A 
ATOM     17  C   UNL     1       3.322   5.078  17.725  0.00  0.00    +0.000 A 
BRANCH  15  18
ATOM     18  C   UNL     1       5.753   4.255  15.028  0.00  0.00    +0.000 C 
ATOM     19  N   UNL     1       6.366   3.646  14.250  0.00  0.00    +0.000 NA
ENDBRANCH  15  18
ENDBRANCH   6  12
BRANCH   1  20
ATOM     20  C   UNL     1      -1.339  11.422  21.790  0.00  0.00    +0.000 C 
BRANCH  20  21
ATOM     21  C   UNL     1      -0.873  12.665  22.571  0.00  0.00    +0.000 C 
BRANCH  21  27
ATOM     22  C   UNL     1      -3.963  12.420  24.317  0.00  0.00    +0.000 C 
ATOM     23  C   UNL     1      -3.301  12.723  22.976  0.00  0.00    +0.000 C 
ATOM     24  C   UNL     1      -4.123  13.676  22.112  0.00  0.00    +0.000 C 
ATOM     25  C   UNL     1      -3.148  14.755  21.685  0.00  0.00    +0.000 C 
ATOM     26  C   UNL     1      -2.108  14.759  22.787  0.00  0.00    +0.000 C 
ATOM     27  N   UNL     1      -1.996  13.362  23.223  0.00  0.00    +0.000 NA
ENDBRANCH  21  27
ENDBRANCH  20  21
ENDBRANCH   1  20
TORSDOF 5
ENDMDL
MODEL 7
REMARK VINA RESULT:      -7.3      2.390      3.475
REMARK  Name = 
REMARK  6 active torsions:
REMARK  status: ('A' for Active; 'I' for Inactive)
REMARK    1  A    between atoms: C_1  and  C_2
REMARK    2  A    between atoms: N_6  and  C_7
REMARK    3  A    between atoms: C_7  and  C_8
REMARK    4  A    between atoms: C_8  and  N_9
REMARK    5  A    between atoms: C_14  and  C_15
REMARK    6  A    between atoms: C_18  and  C_19
REMARK                            x       y       z     vdW  Elec       q    Type
REMARK                         _______ _______ _______ _____ _____    ______ ____
ROOT
ATOM      1  N   UNL     1      -0.550  10.986  21.927  0.00  0.00    +0.000 N 
ATOM      2  C   UNL     1      -0.474   9.664  22.536  0.00  0.00    +0.000 C 
ATOM      3  C   UNL     1       0.863   9.013  22.203  0.00  0.00    +0.000 C 
ATOM      4  C   UNL     1       1.071   9.037  20.712  0.00  0.00    +0.000 A 
ATOM      5  C   UNL     1       1.881   8.078  20.093  0.00  0.00    +0.000 A 
ATOM      6  C   UNL     1       2.111   8.097  18.704  0.00  0.00    +0.000 A 
ATOM      7  C   UNL     1       1.515   9.128  17.956  0.00  0.00    +0.000 A 
ATOM      8  C   UNL     1       0.735  10.111  18.564  0.00  0.00    +0.000 A 
ATOM      9  C   UNL     1       0.512  10.064  19.939  0.00  0.00    +0.000 A 
ATOM     10  C   UNL     1      -0.259  11.159  20.582  0.00  0.00    +0.000 C 
ATOM     11  O   UNL     1      -0.557  12.162  19.943  0.00  0.00    +0.000 OA
ENDROOT
BRANCH   6  12
ATOM     12  C   UNL     1       2.972   7.081  18.062  0.00  0.00    +0.000 A 
ATOM     13  C   UNL     1       4.103   7.451  17.311  0.00  0.00    +0.000 A 
ATOM     14  C   UNL     1       4.889   6.494  16.662  0.00  0.00    +0.000 A 
ATOM     15  C   UNL     1       4.565   5.141  16.766  0.00  0.00    +0.000 A 
ATOM     16  C   UNL     1       3.467   4.749  17.527  0.00  0.00    +0.000 A 
ATOM     17  C   UNL     1       2.677   5.711  18.162  0.00  0.00    +0.000 A 
BRANCH  15  18
ATOM     18  C   UNL     1       5.350   4.163  16.083  0.00  0.00    +0.000 C 
ATOM     19  N   UNL     1       5.986   3.361  15.530  0.00  0.00    +0.000 NA
ENDBRANCH  15  18
ENDBRANCH   6  12
BRANCH   1  20
ATOM     20  C   UNL     1      -1.106  12.095  22.680  0.00  0.00    +0.000 C 
BRANCH  20  21
ATOM     21  C   UNL     1      -2.631  12.252  22.534  0.00  0.00    +0.000 C 
BRANCH  21  27
ATOM     22  C   UNL     1      -5.444  12.430  24.704  0.00  0.00    +0.000 C 
ATOM     23  C   UNL     1      -4.684  13.123  23.577  0.00  0.00    +0.000 C 
ATOM     24  C   UNL     1      -4.865  14.639  23.586  0.00  0.00    +0.000 C 
ATOM     25  C   UNL     1      -3.459  15.200  23.509  0.00  0.00    +0.000 C 
ATOM     26  C   UNL     1      -2.601  14.111  24.117  0.00  0.00    +0.000 C 
ATOM     27  N   UNL     1      -3.245  12.848  23.735  0.00  0.00    +0.000 NA
ENDBRANCH  21  27
ENDBRANCH  20  21
ENDBRANCH   1  20
TORSDOF 5
ENDMDL
MODEL 8
REMARK VINA RESULT:      -7.3      5.809      9.384
REMARK  Name = 
REMARK  6 active torsions:
REMARK  status: ('A' for Active; 'I' for Inactive)
REMARK    1  A    between atoms: C_1  and  C_2
REMARK    2  A    between atoms: N_6  and  C_7
REMARK    3  A    between atoms: C_7  and  C_8
REMARK    4  A    between atoms: C_8  and  N_9
REMARK    5  A    between atoms: C_14  and  C_15
REMARK    6  A    between atoms: C_18  and  C_19
REMARK                            x       y       z     vdW  Elec       q    Type
REMARK                         _______ _______ _______ _____ _____    ______ ____
ROOT
ATOM      1  N   UNL     1       6.093   4.770  17.682  0.00  0.00    +0.000 N 
ATOM      2  C   UNL     1       7.461   4.465  18.081  0.00  0.00    +0.000 C 
ATOM      3  C   UNL     1       7.970   5.525  19.050  0.00  0.00    +0.000 C 
ATOM      4  C   UNL     1       7.777   6.889  18.442  0.00  0.00    +0.000 A 
ATOM      5  C   UNL     1       8.602   7.956  18.816  0.00  0.00    +0.000 A 
ATOM      6  C   UNL     1       8.422   9.246  18.280  0.00  0.00    +0.000 A 
ATOM      7  C   UNL     1       7.368   9.435  17.368  0.00  0.00    +0.000 A 
ATOM      8  C   UNL     1       6.516   8.390  17.014  0.00  0.00    +0.000 A 
ATOM      9  C   UNL     1       6.721   7.119  17.548  0.00  0.00    +0.000 A 
ATOM     10  C   UNL     1       5.760   6.035  17.219  0.00  0.00    +0.000 C 
ATOM     11  O   UNL     1       4.723   6.290  16.619  0.00  0.00    +0.000 OA
ENDROOT
BRANCH   6  12
ATOM     12  C   UNL     1       9.297  10.367  18.686  0.00  0.00    +0.000 A 
ATOM     13  C   UNL     1       9.429  10.739  20.036  0.00  0.00    +0.000 A 
ATOM     14  C   UNL     1      10.217  11.830  20.415  0.00  0.00    +0.000 A 
ATOM     15  C   UNL     1      10.904  12.563  19.446  0.00  0.00    +0.000 A 
ATOM     16  C   UNL     1      10.811  12.195  18.106  0.00  0.00    +0.000 A 
ATOM     17  C   UNL     1      10.010  11.113  17.732  0.00  0.00    +0.000 A 
BRANCH  15  18
ATOM     18  C   UNL     1      11.689  13.693  19.827  0.00  0.00    +0.000 C 
ATOM     19  N   UNL     1      12.333  14.610  20.138  0.00  0.00    +0.000 NA
ENDBRANCH  15  18
ENDBRANCH   6  12
BRANCH   1  20
ATOM     20  C   UNL     1       5.114   3.703  17.593  0.00  0.00    +0.000 C 
BRANCH  20  21
ATOM     21  C   UNL     1       4.271   3.516  18.868  0.00  0.00    +0.000 C 
BRANCH  21  27
ATOM     22  C   UNL     1       2.575   6.566  19.557  0.00  0.00    +0.000 C 
ATOM     23  C   UNL     1       2.798   5.126  20.009  0.00  0.00    +0.000 C 
ATOM     24  C   UNL     1       1.605   4.553  20.769  0.00  0.00    +0.000 C 
ATOM     25  C   UNL     1       1.316   3.225  20.098  0.00  0.00    +0.000 C 
ATOM     26  C   UNL     1       1.839   3.411  18.689  0.00  0.00    +0.000 C 
ATOM     27  N   UNL     1       3.013   4.282  18.819  0.00  0.00    +0.000 NA
ENDBRANCH  21  27
ENDBRANCH  20  21
ENDBRANCH   1  20
TORSDOF 5
ENDMDL
MODEL 9
REMARK VINA RESULT:      -7.3      2.394      3.340
REMARK  Name = 
REMARK  6 active torsions:
REMARK  status: ('A' for Active; 'I' for Inactive)
REMARK    1  A    between atoms: C_1  and  C_2
REMARK    2  A    between atoms: N_6  and  C_7
REMARK    3  A    between atoms: C_7  and  C_8
REMARK    4  A    between atoms: C_8  and  N_9
REMARK    5  A    between atoms: C_14  and  C_15
REMARK    6  A    between atoms: C_18  and  C_19
REMARK                            x       y       z     vdW  Elec       q    Type
REMARK                         _______ _______ _______ _____ _____    ______ ____
ROOT
ATOM      1  N   UNL     1      -0.619  10.954  22.114  0.00  0.00    +0.000 N 
ATOM      2  C   UNL     1      -0.521   9.628  22.710  0.00  0.00    +0.000 C 
ATOM      3  C   UNL     1       0.815   8.991  22.346  0.00  0.00    +0.000 C 
ATOM      4  C   UNL     1       0.994   9.030  20.852  0.00  0.00    +0.000 A 
ATOM      5  C   UNL     1       1.800   8.082  20.210  0.00  0.00    +0.000 A 
ATOM      6  C   UNL     1       2.004   8.116  18.816  0.00  0.00    +0.000 A 
ATOM      7  C   UNL     1       1.385   9.148  18.088  0.00  0.00    +0.000 A 
ATOM      8  C   UNL     1       0.608  10.118  18.720  0.00  0.00    +0.000 A 
ATOM      9  C   UNL     1       0.412  10.058  20.098  0.00  0.00    +0.000 A 
ATOM     10  C   UNL     1      -0.356  11.142  20.765  0.00  0.00    +0.000 C 
ATOM     11  O   UNL     1      -0.674  12.147  20.140  0.00  0.00    +0.000 OA
ENDROOT
BRANCH   6  12
ATOM     12  C   UNL     1       2.861   7.113  18.149  0.00  0.00    +0.000 A 
ATOM     13  C   UNL     1       4.006   7.494  17.426  0.00  0.00    +0.000 A 
ATOM     14  C   UNL     1       4.789   6.552  16.754  0.00  0.00    +0.000 A 
ATOM     15  C   UNL     1       4.447   5.200  16.805  0.00  0.00    +0.000 A 
ATOM     16  C   UNL     1       3.334   4.794  17.538  0.00  0.00    +0.000 A 
ATOM     17  C   UNL     1       2.547   5.743  18.196  0.00  0.00    +0.000 A 
BRANCH  15  18
ATOM     18  C   UNL     1       5.229   4.236  16.098  0.00  0.00    +0.000 C 
ATOM     19  N   UNL     1       5.865   3.448  15.527  0.00  0.00    +0.000 NA
ENDBRANCH  15  18
ENDBRANCH   6  12
BRANCH   1  20
ATOM     20  C   UNL     1      -1.170  12.053  22.887  0.00  0.00    +0.000 C 
BRANCH  20  21
ATOM     21  C   UNL     1      -2.707  12.138  22.850  0.00  0.00    +0.000 C 
BRANCH  21  27
ATOM     22  C   UNL     1      -1.962  15.207  21.213  0.00  0.00    +0.000 C 
ATOM     23  C   UNL     1      -2.165  14.522  22.561  0.00  0.00    +0.000 C 
ATOM     24  C   UNL     1      -2.658  15.479  23.642  0.00  0.00    +0.000 C 
ATOM     25  C   UNL     1      -3.860  14.788  24.257  0.00  0.00    +0.000 C 
ATOM     26  C   UNL     1      -4.373  13.899  23.143  0.00  0.00    +0.000 C 
ATOM     27  N   UNL     1      -3.179  13.463  22.409  0.00  0.00    +0.000 NA
ENDBRANCH  21  27
ENDBRANCH  20  21
ENDBRANCH   1  20
TORSDOF 5
ENDMDL
