MODEL 1
REMARK VINA RESULT:      -8.0      0.000      0.000
REMARK  Name = 
REMARK  6 active torsions:
REMARK  status: ('A' for Active; 'I' for Inactive)
REMARK    1  A    between atoms: C_1  and  O_2
REMARK    2  A    between atoms: O_2  and  C_3
REMARK    3  A    between atoms: C_7  and  C_8
REMARK    4  A    between atoms: C_8  and  C_9
REMARK    5  A    between atoms: C_19  and  O_20
REMARK    6  A    between atoms: O_20  and  C_21
REMARK                            x       y       z     vdW  Elec       q    Type
REMARK                         _______ _______ _______ _____ _____    ______ ____
ROOT
ATOM      1  C   UNL     1       2.664   4.099  18.201  0.00  0.00    +0.000 C 
ATOM      2  N   UNL     1       2.789   3.218  19.434  0.00  0.00    +0.000 NA
ATOM      3  C   UNL     1       1.913   3.556  20.557  0.00  0.00    +0.000 C 
ATOM      4  C   UNL     1       2.307   4.905  21.131  0.00  0.00    +0.000 C 
ATOM      5  C   UNL     1       2.251   5.889  20.034  0.00  0.00    +0.000 A 
ATOM      6  C   UNL     1       2.580   5.567  18.709  0.00  0.00    +0.000 A 
ATOM      7  N   UNL     1       2.470   6.784  18.034  0.00  0.00    +0.000 N 
ATOM      8  C   UNL     1       1.965   7.789  18.884  0.00  0.00    +0.000 A 
ATOM      9  C   UNL     1       1.678   9.158  18.719  0.00  0.00    +0.000 A 
ATOM     10  C   UNL     1       1.033   9.848  19.781  0.00  0.00    +0.000 A 
ATOM     11  C   UNL     1       0.648   9.213  20.950  0.00  0.00    +0.000 A 
ATOM     12  C   UNL     1       0.992   7.885  21.129  0.00  0.00    +0.000 A 
ATOM     13  C   UNL     1       1.700   7.185  20.110  0.00  0.00    +0.000 A 
ATOM     14  H   UNL     1       3.750   3.330  19.766  0.00  0.00    +0.000 HD
ATOM     15  H   UNL     1       2.643   6.933  17.051  0.00  0.00    +0.000 HD
ENDROOT
BRANCH  11  16
ATOM     16  O   UNL     1      -0.036   9.975  21.869  0.00  0.00    +0.000 OA
ATOM     17  C   UNL     1      -0.013   9.570  23.241  0.00  0.00    +0.000 C 
ENDBRANCH  11  16
BRANCH   1  18
ATOM     18  C   UNL     1       3.840   3.467  17.370  0.00  0.00    +0.000 C 
BRANCH  18  23
ATOM     19  C   UNL     1       6.849   5.584  16.161  0.00  0.00    +0.000 A 
ATOM     20  C   UNL     1       7.084   4.990  14.912  0.00  0.00    +0.000 A 
ATOM     21  C   UNL     1       6.272   3.958  14.471  0.00  0.00    +0.000 A 
ATOM     22  C   UNL     1       5.240   3.511  15.296  0.00  0.00    +0.000 A 
ATOM     23  C   UNL     1       4.991   4.076  16.580  0.00  0.00    +0.000 A 
ATOM     24  C   UNL     1       5.800   5.130  16.989  0.00  0.00    +0.000 A 
BRANCH  19  26
ATOM     25  C   UNL     1       7.420   7.374  17.597  0.00  0.00    +0.000 C 
ATOM     26  O   UNL     1       7.725   6.594  16.453  0.00  0.00    +0.000 OA
ENDBRANCH  19  26
ENDBRANCH  18  23
ENDBRANCH   1  18
TORSDOF 4
ENDMDL
MODEL 2
REMARK VINA RESULT:      -7.9      1.038      1.068
REMARK  Name = 
REMARK  6 active torsions:
REMARK  status: ('A' for Active; 'I' for Inactive)
REMARK    1  A    between atoms: C_1  and  O_2
REMARK    2  A    between atoms: O_2  and  C_3
REMARK    3  A    between atoms: C_7  and  C_8
REMARK    4  A    between atoms: C_8  and  C_9
REMARK    5  A    between atoms: C_19  and  O_20
REMARK    6  A    between atoms: O_20  and  C_21
REMARK                            x       y       z     vdW  Elec       q    Type
REMARK                         _______ _______ _______ _____ _____    ______ ____
ROOT
ATOM      1  C   UNL     1       2.125   4.650  18.046  0.00  0.00    +0.000 C 
ATOM      2  N   UNL     1       2.235   3.696  19.225  0.00  0.00    +0.000 NA
ATOM      3  C   UNL     1       1.468   4.057  20.418  0.00  0.00    +0.000 C 
ATOM      4  C   UNL     1       2.032   5.328  21.028  0.00  0.00    +0.000 C 
ATOM      5  C   UNL     1       2.010   6.370  19.984  0.00  0.00    +0.000 A 
ATOM      6  C   UNL     1       2.222   6.090  18.627  0.00  0.00    +0.000 A 
ATOM      7  N   UNL     1       2.196   7.346  18.019  0.00  0.00    +0.000 N 
ATOM      8  C   UNL     1       1.849   8.349  18.947  0.00  0.00    +0.000 A 
ATOM      9  C   UNL     1       1.693   9.746  18.866  0.00  0.00    +0.000 A 
ATOM     10  C   UNL     1       1.188  10.438  20.000  0.00  0.00    +0.000 A 
ATOM     11  C   UNL     1       0.812   9.782  21.161  0.00  0.00    +0.000 A 
ATOM     12  C   UNL     1       1.029   8.420  21.253  0.00  0.00    +0.000 A 
ATOM     13  C   UNL     1       1.599   7.709  20.159  0.00  0.00    +0.000 A 
ATOM     14  H   UNL     1       3.221   3.695  19.498  0.00  0.00    +0.000 HD
ATOM     15  H   UNL     1       2.324   7.530  17.034  0.00  0.00    +0.000 HD
ENDROOT
BRANCH  11  16
ATOM     16  O   UNL     1       0.267  10.558  22.158  0.00  0.00    +0.000 OA
ATOM     17  C   UNL     1      -0.410   9.904  23.236  0.00  0.00    +0.000 C 
ENDBRANCH  11  16
BRANCH   1  18
ATOM     18  C   UNL     1       3.178   3.951  17.110  0.00  0.00    +0.000 C 
BRANCH  18  23
ATOM     19  C   UNL     1       6.982   4.526  17.547  0.00  0.00    +0.000 A 
ATOM     20  C   UNL     1       7.392   4.501  16.205  0.00  0.00    +0.000 A 
ATOM     21  C   UNL     1       6.457   4.333  15.198  0.00  0.00    +0.000 A 
ATOM     22  C   UNL     1       5.116   4.168  15.541  0.00  0.00    +0.000 A 
ATOM     23  C   UNL     1       4.670   4.162  16.894  0.00  0.00    +0.000 A 
ATOM     24  C   UNL     1       5.622   4.362  17.888  0.00  0.00    +0.000 A 
BRANCH  19  26
ATOM     25  C   UNL     1       7.937   5.860  19.250  0.00  0.00    +0.000 C 
ATOM     26  O   UNL     1       8.016   4.709  18.425  0.00  0.00    +0.000 OA
ENDBRANCH  19  26
ENDBRANCH  18  23
ENDBRANCH   1  18
TORSDOF 4
ENDMDL
MODEL 3
REMARK VINA RESULT:      -7.9      3.687      5.769
REMARK  Name = 
REMARK  6 active torsions:
REMARK  status: ('A' for Active; 'I' for Inactive)
REMARK    1  A    between atoms: C_1  and  O_2
REMARK    2  A    between atoms: O_2  and  C_3
REMARK    3  A    between atoms: C_7  and  C_8
REMARK    4  A    between atoms: C_8  and  C_9
REMARK    5  A    between atoms: C_19  and  O_20
REMARK    6  A    between atoms: O_20  and  C_21
REMARK                            x       y       z     vdW  Elec       q    Type
REMARK                         _______ _______ _______ _____ _____    ______ ____
ROOT
ATOM      1  C   UNL     1       6.392   4.736  15.628  0.00  0.00    +0.000 C 
ATOM      2  N   UNL     1       6.273   6.252  15.627  0.00  0.00    +0.000 NA
ATOM      3  C   UNL     1       5.836   6.863  16.885  0.00  0.00    +0.000 C 
ATOM      4  C   UNL     1       4.401   6.465  17.180  0.00  0.00    +0.000 C 
ATOM      5  C   UNL     1       4.343   4.991  17.198  0.00  0.00    +0.000 A 
ATOM      6  C   UNL     1       5.135   4.190  16.364  0.00  0.00    +0.000 A 
ATOM      7  N   UNL     1       4.709   2.891  16.648  0.00  0.00    +0.000 N 
ATOM      8  C   UNL     1       3.785   2.884  17.712  0.00  0.00    +0.000 A 
ATOM      9  C   UNL     1       3.059   1.873  18.371  0.00  0.00    +0.000 A 
ATOM     10  C   UNL     1       2.303   2.223  19.522  0.00  0.00    +0.000 A 
ATOM     11  C   UNL     1       2.287   3.510  20.034  0.00  0.00    +0.000 A 
ATOM     12  C   UNL     1       2.950   4.508  19.343  0.00  0.00    +0.000 A 
ATOM     13  C   UNL     1       3.659   4.201  18.146  0.00  0.00    +0.000 A 
ATOM     14  H   UNL     1       5.563   6.480  14.928  0.00  0.00    +0.000 HD
ATOM     15  H   UNL     1       5.061   2.047  16.220  0.00  0.00    +0.000 HD
ENDROOT
BRANCH  11  16
ATOM     16  O   UNL     1       1.577   3.702  21.196  0.00  0.00    +0.000 OA
ATOM     17  C   UNL     1       1.320   2.570  22.033  0.00  0.00    +0.000 C 
ENDBRANCH  11  16
BRANCH   1  18
ATOM     18  C   UNL     1       6.733   4.551  14.104  0.00  0.00    +0.000 C 
BRANCH  18  23
ATOM     19  C   UNL     1       6.022   1.869  11.403  0.00  0.00    +0.000 A 
ATOM     20  C   UNL     1       4.737   2.261  10.998  0.00  0.00    +0.000 A 
ATOM     21  C   UNL     1       4.140   3.375  11.564  0.00  0.00    +0.000 A 
ATOM     22  C   UNL     1       4.827   4.079  12.553  0.00  0.00    +0.000 A 
ATOM     23  C   UNL     1       6.121   3.693  13.005  0.00  0.00    +0.000 A 
ATOM     24  C   UNL     1       6.713   2.590  12.401  0.00  0.00    +0.000 A 
BRANCH  19  26
ATOM     25  C   UNL     1       6.088  -0.491  11.288  0.00  0.00    +0.000 C 
ATOM     26  O   UNL     1       6.480   0.759  10.747  0.00  0.00    +0.000 OA
ENDBRANCH  19  26
ENDBRANCH  18  23
ENDBRANCH   1  18
TORSDOF 4
ENDMDL
MODEL 4
REMARK VINA RESULT:      -7.9      3.150      5.278
REMARK  Name = 
REMARK  6 active torsions:
REMARK  status: ('A' for Active; 'I' for Inactive)
REMARK    1  A    between atoms: C_1  and  O_2
REMARK    2  A    between atoms: O_2  and  C_3
REMARK    3  A    between atoms: C_7  and  C_8
REMARK    4  A    between atoms: C_8  and  C_9
REMARK    5  A    between atoms: C_19  and  O_20
REMARK    6  A    between atoms: O_20  and  C_21
REMARK                            x       y       z     vdW  Elec       q    Type
REMARK                         _______ _______ _______ _____ _____    ______ ____
ROOT
ATOM      1  C   UNL     1       6.627   4.618  15.561  0.00  0.00    +0.000 C 
ATOM      2  N   UNL     1       7.349   5.949  15.710  0.00  0.00    +0.000 NA
ATOM      3  C   UNL     1       7.220   6.607  17.012  0.00  0.00    +0.000 C 
ATOM      4  C   UNL     1       5.781   7.038  17.231  0.00  0.00    +0.000 C 
ATOM      5  C   UNL     1       4.932   5.839  17.099  0.00  0.00    +0.000 A 
ATOM      6  C   UNL     1       5.224   4.798  16.207  0.00  0.00    +0.000 A 
ATOM      7  N   UNL     1       4.142   3.926  16.348  0.00  0.00    +0.000 N 
ATOM      8  C   UNL     1       3.284   4.349  17.383  0.00  0.00    +0.000 A 
ATOM      9  C   UNL     1       2.079   3.855  17.919  0.00  0.00    +0.000 A 
ATOM     10  C   UNL     1       1.549   4.479  19.081  0.00  0.00    +0.000 A 
ATOM     11  C   UNL     1       2.194   5.525  19.719  0.00  0.00    +0.000 A 
ATOM     12  C   UNL     1       3.342   6.044  19.149  0.00  0.00    +0.000 A 
ATOM     13  C   UNL     1       3.860   5.486  17.945  0.00  0.00    +0.000 A 
ATOM     14  H   UNL     1       6.931   6.577  15.020  0.00  0.00    +0.000 HD
ATOM     15  H   UNL     1       4.011   3.059  15.846  0.00  0.00    +0.000 HD
ENDROOT
BRANCH  11  16
ATOM     16  O   UNL     1       1.616   5.990  20.877  0.00  0.00    +0.000 OA
ATOM     17  C   UNL     1       1.388   7.397  21.007  0.00  0.00    +0.000 C 
ENDBRANCH  11  16
BRANCH   1  18
ATOM     18  C   UNL     1       6.927   4.387  14.034  0.00  0.00    +0.000 C 
BRANCH  18  23
ATOM     19  C   UNL     1       5.957   1.775  11.345  0.00  0.00    +0.000 A 
ATOM     20  C   UNL     1       4.682   2.244  10.993  0.00  0.00    +0.000 A 
ATOM     21  C   UNL     1       4.174   3.385  11.590  0.00  0.00    +0.000 A 
ATOM     22  C   UNL     1       4.938   4.040  12.556  0.00  0.00    +0.000 A 
ATOM     23  C   UNL     1       6.224   3.576  12.954  0.00  0.00    +0.000 A 
ATOM     24  C   UNL     1       6.727   2.445  12.321  0.00  0.00    +0.000 A 
BRANCH  19  26
ATOM     25  C   UNL     1       6.061  -0.587  11.314  0.00  0.00    +0.000 C 
ATOM     26  O   UNL     1       6.325   0.646  10.665  0.00  0.00    +0.000 OA
ENDBRANCH  19  26
ENDBRANCH  18  23
ENDBRANCH   1  18
TORSDOF 4
ENDMDL
MODEL 5
REMARK VINA RESULT:      -7.8      0.991      1.783
REMARK  Name = 
REMARK  6 active torsions:
REMARK  status: ('A' for Active; 'I' for Inactive)
REMARK    1  A    between atoms: C_1  and  O_2
REMARK    2  A    between atoms: O_2  and  C_3
REMARK    3  A    between atoms: C_7  and  C_8
REMARK    4  A    between atoms: C_8  and  C_9
REMARK    5  A    between atoms: C_19  and  O_20
REMARK    6  A    between atoms: O_20  and  C_21
REMARK                            x       y       z     vdW  Elec       q    Type
REMARK                         _______ _______ _______ _____ _____    ______ ____
ROOT
ATOM      1  C   UNL     1       2.431   4.153  18.133  0.00  0.00    +0.000 C 
ATOM      2  N   UNL     1       2.537   3.268  19.365  0.00  0.00    +0.000 NA
ATOM      3  C   UNL     1       1.719   3.664  20.513  0.00  0.00    +0.000 C 
ATOM      4  C   UNL     1       2.216   4.986  21.070  0.00  0.00    +0.000 C 
ATOM      5  C   UNL     1       2.190   5.969  19.970  0.00  0.00    +0.000 A 
ATOM      6  C   UNL     1       2.457   5.625  18.638  0.00  0.00    +0.000 A 
ATOM      7  N   UNL     1       2.404   6.845  17.962  0.00  0.00    +0.000 N 
ATOM      8  C   UNL     1       1.991   7.882  18.823  0.00  0.00    +0.000 A 
ATOM      9  C   UNL     1       1.787   9.266  18.660  0.00  0.00    +0.000 A 
ATOM     10  C   UNL     1       1.221   9.998  19.739  0.00  0.00    +0.000 A 
ATOM     11  C   UNL     1       0.832   9.391  20.922  0.00  0.00    +0.000 A 
ATOM     12  C   UNL     1       1.095   8.045  21.095  0.00  0.00    +0.000 A 
ATOM     13  C   UNL     1       1.726   7.299  20.059  0.00  0.00    +0.000 A 
ATOM     14  H   UNL     1       3.513   3.319  19.667  0.00  0.00    +0.000 HD
ATOM     15  H   UNL     1       2.557   6.980  16.972  0.00  0.00    +0.000 HD
ENDROOT
BRANCH  11  16
ATOM     16  O   UNL     1       0.227  10.197  21.858  0.00  0.00    +0.000 OA
ATOM     17  C   UNL     1      -0.153   9.620  23.111  0.00  0.00    +0.000 C 
ENDBRANCH  11  16
BRANCH   1  18
ATOM     18  C   UNL     1       3.538   3.446  17.269  0.00  0.00    +0.000 C 
BRANCH  18  23
ATOM     19  C   UNL     1       6.412   4.491  14.893  0.00  0.00    +0.000 A 
ATOM     20  C   UNL     1       7.366   4.914  15.831  0.00  0.00    +0.000 A 
ATOM     21  C   UNL     1       7.091   4.832  17.185  0.00  0.00    +0.000 A 
ATOM     22  C   UNL     1       5.850   4.346  17.595  0.00  0.00    +0.000 A 
ATOM     23  C   UNL     1       4.849   3.933  16.669  0.00  0.00    +0.000 A 
ATOM     24  C   UNL     1       5.158   3.997  15.315  0.00  0.00    +0.000 A 
BRANCH  19  26
ATOM     25  C   UNL     1       6.347   3.653  12.683  0.00  0.00    +0.000 C 
ATOM     26  O   UNL     1       6.831   4.623  13.598  0.00  0.00    +0.000 OA
ENDBRANCH  19  26
ENDBRANCH  18  23
ENDBRANCH   1  18
TORSDOF 4
ENDMDL
MODEL 6
REMARK VINA RESULT:      -7.8      3.679      5.694
REMARK  Name = 
REMARK  6 active torsions:
REMARK  status: ('A' for Active; 'I' for Inactive)
REMARK    1  A    between atoms: C_1  and  O_2
REMARK    2  A    between atoms: O_2  and  C_3
REMARK    3  A    between atoms: C_7  and  C_8
REMARK    4  A    between atoms: C_8  and  C_9
REMARK    5  A    between atoms: C_19  and  O_20
REMARK    6  A    between atoms: O_20  and  C_21
REMARK                            x       y       z     vdW  Elec       q    Type
REMARK                         _______ _______ _______ _____ _____    ______ ____
ROOT
ATOM      1  C   UNL     1       6.568   4.846  15.669  0.00  0.00    +0.000 C 
ATOM      2  N   UNL     1       6.513   6.363  15.749  0.00  0.00    +0.000 NA
ATOM      3  C   UNL     1       6.129   6.925  17.046  0.00  0.00    +0.000 C 
ATOM      4  C   UNL     1       4.685   6.571  17.354  0.00  0.00    +0.000 C 
ATOM      5  C   UNL     1       4.565   5.102  17.297  0.00  0.00    +0.000 A 
ATOM      6  C   UNL     1       5.305   4.314  16.405  0.00  0.00    +0.000 A 
ATOM      7  N   UNL     1       4.831   3.020  16.631  0.00  0.00    +0.000 N 
ATOM      8  C   UNL     1       3.930   2.995  17.715  0.00  0.00    +0.000 A 
ATOM      9  C   UNL     1       3.176   1.982  18.338  0.00  0.00    +0.000 A 
ATOM     10  C   UNL     1       2.460   2.302  19.522  0.00  0.00    +0.000 A 
ATOM     11  C   UNL     1       2.508   3.560  20.100  0.00  0.00    +0.000 A 
ATOM     12  C   UNL     1       3.198   4.564  19.446  0.00  0.00    +0.000 A 
ATOM     13  C   UNL     1       3.869   4.292  18.219  0.00  0.00    +0.000 A 
ATOM     14  H   UNL     1       5.798   6.657  15.078  0.00  0.00    +0.000 HD
ATOM     15  H   UNL     1       5.138   2.186  16.153  0.00  0.00    +0.000 HD
ENDROOT
BRANCH  11  16
ATOM     16  O   UNL     1       1.832   3.720  21.287  0.00  0.00    +0.000 OA
ATOM     17  C   UNL     1       1.337   2.553  21.951  0.00  0.00    +0.000 C 
ENDBRANCH  11  16
BRANCH   1  18
ATOM     18  C   UNL     1       6.869   4.727  14.130  0.00  0.00    +0.000 C 
BRANCH  18  23
ATOM     19  C   UNL     1       4.532   3.065  11.527  0.00  0.00    +0.000 A 
ATOM     20  C   UNL     1       5.432   2.177  10.918  0.00  0.00    +0.000 A 
ATOM     21  C   UNL     1       6.742   2.104  11.362  0.00  0.00    +0.000 A 
ATOM     22  C   UNL     1       7.151   2.940  12.401  0.00  0.00    +0.000 A 
ATOM     23  C   UNL     1       6.270   3.870  13.023  0.00  0.00    +0.000 A 
ATOM     24  C   UNL     1       4.952   3.905  12.581  0.00  0.00    +0.000 A 
BRANCH  19  26
ATOM     25  C   UNL     1       3.048   3.844   9.860  0.00  0.00    +0.000 C 
ATOM     26  O   UNL     1       3.276   3.015  10.988  0.00  0.00    +0.000 OA
ENDBRANCH  19  26
ENDBRANCH  18  23
ENDBRANCH   1  18
TORSDOF 4
ENDMDL
MODEL 7
REMARK VINA RESULT:      -7.7      3.153      5.231
REMARK  Name = 
REMARK  6 active torsions:
REMARK  status: ('A' for Active; 'I' for Inactive)
REMARK    1  A    between atoms: C_1  and  O_2
REMARK    2  A    between atoms: O_2  and  C_3
REMARK    3  A    between atoms: C_7  and  C_8
REMARK    4  A    between atoms: C_8  and  C_9
REMARK    5  A    between atoms: C_19  and  O_20
REMARK    6  A    between atoms: O_20  and  C_21
REMARK                            x       y       z     vdW  Elec       q    Type
REMARK                         _______ _______ _______ _____ _____    ______ ____
ROOT
ATOM      1  C   UNL     1       6.655   4.607  15.500  0.00  0.00    +0.000 C 
ATOM      2  N   UNL     1       7.374   5.936  15.671  0.00  0.00    +0.000 NA
ATOM      3  C   UNL     1       7.244   6.573  16.983  0.00  0.00    +0.000 C 
ATOM      4  C   UNL     1       5.805   6.997  17.211  0.00  0.00    +0.000 C 
ATOM      5  C   UNL     1       4.958   5.799  17.060  0.00  0.00    +0.000 A 
ATOM      6  C   UNL     1       5.251   4.773  16.151  0.00  0.00    +0.000 A 
ATOM      7  N   UNL     1       4.172   3.897  16.279  0.00  0.00    +0.000 N 
ATOM      8  C   UNL     1       3.314   4.301  17.322  0.00  0.00    +0.000 A 
ATOM      9  C   UNL     1       2.111   3.795  17.851  0.00  0.00    +0.000 A 
ATOM     10  C   UNL     1       1.581   4.399  19.023  0.00  0.00    +0.000 A 
ATOM     11  C   UNL     1       2.225   5.436  19.678  0.00  0.00    +0.000 A 
ATOM     12  C   UNL     1       3.370   5.966  19.115  0.00  0.00    +0.000 A 
ATOM     13  C   UNL     1       3.888   5.429  17.902  0.00  0.00    +0.000 A 
ATOM     14  H   UNL     1       6.953   6.575  14.992  0.00  0.00    +0.000 HD
ATOM     15  H   UNL     1       4.042   3.038  15.763  0.00  0.00    +0.000 HD
ENDROOT
BRANCH  11  16
ATOM     16  O   UNL     1       1.647   5.880  20.845  0.00  0.00    +0.000 OA
ATOM     17  C   UNL     1       1.422   7.285  21.001  0.00  0.00    +0.000 C 
ENDBRANCH  11  16
BRANCH   1  18
ATOM     18  C   UNL     1       6.953   4.402  13.970  0.00  0.00    +0.000 C 
BRANCH  18  23
ATOM     19  C   UNL     1       4.396   3.051  11.395  0.00  0.00    +0.000 A 
ATOM     20  C   UNL     1       5.166   2.051  10.782  0.00  0.00    +0.000 A 
ATOM     21  C   UNL     1       6.458   1.809  11.215  0.00  0.00    +0.000 A 
ATOM     22  C   UNL     1       6.983   2.587  12.247  0.00  0.00    +0.000 A 
ATOM     23  C   UNL     1       6.237   3.627  12.872  0.00  0.00    +0.000 A 
ATOM     24  C   UNL     1       4.931   3.833  12.442  0.00  0.00    +0.000 A 
BRANCH  19  26
ATOM     25  C   UNL     1       2.999   4.059   9.775  0.00  0.00    +0.000 C 
ATOM     26  O   UNL     1       3.138   3.165  10.867  0.00  0.00    +0.000 OA
ENDBRANCH  19  26
ENDBRANCH  18  23
ENDBRANCH   1  18
TORSDOF 4
ENDMDL
MODEL 8
REMARK VINA RESULT:      -7.7      1.570      7.547
REMARK  Name = 
REMARK  6 active torsions:
REMARK  status: ('A' for Active; 'I' for Inactive)
REMARK    1  A    between atoms: C_1  and  O_2
REMARK    2  A    between atoms: O_2  and  C_3
REMARK    3  A    between atoms: C_7  and  C_8
REMARK    4  A    between atoms: C_8  and  C_9
REMARK    5  A    between atoms: C_19  and  O_20
REMARK    6  A    between atoms: O_20  and  C_21
REMARK                            x       y       z     vdW  Elec       q    Type
REMARK                         _______ _______ _______ _____ _____    ______ ____
ROOT
ATOM      1  C   UNL     1       1.955   5.878  20.552  0.00  0.00    +0.000 C 
ATOM      2  N   UNL     1       1.241   4.545  20.717  0.00  0.00    +0.000 NA
ATOM      3  C   UNL     1       1.959   3.367  20.227  0.00  0.00    +0.000 C 
ATOM      4  C   UNL     1       2.089   3.434  18.716  0.00  0.00    +0.000 C 
ATOM      5  C   UNL     1       2.760   4.704  18.383  0.00  0.00    +0.000 A 
ATOM      6  C   UNL     1       2.570   5.879  19.123  0.00  0.00    +0.000 A 
ATOM      7  N   UNL     1       3.314   6.835  18.428  0.00  0.00    +0.000 N 
ATOM      8  C   UNL     1       4.040   6.241  17.375  0.00  0.00    +0.000 A 
ATOM      9  C   UNL     1       4.914   6.736  16.388  0.00  0.00    +0.000 A 
ATOM     10  C   UNL     1       5.590   5.806  15.554  0.00  0.00    +0.000 A 
ATOM     11  C   UNL     1       5.446   4.436  15.704  0.00  0.00    +0.000 A 
ATOM     12  C   UNL     1       4.537   3.962  16.632  0.00  0.00    +0.000 A 
ATOM     13  C   UNL     1       3.793   4.873  17.436  0.00  0.00    +0.000 A 
ATOM     14  H   UNL     1       0.381   4.614  20.169  0.00  0.00    +0.000 HD
ATOM     15  H   UNL     1       3.402   7.810  18.674  0.00  0.00    +0.000 HD
ENDROOT
BRANCH  11  16
ATOM     16  O   UNL     1       6.213   3.642  14.883  0.00  0.00    +0.000 OA
ATOM     17  C   UNL     1       6.092   3.809  13.467  0.00  0.00    +0.000 C 
ENDBRANCH  11  16
BRANCH   1  18
ATOM     18  C   UNL     1       0.792   6.804  21.066  0.00  0.00    +0.000 C 
BRANCH  18  23
ATOM     19  C   UNL     1       0.040  10.443  22.153  0.00  0.00    +0.000 A 
ATOM     20  C   UNL     1       0.471  11.137  21.012  0.00  0.00    +0.000 A 
ATOM     21  C   UNL     1       0.960  10.439  19.920  0.00  0.00    +0.000 A 
ATOM     22  C   UNL     1       1.035   9.048  19.986  0.00  0.00    +0.000 A 
ATOM     23  C   UNL     1       0.631   8.316  21.139  0.00  0.00    +0.000 A 
ATOM     24  C   UNL     1       0.116   9.035  22.212  0.00  0.00    +0.000 A 
BRANCH  19  26
ATOM     25  C   UNL     1      -1.201  12.375  22.719  0.00  0.00    +0.000 C 
ATOM     26  O   UNL     1      -0.424  11.267  23.143  0.00  0.00    +0.000 OA
ENDBRANCH  19  26
ENDBRANCH  18  23
ENDBRANCH   1  18
TORSDOF 4
ENDMDL
MODEL 9
REMARK VINA RESULT:      -7.6      2.193      3.130
REMARK  Name = 
REMARK  6 active torsions:
REMARK  status: ('A' for Active; 'I' for Inactive)
REMARK    1  A    between atoms: C_1  and  O_2
REMARK    2  A    between atoms: O_2  and  C_3
REMARK    3  A    between atoms: C_7  and  C_8
REMARK    4  A    between atoms: C_8  and  C_9
REMARK    5  A    between atoms: C_19  and  O_20
REMARK    6  A    between atoms: O_20  and  C_21
REMARK                            x       y       z     vdW  Elec       q    Type
REMARK                         _______ _______ _______ _____ _____    ______ ____
ROOT
ATOM      1  C   UNL     1       4.657   4.676  16.911  0.00  0.00    +0.000 C 
ATOM      2  N   UNL     1       5.015   3.700  18.021  0.00  0.00    +0.000 NA
ATOM      3  C   UNL     1       4.051   3.592  19.118  0.00  0.00    +0.000 C 
ATOM      4  C   UNL     1       4.001   4.897  19.892  0.00  0.00    +0.000 C 
ATOM      5  C   UNL     1       3.675   5.970  18.933  0.00  0.00    +0.000 A 
ATOM      6  C   UNL     1       4.118   5.960  17.603  0.00  0.00    +0.000 A 
ATOM      7  N   UNL     1       3.658   7.175  17.090  0.00  0.00    +0.000 N 
ATOM      8  C   UNL     1       2.851   7.847  18.030  0.00  0.00    +0.000 A 
ATOM      9  C   UNL     1       2.164   9.076  18.029  0.00  0.00    +0.000 A 
ATOM     10  C   UNL     1       1.315   9.378  19.128  0.00  0.00    +0.000 A 
ATOM     11  C   UNL     1       1.113   8.492  20.173  0.00  0.00    +0.000 A 
ATOM     12  C   UNL     1       1.841   7.317  20.197  0.00  0.00    +0.000 A 
ATOM     13  C   UNL     1       2.753   7.017  19.145  0.00  0.00    +0.000 A 
ATOM     14  H   UNL     1       5.888   4.043  18.430  0.00  0.00    +0.000 HD
ATOM     15  H   UNL     1       3.802   7.512  16.149  0.00  0.00    +0.000 HD
ENDROOT
BRANCH  11  16
ATOM     16  O   UNL     1       0.208   8.872  21.137  0.00  0.00    +0.000 OA
ATOM     17  C   UNL     1       0.704   9.458  22.345  0.00  0.00    +0.000 C 
ENDBRANCH  11  16
BRANCH   1  18
ATOM     18  C   UNL     1       5.990   4.553  16.085  0.00  0.00    +0.000 C 
BRANCH  18  23
ATOM     19  C   UNL     1       5.913   3.418  12.384  0.00  0.00    +0.000 A 
ATOM     20  C   UNL     1       7.006   4.139  11.881  0.00  0.00    +0.000 A 
ATOM     21  C   UNL     1       7.755   4.941  12.725  0.00  0.00    +0.000 A 
ATOM     22  C   UNL     1       7.391   5.033  14.068  0.00  0.00    +0.000 A 
ATOM     23  C   UNL     1       6.272   4.335  14.605  0.00  0.00    +0.000 A 
ATOM     24  C   UNL     1       5.552   3.513  13.745  0.00  0.00    +0.000 A 
BRANCH  19  26
ATOM     25  C   UNL     1       3.961   3.068  11.095  0.00  0.00    +0.000 C 
ATOM     26  O   UNL     1       5.278   2.665  11.433  0.00  0.00    +0.000 OA
ENDBRANCH  19  26
ENDBRANCH  18  23
ENDBRANCH   1  18
TORSDOF 4
ENDMDL
