MODEL 1
REMARK VINA RESULT:      -7.4      0.000      0.000
REMARK  Name = 
REMARK  10 active torsions:
REMARK  status: ('A' for Active; 'I' for Inactive)
REMARK    1  A    between atoms: O_1  and  C_2
REMARK    2  A    between atoms: C_2  and  C_3
REMARK    3  A    between atoms: C_3  and  C_4
REMARK    4  A    between atoms: C_5  and  C_6
REMARK    5  A    between atoms: C_9  and  C_10
REMARK    6  A    between atoms: C_10  and  N_11
REMARK    7  A    between atoms: N_14  and  C_15
REMARK    8  A    between atoms: C_21  and  C_22
REMARK    9  A    between atoms: C_22  and  C_23
REMARK   10  A    between atoms: C_23  and  O_24
REMARK                            x       y       z     vdW  Elec       q    Type
REMARK                         _______ _______ _______ _____ _____    ______ ____
ROOT
ATOM      1  N   UNL     1       5.014   3.969  16.662  0.00  0.00    +0.000 NA
ATOM      2  C   UNL     1       4.721   3.035  17.765  0.00  0.00    +0.000 C 
ATOM      3  C   UNL     1       4.470   3.605  19.194  0.00  0.00    +0.000 C 
ATOM      4  N   UNL     1       3.821   4.918  19.336  0.00  0.00    +0.000 NA
ATOM      5  C   UNL     1       4.322   5.827  18.277  0.00  0.00    +0.000 C 
ATOM      6  C   UNL     1       4.200   5.202  16.852  0.00  0.00    +0.000 C 
ENDROOT
BRANCH   4   7
ATOM      7  C   UNL     1       2.388   4.966  19.700  0.00  0.00    +0.000 C 
ATOM      8  C   UNL     1       1.380   4.068  18.961  0.00  0.00    +0.000 C 
ATOM      9  C   UNL     1       1.271   2.630  19.457  0.00  0.00    +0.000 C 
ATOM     10  C   UNL     1       1.207   2.476  20.974  0.00  0.00    +0.000 C 
ATOM     11  C   UNL     1       2.126   3.401  21.764  0.00  0.00    +0.000 C 
ATOM     12  C   UNL     1       2.148   4.826  21.226  0.00  0.00    +0.000 C 
ENDBRANCH   4   7
BRANCH   1  13
ATOM     13  C   UNL     1       6.445   4.308  16.546  0.00  0.00    +0.000 C 
BRANCH  13  17
ATOM     14  C   UNL     1       8.184   7.899  18.307  0.00  0.00    +0.000 A 
ATOM     15  C   UNL     1       8.183   6.711  19.046  0.00  0.00    +0.000 A 
ATOM     16  C   UNL     1       7.596   5.538  18.526  0.00  0.00    +0.000 A 
ATOM     17  C   UNL     1       6.982   5.541  17.266  0.00  0.00    +0.000 A 
ATOM     18  C   UNL     1       6.976   6.751  16.546  0.00  0.00    +0.000 A 
ATOM     19  C   UNL     1       7.568   7.910  17.053  0.00  0.00    +0.000 A 
BRANCH  14  21
ATOM     20  C   UNL     1       9.280  10.172  19.081  0.00  0.00    +0.000 C 
ATOM     21  C   UNL     1       8.805   9.104  18.780  0.00  0.00    +0.000 C 
BRANCH  20  22
ATOM     22  C   UNL     1       9.773  11.526  19.390  0.00  0.00    +0.000 C 
BRANCH  22  23
ATOM     23  C   UNL     1      10.119  11.715  20.864  0.00  0.00    +0.000 C 
BRANCH  23  24
ATOM     24  O   UNL     1       9.259  10.902  21.660  0.00  0.00    +0.000 OA
ATOM     25  H   UNL     1       9.216  11.307  22.543  0.00  0.00    +0.000 HD
ENDBRANCH  23  24
ENDBRANCH  22  23
ENDBRANCH  20  22
ENDBRANCH  14  21
ENDBRANCH  13  17
ENDBRANCH   1  13
BRANCH   5  26
ATOM     26  C   UNL     1       3.873   7.307  18.320  0.00  0.00    +0.000 C 
BRANCH  26  27
ATOM     27  C   UNL     1       2.616   7.539  17.478  0.00  0.00    +0.000 C 
BRANCH  27  28
ATOM     28  O   UNL     1       2.290   8.925  17.454  0.00  0.00    +0.000 OA
ATOM     29  H   UNL     1       2.801   9.335  16.734  0.00  0.00    +0.000 HD
ENDBRANCH  27  28
ENDBRANCH  26  27
ENDBRANCH   5  26
TORSDOF 10
ENDMDL
MODEL 2
REMARK VINA RESULT:      -7.2      5.898      8.368
REMARK  Name = 
REMARK  10 active torsions:
REMARK  status: ('A' for Active; 'I' for Inactive)
REMARK    1  A    between atoms: O_1  and  C_2
REMARK    2  A    between atoms: C_2  and  C_3
REMARK    3  A    between atoms: C_3  and  C_4
REMARK    4  A    between atoms: C_5  and  C_6
REMARK    5  A    between atoms: C_9  and  C_10
REMARK    6  A    between atoms: C_10  and  N_11
REMARK    7  A    between atoms: N_14  and  C_15
REMARK    8  A    between atoms: C_21  and  C_22
REMARK    9  A    between atoms: C_22  and  C_23
REMARK   10  A    between atoms: C_23  and  O_24
REMARK                            x       y       z     vdW  Elec       q    Type
REMARK                         _______ _______ _______ _____ _____    ______ ____
ROOT
ATOM      1  N   UNL     1      -0.157   8.859  21.178  0.00  0.00    +0.000 NA
ATOM      2  C   UNL     1      -0.763   9.270  22.459  0.00  0.00    +0.000 C 
ATOM      3  C   UNL     1      -0.498  10.710  22.996  0.00  0.00    +0.000 C 
ATOM      4  N   UNL     1      -0.329  11.811  22.035  0.00  0.00    +0.000 NA
ATOM      5  C   UNL     1       0.444  11.325  20.866  0.00  0.00    +0.000 C 
ATOM      6  C   UNL     1      -0.163  10.025  20.251  0.00  0.00    +0.000 C 
ENDROOT
BRANCH   4   7
ATOM      7  C   UNL     1      -1.462  12.736  21.808  0.00  0.00    +0.000 C 
ATOM      8  C   UNL     1      -2.884  12.320  22.224  0.00  0.00    +0.000 C 
ATOM      9  C   UNL     1      -3.243  12.529  23.693  0.00  0.00    +0.000 C 
ATOM     10  C   UNL     1      -2.820  13.876  24.272  0.00  0.00    +0.000 C 
ATOM     11  C   UNL     1      -1.452  14.379  23.827  0.00  0.00    +0.000 C 
ATOM     12  C   UNL     1      -1.188  14.166  22.342  0.00  0.00    +0.000 C 
ENDBRANCH   4   7
BRANCH   1  13
ATOM     13  C   UNL     1       1.209   8.323  21.323  0.00  0.00    +0.000 C 
BRANCH  13  17
ATOM     14  C   UNL     1       3.222   5.929  18.284  0.00  0.00    +0.000 A 
ATOM     15  C   UNL     1       2.945   7.274  18.017  0.00  0.00    +0.000 A 
ATOM     16  C   UNL     1       2.261   8.071  18.960  0.00  0.00    +0.000 A 
ATOM     17  C   UNL     1       1.826   7.529  20.177  0.00  0.00    +0.000 A 
ATOM     18  C   UNL     1       2.098   6.168  20.419  0.00  0.00    +0.000 A 
ATOM     19  C   UNL     1       2.786   5.381  19.493  0.00  0.00    +0.000 A 
BRANCH  14  21
ATOM     20  C   UNL     1       4.652   4.469  16.613  0.00  0.00    +0.000 C 
ATOM     21  C   UNL     1       3.950   5.093  17.372  0.00  0.00    +0.000 C 
BRANCH  20  22
ATOM     22  C   UNL     1       5.601   3.755  15.742  0.00  0.00    +0.000 C 
BRANCH  22  23
ATOM     23  C   UNL     1       6.207   4.645  14.661  0.00  0.00    +0.000 C 
BRANCH  23  24
ATOM     24  O   UNL     1       6.500   5.927  15.212  0.00  0.00    +0.000 OA
ATOM     25  H   UNL     1       7.366   5.862  15.650  0.00  0.00    +0.000 HD
ENDBRANCH  23  24
ENDBRANCH  22  23
ENDBRANCH  20  22
ENDBRANCH  14  21
ENDBRANCH  13  17
ENDBRANCH   1  13
BRANCH   5  26
ATOM     26  C   UNL     1       0.857  12.358  19.790  0.00  0.00    +0.000 C 
BRANCH  26  27
ATOM     27  C   UNL     1       2.165  13.062  20.158  0.00  0.00    +0.000 C 
BRANCH  27  28
ATOM     28  O   UNL     1       2.151  13.435  21.532  0.00  0.00    +0.000 OA
ATOM     29  H   UNL     1       1.220  13.524  21.804  0.00  0.00    +0.000 HD
ENDBRANCH  27  28
ENDBRANCH  26  27
ENDBRANCH   5  26
TORSDOF 10
ENDMDL
MODEL 3
REMARK VINA RESULT:      -7.1      1.408      1.506
REMARK  Name = 
REMARK  10 active torsions:
REMARK  status: ('A' for Active; 'I' for Inactive)
REMARK    1  A    between atoms: O_1  and  C_2
REMARK    2  A    between atoms: C_2  and  C_3
REMARK    3  A    between atoms: C_3  and  C_4
REMARK    4  A    between atoms: C_5  and  C_6
REMARK    5  A    between atoms: C_9  and  C_10
REMARK    6  A    between atoms: C_10  and  N_11
REMARK    7  A    between atoms: N_14  and  C_15
REMARK    8  A    between atoms: C_21  and  C_22
REMARK    9  A    between atoms: C_22  and  C_23
REMARK   10  A    between atoms: C_23  and  O_24
REMARK                            x       y       z     vdW  Elec       q    Type
REMARK                         _______ _______ _______ _____ _____    ______ ____
ROOT
ATOM      1  N   UNL     1       4.212   3.526  17.285  0.00  0.00    +0.000 NA
ATOM      2  C   UNL     1       4.583   3.181  18.670  0.00  0.00    +0.000 C 
ATOM      3  C   UNL     1       4.453   4.266  19.782  0.00  0.00    +0.000 C 
ATOM      4  N   UNL     1       3.378   5.266  19.683  0.00  0.00    +0.000 NA
ATOM      5  C   UNL     1       3.211   5.666  18.265  0.00  0.00    +0.000 C 
ATOM      6  C   UNL     1       3.034   4.437  17.319  0.00  0.00    +0.000 C 
ENDROOT
BRANCH   4   7
ATOM      7  C   UNL     1       2.172   5.097  20.525  0.00  0.00    +0.000 C 
ATOM      8  C   UNL     1       0.870   4.566  19.898  0.00  0.00    +0.000 C 
ATOM      9  C   UNL     1       0.762   3.050  19.757  0.00  0.00    +0.000 C 
ATOM     10  C   UNL     1       1.202   2.258  20.984  0.00  0.00    +0.000 C 
ATOM     11  C   UNL     1       2.441   2.788  21.696  0.00  0.00    +0.000 C 
ATOM     12  C   UNL     1       2.452   4.306  21.828  0.00  0.00    +0.000 C 
ENDBRANCH   4   7
BRANCH   1  13
ATOM     13  C   UNL     1       5.315   4.137  16.519  0.00  0.00    +0.000 C 
BRANCH  13  17
ATOM     14  C   UNL     1       7.556   7.625  17.872  0.00  0.00    +0.000 A 
ATOM     15  C   UNL     1       7.837   6.375  18.435  0.00  0.00    +0.000 A 
ATOM     16  C   UNL     1       7.108   5.230  18.051  0.00  0.00    +0.000 A 
ATOM     17  C   UNL     1       6.071   5.321  17.112  0.00  0.00    +0.000 A 
ATOM     18  C   UNL     1       5.791   6.591  16.571  0.00  0.00    +0.000 A 
ATOM     19  C   UNL     1       6.520   7.724  16.940  0.00  0.00    +0.000 A 
BRANCH  14  21
ATOM     20  C   UNL     1       8.907   9.837  18.369  0.00  0.00    +0.000 C 
ATOM     21  C   UNL     1       8.300   8.807  18.203  0.00  0.00    +0.000 C 
BRANCH  20  22
ATOM     22  C   UNL     1       9.584  11.141  18.484  0.00  0.00    +0.000 C 
BRANCH  22  23
ATOM     23  C   UNL     1       8.852  12.262  17.754  0.00  0.00    +0.000 C 
BRANCH  23  24
ATOM     24  O   UNL     1       9.804  13.138  17.155  0.00  0.00    +0.000 OA
ATOM     25  H   UNL     1      10.600  13.125  17.714  0.00  0.00    +0.000 HD
ENDBRANCH  23  24
ENDBRANCH  22  23
ENDBRANCH  20  22
ENDBRANCH  14  21
ENDBRANCH  13  17
ENDBRANCH   1  13
BRANCH   5  26
ATOM     26  C   UNL     1       2.222   6.812  17.946  0.00  0.00    +0.000 C 
BRANCH  26  27
ATOM     27  C   UNL     1       2.933   8.167  17.883  0.00  0.00    +0.000 C 
BRANCH  27  28
ATOM     28  O   UNL     1       2.008   9.218  18.144  0.00  0.00    +0.000 OA
ATOM     29  H   UNL     1       2.301   9.999  17.643  0.00  0.00    +0.000 HD
ENDBRANCH  27  28
ENDBRANCH  26  27
ENDBRANCH   5  26
TORSDOF 10
ENDMDL
MODEL 4
REMARK VINA RESULT:      -7.0      4.488      7.951
REMARK  Name = 
REMARK  10 active torsions:
REMARK  status: ('A' for Active; 'I' for Inactive)
REMARK    1  A    between atoms: O_1  and  C_2
REMARK    2  A    between atoms: C_2  and  C_3
REMARK    3  A    between atoms: C_3  and  C_4
REMARK    4  A    between atoms: C_5  and  C_6
REMARK    5  A    between atoms: C_9  and  C_10
REMARK    6  A    between atoms: C_10  and  N_11
REMARK    7  A    between atoms: N_14  and  C_15
REMARK    8  A    between atoms: C_21  and  C_22
REMARK    9  A    between atoms: C_22  and  C_23
REMARK   10  A    between atoms: C_23  and  O_24
REMARK                            x       y       z     vdW  Elec       q    Type
REMARK                         _______ _______ _______ _____ _____    ______ ____
ROOT
ATOM      1  N   UNL     1       2.592   6.754  18.217  0.00  0.00    +0.000 NA
ATOM      2  C   UNL     1       3.833   7.202  17.556  0.00  0.00    +0.000 C 
ATOM      3  C   UNL     1       5.181   6.510  17.925  0.00  0.00    +0.000 C 
ATOM      4  N   UNL     1       5.177   5.083  18.283  0.00  0.00    +0.000 NA
ATOM      5  C   UNL     1       3.970   4.786  19.093  0.00  0.00    +0.000 C 
ATOM      6  C   UNL     1       2.658   5.278  18.405  0.00  0.00    +0.000 C 
ENDROOT
BRANCH   4   7
ATOM      7  C   UNL     1       5.621   4.096  17.274  0.00  0.00    +0.000 C 
ATOM      8  C   UNL     1       4.813   3.911  15.977  0.00  0.00    +0.000 C 
ATOM      9  C   UNL     1       5.096   4.911  14.860  0.00  0.00    +0.000 C 
ATOM     10  C   UNL     1       6.575   5.190  14.608  0.00  0.00    +0.000 C 
ATOM     11  C   UNL     1       7.442   5.301  15.856  0.00  0.00    +0.000 C 
ATOM     12  C   UNL     1       7.120   4.244  16.905  0.00  0.00    +0.000 C 
ENDBRANCH   4   7
BRANCH   1  13
ATOM     13  C   UNL     1       2.339   7.428  19.504  0.00  0.00    +0.000 C 
BRANCH  13  17
ATOM     14  C   UNL     1      -0.580  10.657  19.769  0.00  0.00    +0.000 A 
ATOM     15  C   UNL     1       0.086  10.440  18.558  0.00  0.00    +0.000 A 
ATOM     16  C   UNL     1       1.065   9.430  18.444  0.00  0.00    +0.000 A 
ATOM     17  C   UNL     1       1.407   8.634  19.545  0.00  0.00    +0.000 A 
ATOM     18  C   UNL     1       0.738   8.880  20.761  0.00  0.00    +0.000 A 
ATOM     19  C   UNL     1      -0.240   9.871  20.873  0.00  0.00    +0.000 A 
BRANCH  14  21
ATOM     20  C   UNL     1      -2.495  12.433  20.155  0.00  0.00    +0.000 C 
ATOM     21  C   UNL     1      -1.611  11.644  19.919  0.00  0.00    +0.000 C 
BRANCH  20  22
ATOM     22  C   UNL     1      -3.544  13.385  20.558  0.00  0.00    +0.000 C 
BRANCH  22  23
ATOM     23  C   UNL     1      -4.582  12.771  21.492  0.00  0.00    +0.000 C 
BRANCH  23  24
ATOM     24  O   UNL     1      -3.933  12.274  22.661  0.00  0.00    +0.000 OA
ATOM     25  H   UNL     1      -3.522  11.425  22.424  0.00  0.00    +0.000 HD
ENDBRANCH  23  24
ENDBRANCH  22  23
ENDBRANCH  20  22
ENDBRANCH  14  21
ENDBRANCH  13  17
ENDBRANCH   1  13
BRANCH   5  26
ATOM     26  C   UNL     1       3.833   3.367  19.695  0.00  0.00    +0.000 C 
BRANCH  26  27
ATOM     27  C   UNL     1       2.642   2.615  19.096  0.00  0.00    +0.000 C 
BRANCH  27  28
ATOM     28  O   UNL     1       3.080   1.396  18.505  0.00  0.00    +0.000 OA
ATOM     29  H   UNL     1       3.742   1.001  19.099  0.00  0.00    +0.000 HD
ENDBRANCH  27  28
ENDBRANCH  26  27
ENDBRANCH   5  26
TORSDOF 10
ENDMDL
MODEL 5
REMARK VINA RESULT:      -7.0      5.821      8.159
REMARK  Name = 
REMARK  10 active torsions:
REMARK  status: ('A' for Active; 'I' for Inactive)
REMARK    1  A    between atoms: O_1  and  C_2
REMARK    2  A    between atoms: C_2  and  C_3
REMARK    3  A    between atoms: C_3  and  C_4
REMARK    4  A    between atoms: C_5  and  C_6
REMARK    5  A    between atoms: C_9  and  C_10
REMARK    6  A    between atoms: C_10  and  N_11
REMARK    7  A    between atoms: N_14  and  C_15
REMARK    8  A    between atoms: C_21  and  C_22
REMARK    9  A    between atoms: C_22  and  C_23
REMARK   10  A    between atoms: C_23  and  O_24
REMARK                            x       y       z     vdW  Elec       q    Type
REMARK                         _______ _______ _______ _____ _____    ______ ____
ROOT
ATOM      1  N   UNL     1       0.240   9.254  20.237  0.00  0.00    +0.000 NA
ATOM      2  C   UNL     1      -0.680   9.402  21.381  0.00  0.00    +0.000 C 
ATOM      3  C   UNL     1      -0.503  10.614  22.345  0.00  0.00    +0.000 C 
ATOM      4  N   UNL     1      -0.013  11.892  21.804  0.00  0.00    +0.000 NA
ATOM      5  C   UNL     1       1.032  11.623  20.786  0.00  0.00    +0.000 C 
ATOM      6  C   UNL     1       0.556  10.608  19.701  0.00  0.00    +0.000 C 
ENDROOT
BRANCH   4   7
ATOM      7  C   UNL     1      -0.986  12.979  21.559  0.00  0.00    +0.000 C 
ATOM      8  C   UNL     1      -2.494  12.668  21.543  0.00  0.00    +0.000 C 
ATOM      9  C   UNL     1      -3.181  12.605  22.904  0.00  0.00    +0.000 C 
ATOM     10  C   UNL     1      -2.814  13.734  23.862  0.00  0.00    +0.000 C 
ATOM     11  C   UNL     1      -1.345  14.143  23.860  0.00  0.00    +0.000 C 
ATOM     12  C   UNL     1      -0.746  14.217  22.461  0.00  0.00    +0.000 C 
ENDBRANCH   4   7
BRANCH   1  13
ATOM     13  C   UNL     1       1.481   8.530  20.575  0.00  0.00    +0.000 C 
BRANCH  13  17
ATOM     14  C   UNL     1       3.712   6.052  17.764  0.00  0.00    +0.000 A 
ATOM     15  C   UNL     1       3.385   7.364  17.403  0.00  0.00    +0.000 A 
ATOM     16  C   UNL     1       2.631   8.184  18.270  0.00  0.00    +0.000 A 
ATOM     17  C   UNL     1       2.175   7.698  19.503  0.00  0.00    +0.000 A 
ATOM     18  C   UNL     1       2.499   6.368  19.840  0.00  0.00    +0.000 A 
ATOM     19  C   UNL     1       3.255   5.559  18.990  0.00  0.00    +0.000 A 
BRANCH  14  21
ATOM     20  C   UNL     1       5.135   4.536  16.139  0.00  0.00    +0.000 C 
ATOM     21  C   UNL     1       4.510   5.197  16.933  0.00  0.00    +0.000 C 
BRANCH  20  22
ATOM     22  C   UNL     1       5.890   3.819  15.097  0.00  0.00    +0.000 C 
BRANCH  22  23
ATOM     23  C   UNL     1       6.728   4.746  14.221  0.00  0.00    +0.000 C 
BRANCH  23  24
ATOM     24  O   UNL     1       7.773   5.320  15.003  0.00  0.00    +0.000 OA
ATOM     25  H   UNL     1       7.361   5.955  15.614  0.00  0.00    +0.000 HD
ENDBRANCH  23  24
ENDBRANCH  22  23
ENDBRANCH  20  22
ENDBRANCH  14  21
ENDBRANCH  13  17
ENDBRANCH   1  13
BRANCH   5  26
ATOM     26  C   UNL     1       1.785  12.833  20.183  0.00  0.00    +0.000 C 
BRANCH  26  27
ATOM     27  C   UNL     1       1.288  13.158  18.772  0.00  0.00    +0.000 C 
BRANCH  27  28
ATOM     28  O   UNL     1       1.100  14.562  18.630  0.00  0.00    +0.000 OA
ATOM     29  H   UNL     1       0.853  14.917  19.502  0.00  0.00    +0.000 HD
ENDBRANCH  27  28
ENDBRANCH  26  27
ENDBRANCH   5  26
TORSDOF 10
ENDMDL
MODEL 6
REMARK VINA RESULT:      -6.8      2.545      3.728
REMARK  Name = 
REMARK  10 active torsions:
REMARK  status: ('A' for Active; 'I' for Inactive)
REMARK    1  A    between atoms: O_1  and  C_2
REMARK    2  A    between atoms: C_2  and  C_3
REMARK    3  A    between atoms: C_3  and  C_4
REMARK    4  A    between atoms: C_5  and  C_6
REMARK    5  A    between atoms: C_9  and  C_10
REMARK    6  A    between atoms: C_10  and  N_11
REMARK    7  A    between atoms: N_14  and  C_15
REMARK    8  A    between atoms: C_21  and  C_22
REMARK    9  A    between atoms: C_22  and  C_23
REMARK   10  A    between atoms: C_23  and  O_24
REMARK                            x       y       z     vdW  Elec       q    Type
REMARK                         _______ _______ _______ _____ _____    ______ ____
ROOT
ATOM      1  N   UNL     1       7.195   5.872  18.066  0.00  0.00    +0.000 NA
ATOM      2  C   UNL     1       6.096   5.956  19.046  0.00  0.00    +0.000 C 
ATOM      3  C   UNL     1       4.651   5.575  18.600  0.00  0.00    +0.000 C 
ATOM      4  N   UNL     1       4.471   4.521  17.590  0.00  0.00    +0.000 NA
ATOM      5  C   UNL     1       5.533   4.642  16.561  0.00  0.00    +0.000 C 
ATOM      6  C   UNL     1       6.962   4.692  17.187  0.00  0.00    +0.000 C 
ENDROOT
BRANCH   4   7
ATOM      7  C   UNL     1       4.059   3.171  18.036  0.00  0.00    +0.000 C 
ATOM      8  C   UNL     1       4.142   2.801  19.528  0.00  0.00    +0.000 C 
ATOM      9  C   UNL     1       2.970   3.248  20.397  0.00  0.00    +0.000 C 
ATOM     10  C   UNL     1       1.591   2.998  19.795  0.00  0.00    +0.000 C 
ATOM     11  C   UNL     1       1.471   3.269  18.300  0.00  0.00    +0.000 C 
ATOM     12  C   UNL     1       2.664   2.758  17.501  0.00  0.00    +0.000 C 
ENDBRANCH   4   7
BRANCH   1  13
ATOM     13  C   UNL     1       7.352   7.095  17.257  0.00  0.00    +0.000 C 
BRANCH  13  17
ATOM     14  C   UNL     1       9.069  10.801  18.787  0.00  0.00    +0.000 A 
ATOM     15  C   UNL     1       9.373   9.595  19.427  0.00  0.00    +0.000 A 
ATOM     16  C   UNL     1       8.807   8.380  18.986  0.00  0.00    +0.000 A 
ATOM     17  C   UNL     1       7.911   8.356  17.908  0.00  0.00    +0.000 A 
ATOM     18  C   UNL     1       7.603   9.583  17.288  0.00  0.00    +0.000 A 
ATOM     19  C   UNL     1       8.172  10.785  17.716  0.00  0.00    +0.000 A 
BRANCH  14  21
ATOM     20  C   UNL     1      10.034  13.152  19.497  0.00  0.00    +0.000 C 
ATOM     21  C   UNL     1       9.653  12.052  19.177  0.00  0.00    +0.000 C 
BRANCH  20  22
ATOM     22  C   UNL     1      10.392  14.514  19.930  0.00  0.00    +0.000 C 
BRANCH  22  23
ATOM     23  C   UNL     1      10.580  15.482  18.766  0.00  0.00    +0.000 C 
BRANCH  23  24
ATOM     24  O   UNL     1      11.278  14.824  17.711  0.00  0.00    +0.000 OA
ATOM     25  H   UNL     1      11.732  14.056  18.100  0.00  0.00    +0.000 HD
ENDBRANCH  23  24
ENDBRANCH  22  23
ENDBRANCH  20  22
ENDBRANCH  14  21
ENDBRANCH  13  17
ENDBRANCH   1  13
BRANCH   5  26
ATOM     26  C   UNL     1       5.454   3.715  15.325  0.00  0.00    +0.000 C 
BRANCH  26  27
ATOM     27  C   UNL     1       6.369   4.201  14.198  0.00  0.00    +0.000 C 
BRANCH  27  28
ATOM     28  O   UNL     1       6.380   3.256  13.133  0.00  0.00    +0.000 OA
ATOM     29  H   UNL     1       5.537   3.342  12.654  0.00  0.00    +0.000 HD
ENDBRANCH  27  28
ENDBRANCH  26  27
ENDBRANCH   5  26
TORSDOF 10
ENDMDL
MODEL 7
REMARK VINA RESULT:      -6.8      6.845     10.107
REMARK  Name = 
REMARK  10 active torsions:
REMARK  status: ('A' for Active; 'I' for Inactive)
REMARK    1  A    between atoms: O_1  and  C_2
REMARK    2  A    between atoms: C_2  and  C_3
REMARK    3  A    between atoms: C_3  and  C_4
REMARK    4  A    between atoms: C_5  and  C_6
REMARK    5  A    between atoms: C_9  and  C_10
REMARK    6  A    between atoms: C_10  and  N_11
REMARK    7  A    between atoms: N_14  and  C_15
REMARK    8  A    between atoms: C_21  and  C_22
REMARK    9  A    between atoms: C_22  and  C_23
REMARK   10  A    between atoms: C_23  and  O_24
REMARK                            x       y       z     vdW  Elec       q    Type
REMARK                         _______ _______ _______ _____ _____    ______ ____
ROOT
ATOM      1  N   UNL     1       1.071  11.898  20.395  0.00  0.00    +0.000 NA
ATOM      2  C   UNL     1       1.498  12.713  19.242  0.00  0.00    +0.000 C 
ATOM      3  C   UNL     1       0.501  13.746  18.634  0.00  0.00    +0.000 C 
ATOM      4  N   UNL     1      -0.457  14.424  19.522  0.00  0.00    +0.000 NA
ATOM      5  C   UNL     1      -0.949  13.459  20.536  0.00  0.00    +0.000 C 
ATOM      6  C   UNL     1       0.215  12.736  21.282  0.00  0.00    +0.000 C 
ENDROOT
BRANCH   4   7
ATOM      7  C   UNL     1      -0.178  15.817  19.937  0.00  0.00    +0.000 C 
ATOM      8  C   UNL     1       1.270  16.338  19.942  0.00  0.00    +0.000 C 
ATOM      9  C   UNL     1       1.816  16.819  18.601  0.00  0.00    +0.000 C 
ATOM     10  C   UNL     1       0.866  17.704  17.800  0.00  0.00    +0.000 C 
ATOM     11  C   UNL     1      -0.599  17.282  17.827  0.00  0.00    +0.000 C 
ATOM     12  C   UNL     1      -1.074  16.852  19.209  0.00  0.00    +0.000 C 
ENDBRANCH   4   7
BRANCH   1  13
ATOM     13  C   UNL     1       0.361  10.664  20.009  0.00  0.00    +0.000 C 
BRANCH  13  17
ATOM     14  C   UNL     1       2.433   7.010  18.837  0.00  0.00    +0.000 A 
ATOM     15  C   UNL     1       2.045   7.173  20.171  0.00  0.00    +0.000 A 
ATOM     16  C   UNL     1       1.407   8.358  20.597  0.00  0.00    +0.000 A 
ATOM     17  C   UNL     1       1.165   9.406  19.698  0.00  0.00    +0.000 A 
ATOM     18  C   UNL     1       1.580   9.229  18.363  0.00  0.00    +0.000 A 
ATOM     19  C   UNL     1       2.200   8.053  17.937  0.00  0.00    +0.000 A 
BRANCH  14  21
ATOM     20  C   UNL     1       3.476   4.734  17.998  0.00  0.00    +0.000 C 
ATOM     21  C   UNL     1       3.048   5.807  18.352  0.00  0.00    +0.000 C 
BRANCH  20  22
ATOM     22  C   UNL     1       3.888   3.386  17.572  0.00  0.00    +0.000 C 
BRANCH  22  23
ATOM     23  C   UNL     1       3.711   2.334  18.662  0.00  0.00    +0.000 C 
BRANCH  23  24
ATOM     24  O   UNL     1       3.784   1.033  18.081  0.00  0.00    +0.000 OA
ATOM     25  H   UNL     1       3.236   0.443  18.626  0.00  0.00    +0.000 HD
ENDBRANCH  23  24
ENDBRANCH  22  23
ENDBRANCH  20  22
ENDBRANCH  14  21
ENDBRANCH  13  17
ENDBRANCH   1  13
BRANCH   5  26
ATOM     26  C   UNL     1      -2.073  13.924  21.493  0.00  0.00    +0.000 C 
BRANCH  26  27
ATOM     27  C   UNL     1      -3.451  13.819  20.835  0.00  0.00    +0.000 C 
BRANCH  27  28
ATOM     28  O   UNL     1      -3.372  13.024  19.657  0.00  0.00    +0.000 OA
ATOM     29  H   UNL     1      -2.651  13.379  19.109  0.00  0.00    +0.000 HD
ENDBRANCH  27  28
ENDBRANCH  26  27
ENDBRANCH   5  26
TORSDOF 10
ENDMDL
MODEL 8
REMARK VINA RESULT:      -6.8      7.051     10.100
REMARK  Name = 
REMARK  10 active torsions:
REMARK  status: ('A' for Active; 'I' for Inactive)
REMARK    1  A    between atoms: O_1  and  C_2
REMARK    2  A    between atoms: C_2  and  C_3
REMARK    3  A    between atoms: C_3  and  C_4
REMARK    4  A    between atoms: C_5  and  C_6
REMARK    5  A    between atoms: C_9  and  C_10
REMARK    6  A    between atoms: C_10  and  N_11
REMARK    7  A    between atoms: N_14  and  C_15
REMARK    8  A    between atoms: C_21  and  C_22
REMARK    9  A    between atoms: C_22  and  C_23
REMARK   10  A    between atoms: C_23  and  O_24
REMARK                            x       y       z     vdW  Elec       q    Type
REMARK                         _______ _______ _______ _____ _____    ______ ____
ROOT
ATOM      1  N   UNL     1       1.282  12.184  19.567  0.00  0.00    +0.000 NA
ATOM      2  C   UNL     1       0.819  13.022  18.444  0.00  0.00    +0.000 C 
ATOM      3  C   UNL     1      -0.364  14.011  18.674  0.00  0.00    +0.000 C 
ATOM      4  N   UNL     1      -0.524  14.640  19.994  0.00  0.00    +0.000 NA
ATOM      5  C   UNL     1      -0.198  13.650  21.050  0.00  0.00    +0.000 C 
ATOM      6  C   UNL     1       1.193  12.978  20.824  0.00  0.00    +0.000 C 
ENDROOT
BRANCH   4   7
ATOM      7  C   UNL     1      -0.086  16.043  20.170  0.00  0.00    +0.000 C 
ATOM      8  C   UNL     1       0.685  16.751  19.042  0.00  0.00    +0.000 C 
ATOM      9  C   UNL     1      -0.160  17.345  17.919  0.00  0.00    +0.000 C 
ATOM     10  C   UNL     1      -1.388  18.123  18.383  0.00  0.00    +0.000 C 
ATOM     11  C   UNL     1      -2.146  17.511  19.555  0.00  0.00    +0.000 C 
ATOM     12  C   UNL     1      -1.230  16.975  20.648  0.00  0.00    +0.000 C 
ENDBRANCH   4   7
BRANCH   1  13
ATOM     13  C   UNL     1       0.533  10.920  19.700  0.00  0.00    +0.000 C 
BRANCH  13  17
ATOM     14  C   UNL     1       2.592   7.225  18.641  0.00  0.00    +0.000 A 
ATOM     15  C   UNL     1       2.406   8.205  17.660  0.00  0.00    +0.000 A 
ATOM     16  C   UNL     1       1.711   9.398  17.954  0.00  0.00    +0.000 A 
ATOM     17  C   UNL     1       1.173   9.619  19.229  0.00  0.00    +0.000 A 
ATOM     18  C   UNL     1       1.355   8.612  20.198  0.00  0.00    +0.000 A 
ATOM     19  C   UNL     1       2.053   7.436  19.912  0.00  0.00    +0.000 A 
BRANCH  14  21
ATOM     20  C   UNL     1       3.876   4.948  18.276  0.00  0.00    +0.000 C 
ATOM     21  C   UNL     1       3.326   6.016  18.397  0.00  0.00    +0.000 C 
BRANCH  20  22
ATOM     22  C   UNL     1       4.448   3.595  18.167  0.00  0.00    +0.000 C 
BRANCH  22  23
ATOM     23  C   UNL     1       3.976   2.654  19.271  0.00  0.00    +0.000 C 
BRANCH  23  24
ATOM     24  O   UNL     1       5.108   2.075  19.917  0.00  0.00    +0.000 OA
ATOM     25  H   UNL     1       5.621   2.803  20.308  0.00  0.00    +0.000 HD
ENDBRANCH  23  24
ENDBRANCH  22  23
ENDBRANCH  20  22
ENDBRANCH  14  21
ENDBRANCH  13  17
ENDBRANCH   1  13
BRANCH   5  26
ATOM     26  C   UNL     1      -0.431  14.060  22.524  0.00  0.00    +0.000 C 
BRANCH  26  27
ATOM     27  C   UNL     1      -1.525  13.212  23.177  0.00  0.00    +0.000 C 
BRANCH  27  28
ATOM     28  O   UNL     1      -1.083  11.866  23.320  0.00  0.00    +0.000 OA
ATOM     29  H   UNL     1      -1.482  11.509  24.132  0.00  0.00    +0.000 HD
ENDBRANCH  27  28
ENDBRANCH  26  27
ENDBRANCH   5  26
TORSDOF 10
ENDMDL
MODEL 9
REMARK VINA RESULT:      -6.8      6.999     10.094
REMARK  Name = 
REMARK  10 active torsions:
REMARK  status: ('A' for Active; 'I' for Inactive)
REMARK    1  A    between atoms: O_1  and  C_2
REMARK    2  A    between atoms: C_2  and  C_3
REMARK    3  A    between atoms: C_3  and  C_4
REMARK    4  A    between atoms: C_5  and  C_6
REMARK    5  A    between atoms: C_9  and  C_10
REMARK    6  A    between atoms: C_10  and  N_11
REMARK    7  A    between atoms: N_14  and  C_15
REMARK    8  A    between atoms: C_21  and  C_22
REMARK    9  A    between atoms: C_22  and  C_23
REMARK   10  A    between atoms: C_23  and  O_24
REMARK                            x       y       z     vdW  Elec       q    Type
REMARK                         _______ _______ _______ _____ _____    ______ ____
ROOT
ATOM      1  N   UNL     1       0.706  12.230  20.441  0.00  0.00    +0.000 NA
ATOM      2  C   UNL     1       1.378  13.046  19.412  0.00  0.00    +0.000 C 
ATOM      3  C   UNL     1       0.542  14.084  18.603  0.00  0.00    +0.000 C 
ATOM      4  N   UNL     1      -0.584  14.763  19.261  0.00  0.00    +0.000 NA
ATOM      5  C   UNL     1      -1.291  13.799  20.140  0.00  0.00    +0.000 C 
ATOM      6  C   UNL     1      -0.321  13.070  21.121  0.00  0.00    +0.000 C 
ENDROOT
BRANCH   4   7
ATOM      7  C   UNL     1      -0.399  16.155  19.730  0.00  0.00    +0.000 C 
ATOM      8  C   UNL     1       1.022  16.713  19.926  0.00  0.00    +0.000 C 
ATOM      9  C   UNL     1       1.718  17.235  18.672  0.00  0.00    +0.000 C 
ATOM     10  C   UNL     1       0.850  18.110  17.773  0.00  0.00    +0.000 C 
ATOM     11  C   UNL     1      -0.594  17.651  17.609  0.00  0.00    +0.000 C 
ATOM     12  C   UNL     1      -1.225  17.181  18.913  0.00  0.00    +0.000 C 
ENDBRANCH   4   7
BRANCH   1  13
ATOM     13  C   UNL     1       0.094  11.000  19.905  0.00  0.00    +0.000 C 
BRANCH  13  17
ATOM     14  C   UNL     1       2.418   7.505  18.720  0.00  0.00    +0.000 A 
ATOM     15  C   UNL     1       1.966   7.605  20.040  0.00  0.00    +0.000 A 
ATOM     16  C   UNL     1       1.244   8.739  20.472  0.00  0.00    +0.000 A 
ATOM     17  C   UNL     1       0.980   9.799  19.594  0.00  0.00    +0.000 A 
ATOM     18  C   UNL     1       1.460   9.687  18.274  0.00  0.00    +0.000 A 
ATOM     19  C   UNL     1       2.163   8.561  17.841  0.00  0.00    +0.000 A 
BRANCH  14  21
ATOM     20  C   UNL     1       3.634   5.386  17.721  0.00  0.00    +0.000 C 
ATOM     21  C   UNL     1       3.120   6.354  18.228  0.00  0.00    +0.000 C 
BRANCH  20  22
ATOM     22  C   UNL     1       4.222   4.244  17.000  0.00  0.00    +0.000 C 
BRANCH  22  23
ATOM     23  C   UNL     1       5.744   4.311  16.913  0.00  0.00    +0.000 C 
BRANCH  23  24
ATOM     24  O   UNL     1       6.310   3.795  18.117  0.00  0.00    +0.000 OA
ATOM     25  H   UNL     1       5.584   3.408  18.635  0.00  0.00    +0.000 HD
ENDBRANCH  23  24
ENDBRANCH  22  23
ENDBRANCH  20  22
ENDBRANCH  14  21
ENDBRANCH  13  17
ENDBRANCH   1  13
BRANCH   5  26
ATOM     26  C   UNL     1      -2.595  14.267  20.828  0.00  0.00    +0.000 C 
BRANCH  26  27
ATOM     27  C   UNL     1      -3.761  13.321  20.528  0.00  0.00    +0.000 C 
BRANCH  27  28
ATOM     28  O   UNL     1      -3.492  12.572  19.347  0.00  0.00    +0.000 OA
ATOM     29  H   UNL     1      -2.555  12.310  19.370  0.00  0.00    +0.000 HD
ENDBRANCH  27  28
ENDBRANCH  26  27
ENDBRANCH   5  26
TORSDOF 10
ENDMDL
