MODEL 1
REMARK VINA RESULT:      -7.1      0.000      0.000
REMARK  Name = 
REMARK  14 active torsions:
REMARK  status: ('A' for Active; 'I' for Inactive)
REMARK    1  A    between atoms: C_1  and  C_2
REMARK    2  A    between atoms: C_2  and  C_3
REMARK    3  A    between atoms: C_3  and  C_4
REMARK    4  A    between atoms: C_4  and  C_5
REMARK    5  A    between atoms: C_5  and  C_6
REMARK    6  A    between atoms: C_6  and  C_7
REMARK    7  A    between atoms: C_7  and  C_8
REMARK    8  A    between atoms: C_8  and  C_9
REMARK    9  A    between atoms: C_8  and  N_10
REMARK   10  A    between atoms: C_11  and  C_13
REMARK   11  A    between atoms: C_15  and  O_16
REMARK   12  A    between atoms: C_21  and  N_22
REMARK   13  A    between atoms: N_22  and  S_23
REMARK   14  A    between atoms: S_23  and  C_24
REMARK                            x       y       z     vdW  Elec       q    Type
REMARK                         _______ _______ _______ _____ _____    ______ ____
ROOT
ATOM      1  C   UNL     1       1.086   9.357  19.325  0.00  0.00    +0.000 A 
ATOM      2  C   UNL     1       1.264   9.361  20.695  0.00  0.00    +0.000 A 
ATOM      3  C   UNL     1       0.419  10.168  21.431  0.00  0.00    +0.000 A 
ATOM      4  C   UNL     1      -0.564  10.953  20.803  0.00  0.00    +0.000 A 
ATOM      5  C   UNL     1      -1.441  11.768  21.547  0.00  0.00    +0.000 A 
ATOM      6  C   UNL     1      -2.408  12.544  20.919  0.00  0.00    +0.000 A 
ATOM      7  C   UNL     1      -2.504  12.523  19.535  0.00  0.00    +0.000 A 
ATOM      8  C   UNL     1      -1.649  11.707  18.786  0.00  0.00    +0.000 A 
ATOM      9  C   UNL     1      -0.660  10.901  19.391  0.00  0.00    +0.000 A 
ATOM     10  N   UNL     1       0.144  10.091  18.659  0.00  0.00    +0.000 NA
ENDROOT
BRANCH   1  12
ATOM     11  N   UNL     1       2.308   7.289  19.108  0.00  0.00    +0.000 N 
ATOM     12  C   UNL     1       1.972   8.477  18.497  0.00  0.00    +0.000 C 
ATOM     13  O   UNL     1       2.343   8.811  17.382  0.00  0.00    +0.000 OA
ATOM     14  H   UNL     1       1.925   7.137  20.036  0.00  0.00    +0.000 HD
BRANCH  11  15
ATOM     15  C   UNL     1       3.143   6.285  18.483  0.00  0.00    +0.000 C 
ATOM     16  C   UNL     1       4.073   5.649  19.511  0.00  0.00    +0.000 C 
BRANCH  15  17
ATOM     17  C   UNL     1       2.273   5.228  17.784  0.00  0.00    +0.000 C 
BRANCH  17  18
ATOM     18  C   UNL     1       3.078   4.070  17.176  0.00  0.00    +0.000 C 
BRANCH  18  19
ATOM     19  C   UNL     1       2.494   2.703  17.529  0.00  0.00    +0.000 C 
BRANCH  19  20
ATOM     20  C   UNL     1       3.420   1.908  18.444  0.00  0.00    +0.000 C 
BRANCH  20  21
ATOM     21  C   UNL     1       3.043   2.143  19.907  0.00  0.00    +0.000 C 
BRANCH  21  23
ATOM     22  C   UNL     1       1.276   3.595  20.945  0.00  0.00    +0.000 C 
ATOM     23  C   UNL     1       1.546   2.388  20.063  0.00  0.00    +0.000 C 
ENDBRANCH  21  23
ENDBRANCH  20  21
ENDBRANCH  19  20
ENDBRANCH  18  19
ENDBRANCH  17  18
ENDBRANCH  15  17
ENDBRANCH  11  15
ENDBRANCH   1  12
BRANCH   3  24
ATOM     24  O   UNL     1       0.540  10.204  22.796  0.00  0.00    +0.000 OA
ATOM     25  H   UNL     1       1.459  10.001  23.047  0.00  0.00    +0.000 HD
ENDBRANCH   3  24
BRANCH   8  26
ATOM     26  N   UNL     1      -1.819  11.748  17.354  0.00  0.00    +0.000 N 
ATOM     27  H   UNL     1      -2.055  12.681  17.011  0.00  0.00    +0.000 HD
BRANCH  26  28
ATOM     28  S   UNL     1      -2.932  10.654  16.691  0.00  0.00    +0.000 S 
ATOM     29  C   UNL     1      -4.442  11.601  16.718  0.00  0.00    +0.000 C 
ATOM     30  O   UNL     1      -2.594  10.362  15.316  0.00  0.00    +0.000 OA
ATOM     31  O   UNL     1      -3.066   9.597  17.673  0.00  0.00    +0.000 OA
ENDBRANCH  26  28
ENDBRANCH   8  26
TORSDOF 11
ENDMDL
MODEL 2
REMARK VINA RESULT:      -6.8      3.333      8.602
REMARK  Name = 
REMARK  14 active torsions:
REMARK  status: ('A' for Active; 'I' for Inactive)
REMARK    1  A    between atoms: C_1  and  C_2
REMARK    2  A    between atoms: C_2  and  C_3
REMARK    3  A    between atoms: C_3  and  C_4
REMARK    4  A    between atoms: C_4  and  C_5
REMARK    5  A    between atoms: C_5  and  C_6
REMARK    6  A    between atoms: C_6  and  C_7
REMARK    7  A    between atoms: C_7  and  C_8
REMARK    8  A    between atoms: C_8  and  C_9
REMARK    9  A    between atoms: C_8  and  N_10
REMARK   10  A    between atoms: C_11  and  C_13
REMARK   11  A    between atoms: C_15  and  O_16
REMARK   12  A    between atoms: C_21  and  N_22
REMARK   13  A    between atoms: N_22  and  S_23
REMARK   14  A    between atoms: S_23  and  C_24
REMARK                            x       y       z     vdW  Elec       q    Type
REMARK                         _______ _______ _______ _____ _____    ______ ____
ROOT
ATOM      1  C   UNL     1       1.965   6.336  19.995  0.00  0.00    +0.000 A 
ATOM      2  C   UNL     1       1.331   5.394  20.781  0.00  0.00    +0.000 A 
ATOM      3  C   UNL     1       1.602   4.068  20.506  0.00  0.00    +0.000 A 
ATOM      4  C   UNL     1       2.474   3.707  19.464  0.00  0.00    +0.000 A 
ATOM      5  C   UNL     1       2.768   2.356  19.186  0.00  0.00    +0.000 A 
ATOM      6  C   UNL     1       3.628   2.006  18.152  0.00  0.00    +0.000 A 
ATOM      7  C   UNL     1       4.200   3.004  17.376  0.00  0.00    +0.000 A 
ATOM      8  C   UNL     1       3.927   4.349  17.651  0.00  0.00    +0.000 A 
ATOM      9  C   UNL     1       3.064   4.740  18.697  0.00  0.00    +0.000 A 
ATOM     10  N   UNL     1       2.830   6.046  18.975  0.00  0.00    +0.000 NA
ENDROOT
BRANCH   1  12
ATOM     11  N   UNL     1       1.547   8.555  19.149  0.00  0.00    +0.000 N 
ATOM     12  C   UNL     1       1.712   7.785  20.279  0.00  0.00    +0.000 C 
ATOM     13  O   UNL     1       1.659   8.213  21.422  0.00  0.00    +0.000 OA
ATOM     14  H   UNL     1       1.610   8.068  18.260  0.00  0.00    +0.000 HD
BRANCH  11  15
ATOM     15  C   UNL     1       1.279   9.978  19.191  0.00  0.00    +0.000 C 
ATOM     16  C   UNL     1       2.009  10.692  18.058  0.00  0.00    +0.000 C 
BRANCH  15  17
ATOM     17  C   UNL     1      -0.235  10.236  19.135  0.00  0.00    +0.000 C 
BRANCH  17  18
ATOM     18  C   UNL     1      -0.606  11.726  19.120  0.00  0.00    +0.000 C 
BRANCH  18  19
ATOM     19  C   UNL     1      -1.635  12.062  18.041  0.00  0.00    +0.000 C 
BRANCH  19  20
ATOM     20  C   UNL     1      -2.976  11.385  18.303  0.00  0.00    +0.000 C 
BRANCH  20  21
ATOM     21  C   UNL     1      -3.329  10.451  17.145  0.00  0.00    +0.000 C 
BRANCH  21  23
ATOM     22  C   UNL     1      -3.179  10.110  14.662  0.00  0.00    +0.000 C 
ATOM     23  C   UNL     1      -2.643  10.884  15.854  0.00  0.00    +0.000 C 
ENDBRANCH  21  23
ENDBRANCH  20  21
ENDBRANCH  19  20
ENDBRANCH  18  19
ENDBRANCH  17  18
ENDBRANCH  15  17
ENDBRANCH  11  15
ENDBRANCH   1  12
BRANCH   3  24
ATOM     24  O   UNL     1       1.011   3.088  21.262  0.00  0.00    +0.000 OA
ATOM     25  H   UNL     1       0.536   2.469  20.678  0.00  0.00    +0.000 HD
ENDBRANCH   3  24
BRANCH   8  26
ATOM     26  N   UNL     1       4.564   5.318  16.792  0.00  0.00    +0.000 N 
ATOM     27  H   UNL     1       4.515   5.063  15.804  0.00  0.00    +0.000 HD
BRANCH  26  28
ATOM     28  S   UNL     1       6.176   5.705  17.150  0.00  0.00    +0.000 S 
ATOM     29  C   UNL     1       7.068   4.627  16.047  0.00  0.00    +0.000 C 
ATOM     30  O   UNL     1       6.457   7.075  16.786  0.00  0.00    +0.000 OA
ATOM     31  O   UNL     1       6.397   5.224  18.499  0.00  0.00    +0.000 OA
ENDBRANCH  26  28
ENDBRANCH   8  26
TORSDOF 11
ENDMDL
MODEL 3
REMARK VINA RESULT:      -6.7      2.722      3.428
REMARK  Name = 
REMARK  14 active torsions:
REMARK  status: ('A' for Active; 'I' for Inactive)
REMARK    1  A    between atoms: C_1  and  C_2
REMARK    2  A    between atoms: C_2  and  C_3
REMARK    3  A    between atoms: C_3  and  C_4
REMARK    4  A    between atoms: C_4  and  C_5
REMARK    5  A    between atoms: C_5  and  C_6
REMARK    6  A    between atoms: C_6  and  C_7
REMARK    7  A    between atoms: C_7  and  C_8
REMARK    8  A    between atoms: C_8  and  C_9
REMARK    9  A    between atoms: C_8  and  N_10
REMARK   10  A    between atoms: C_11  and  C_13
REMARK   11  A    between atoms: C_15  and  O_16
REMARK   12  A    between atoms: C_21  and  N_22
REMARK   13  A    between atoms: N_22  and  S_23
REMARK   14  A    between atoms: S_23  and  C_24
REMARK                            x       y       z     vdW  Elec       q    Type
REMARK                         _______ _______ _______ _____ _____    ______ ____
ROOT
ATOM      1  C   UNL     1       1.069   9.225  20.063  0.00  0.00    +0.000 A 
ATOM      2  C   UNL     1       0.494   8.468  21.065  0.00  0.00    +0.000 A 
ATOM      3  C   UNL     1      -0.228   9.150  22.024  0.00  0.00    +0.000 A 
ATOM      4  C   UNL     1      -0.355  10.550  21.979  0.00  0.00    +0.000 A 
ATOM      5  C   UNL     1      -1.104  11.253  22.945  0.00  0.00    +0.000 A 
ATOM      6  C   UNL     1      -1.221  12.636  22.896  0.00  0.00    +0.000 A 
ATOM      7  C   UNL     1      -0.583  13.338  21.884  0.00  0.00    +0.000 A 
ATOM      8  C   UNL     1       0.152  12.651  20.910  0.00  0.00    +0.000 A 
ATOM      9  C   UNL     1       0.286  11.245  20.926  0.00  0.00    +0.000 A 
ATOM     10  N   UNL     1       0.974  10.586  19.962  0.00  0.00    +0.000 NA
ENDROOT
BRANCH   1  12
ATOM     11  N   UNL     1       2.385   7.317  19.398  0.00  0.00    +0.000 N 
ATOM     12  C   UNL     1       1.843   8.517  18.994  0.00  0.00    +0.000 C 
ATOM     13  O   UNL     1       1.961   8.986  17.872  0.00  0.00    +0.000 OA
ATOM     14  H   UNL     1       2.204   7.043  20.359  0.00  0.00    +0.000 HD
BRANCH  11  15
ATOM     15  C   UNL     1       3.160   6.462  18.523  0.00  0.00    +0.000 C 
ATOM     16  C   UNL     1       4.288   5.789  19.297  0.00  0.00    +0.000 C 
BRANCH  15  17
ATOM     17  C   UNL     1       2.247   5.426  17.847  0.00  0.00    +0.000 C 
BRANCH  17  18
ATOM     18  C   UNL     1       3.004   4.222  17.267  0.00  0.00    +0.000 C 
BRANCH  18  19
ATOM     19  C   UNL     1       2.341   2.891  17.617  0.00  0.00    +0.000 C 
BRANCH  19  20
ATOM     20  C   UNL     1       1.281   3.050  18.702  0.00  0.00    +0.000 C 
BRANCH  20  21
ATOM     21  C   UNL     1       1.519   2.037  19.823  0.00  0.00    +0.000 C 
BRANCH  21  23
ATOM     22  C   UNL     1       1.623   4.187  21.116  0.00  0.00    +0.000 C 
ATOM     23  C   UNL     1       1.390   2.688  21.196  0.00  0.00    +0.000 C 
ENDBRANCH  21  23
ENDBRANCH  20  21
ENDBRANCH  19  20
ENDBRANCH  18  19
ENDBRANCH  17  18
ENDBRANCH  15  17
ENDBRANCH  11  15
ENDBRANCH   1  12
BRANCH   3  24
ATOM     24  O   UNL     1      -0.834   8.451  23.037  0.00  0.00    +0.000 OA
ATOM     25  H   UNL     1      -1.764   8.729  23.113  0.00  0.00    +0.000 HD
ENDBRANCH   3  24
BRANCH   8  26
ATOM     26  N   UNL     1       0.782  13.460  19.896  0.00  0.00    +0.000 N 
ATOM     27  H   UNL     1       0.765  13.022  18.973  0.00  0.00    +0.000 HD
BRANCH  26  28
ATOM     28  S   UNL     1       2.374  13.957  20.204  0.00  0.00    +0.000 S 
ATOM     29  C   UNL     1       2.189  15.724  20.346  0.00  0.00    +0.000 C 
ATOM     30  O   UNL     1       2.828  13.436  21.473  0.00  0.00    +0.000 OA
ATOM     31  O   UNL     1       3.103  13.696  18.979  0.00  0.00    +0.000 OA
ENDBRANCH  26  28
ENDBRANCH   8  26
TORSDOF 11
ENDMDL
MODEL 4
REMARK VINA RESULT:      -6.7      1.011      1.249
REMARK  Name = 
REMARK  14 active torsions:
REMARK  status: ('A' for Active; 'I' for Inactive)
REMARK    1  A    between atoms: C_1  and  C_2
REMARK    2  A    between atoms: C_2  and  C_3
REMARK    3  A    between atoms: C_3  and  C_4
REMARK    4  A    between atoms: C_4  and  C_5
REMARK    5  A    between atoms: C_5  and  C_6
REMARK    6  A    between atoms: C_6  and  C_7
REMARK    7  A    between atoms: C_7  and  C_8
REMARK    8  A    between atoms: C_8  and  C_9
REMARK    9  A    between atoms: C_8  and  N_10
REMARK   10  A    between atoms: C_11  and  C_13
REMARK   11  A    between atoms: C_15  and  O_16
REMARK   12  A    between atoms: C_21  and  N_22
REMARK   13  A    between atoms: N_22  and  S_23
REMARK   14  A    between atoms: S_23  and  C_24
REMARK                            x       y       z     vdW  Elec       q    Type
REMARK                         _______ _______ _______ _____ _____    ______ ____
ROOT
ATOM      1  C   UNL     1       1.259   9.222  19.266  0.00  0.00    +0.000 A 
ATOM      2  C   UNL     1       1.612   9.006  20.584  0.00  0.00    +0.000 A 
ATOM      3  C   UNL     1       0.869   9.665  21.544  0.00  0.00    +0.000 A 
ATOM      4  C   UNL     1      -0.186  10.522  21.183  0.00  0.00    +0.000 A 
ATOM      5  C   UNL     1      -0.960  11.186  22.156  0.00  0.00    +0.000 A 
ATOM      6  C   UNL     1      -1.998  12.035  21.793  0.00  0.00    +0.000 A 
ATOM      7  C   UNL     1      -2.272  12.237  20.448  0.00  0.00    +0.000 A 
ATOM      8  C   UNL     1      -1.520  11.572  19.472  0.00  0.00    +0.000 A 
ATOM      9  C   UNL     1      -0.463  10.699  19.806  0.00  0.00    +0.000 A 
ATOM     10  N   UNL     1       0.239  10.036  18.855  0.00  0.00    +0.000 NA
ENDROOT
BRANCH   1  12
ATOM     11  N   UNL     1       2.574   7.310  18.609  0.00  0.00    +0.000 N 
ATOM     12  C   UNL     1       2.030   8.507  18.199  0.00  0.00    +0.000 C 
ATOM     13  O   UNL     1       2.146   8.970  17.074  0.00  0.00    +0.000 OA
ATOM     14  H   UNL     1       2.395   7.042  19.572  0.00  0.00    +0.000 HD
BRANCH  11  15
ATOM     15  C   UNL     1       3.346   6.450  17.737  0.00  0.00    +0.000 C 
ATOM     16  C   UNL     1       4.752   7.009  17.543  0.00  0.00    +0.000 C 
BRANCH  15  17
ATOM     17  C   UNL     1       3.383   5.019  18.298  0.00  0.00    +0.000 C 
BRANCH  17  18
ATOM     18  C   UNL     1       3.556   3.938  17.220  0.00  0.00    +0.000 C 
BRANCH  18  19
ATOM     19  C   UNL     1       2.570   2.783  17.388  0.00  0.00    +0.000 C 
BRANCH  19  20
ATOM     20  C   UNL     1       1.488   3.101  18.414  0.00  0.00    +0.000 C 
BRANCH  20  21
ATOM     21  C   UNL     1       1.654   2.212  19.647  0.00  0.00    +0.000 C 
BRANCH  21  23
ATOM     22  C   UNL     1       1.292   4.422  20.782  0.00  0.00    +0.000 C 
ATOM     23  C   UNL     1       1.163   2.914  20.909  0.00  0.00    +0.000 C 
ENDBRANCH  21  23
ENDBRANCH  20  21
ENDBRANCH  19  20
ENDBRANCH  18  19
ENDBRANCH  17  18
ENDBRANCH  15  17
ENDBRANCH  11  15
ENDBRANCH   1  12
BRANCH   3  24
ATOM     24  O   UNL     1       1.164   9.480  22.870  0.00  0.00    +0.000 OA
ATOM     25  H   UNL     1       0.428   9.809  23.416  0.00  0.00    +0.000 HD
ENDBRANCH   3  24
BRANCH   8  26
ATOM     26  N   UNL     1      -1.873  11.843  18.099  0.00  0.00    +0.000 N 
ATOM     27  H   UNL     1      -2.075  12.830  17.931  0.00  0.00    +0.000 HD
BRANCH  26  28
ATOM     28  S   UNL     1      -3.150  10.933  17.451  0.00  0.00    +0.000 S 
ATOM     29  C   UNL     1      -2.771  10.955  15.710  0.00  0.00    +0.000 C 
ATOM     30  O   UNL     1      -3.085   9.569  17.921  0.00  0.00    +0.000 OA
ATOM     31  O   UNL     1      -4.336  11.741  17.646  0.00  0.00    +0.000 OA
ENDBRANCH  26  28
ENDBRANCH   8  26
TORSDOF 11
ENDMDL
MODEL 5
REMARK VINA RESULT:      -6.6      3.354      8.626
REMARK  Name = 
REMARK  14 active torsions:
REMARK  status: ('A' for Active; 'I' for Inactive)
REMARK    1  A    between atoms: C_1  and  C_2
REMARK    2  A    between atoms: C_2  and  C_3
REMARK    3  A    between atoms: C_3  and  C_4
REMARK    4  A    between atoms: C_4  and  C_5
REMARK    5  A    between atoms: C_5  and  C_6
REMARK    6  A    between atoms: C_6  and  C_7
REMARK    7  A    between atoms: C_7  and  C_8
REMARK    8  A    between atoms: C_8  and  C_9
REMARK    9  A    between atoms: C_8  and  N_10
REMARK   10  A    between atoms: C_11  and  C_13
REMARK   11  A    between atoms: C_15  and  O_16
REMARK   12  A    between atoms: C_21  and  N_22
REMARK   13  A    between atoms: N_22  and  S_23
REMARK   14  A    between atoms: S_23  and  C_24
REMARK                            x       y       z     vdW  Elec       q    Type
REMARK                         _______ _______ _______ _____ _____    ______ ____
ROOT
ATOM      1  C   UNL     1       1.970   6.687  19.942  0.00  0.00    +0.000 A 
ATOM      2  C   UNL     1       1.271   5.656  20.538  0.00  0.00    +0.000 A 
ATOM      3  C   UNL     1       1.591   4.373  20.138  0.00  0.00    +0.000 A 
ATOM      4  C   UNL     1       2.575   4.142  19.161  0.00  0.00    +0.000 A 
ATOM      5  C   UNL     1       2.919   2.836  18.758  0.00  0.00    +0.000 A 
ATOM      6  C   UNL     1       3.890   2.615  17.788  0.00  0.00    +0.000 A 
ATOM      7  C   UNL     1       4.524   3.700  17.202  0.00  0.00    +0.000 A 
ATOM      8  C   UNL     1       4.202   5.001  17.604  0.00  0.00    +0.000 A 
ATOM      9  C   UNL     1       3.226   5.261  18.590  0.00  0.00    +0.000 A 
ATOM     10  N   UNL     1       2.943   6.524  18.994  0.00  0.00    +0.000 NA
ENDROOT
BRANCH   1  12
ATOM     11  N   UNL     1       1.367   8.938  19.323  0.00  0.00    +0.000 N 
ATOM     12  C   UNL     1       1.664   8.091  20.367  0.00  0.00    +0.000 C 
ATOM     13  O   UNL     1       1.683   8.422  21.543  0.00  0.00    +0.000 OA
ATOM     14  H   UNL     1       1.382   8.529  18.393  0.00  0.00    +0.000 HD
BRANCH  11  15
ATOM     15  C   UNL     1       1.028  10.334  19.507  0.00  0.00    +0.000 C 
ATOM     16  C   UNL     1       1.737  11.196  18.468  0.00  0.00    +0.000 C 
BRANCH  15  17
ATOM     17  C   UNL     1      -0.496  10.524  19.448  0.00  0.00    +0.000 C 
BRANCH  17  18
ATOM     18  C   UNL     1      -1.102  10.227  18.068  0.00  0.00    +0.000 C 
BRANCH  18  19
ATOM     19  C   UNL     1      -2.017  11.348  17.577  0.00  0.00    +0.000 C 
BRANCH  19  20
ATOM     20  C   UNL     1      -2.581  11.056  16.190  0.00  0.00    +0.000 C 
BRANCH  20  21
ATOM     21  C   UNL     1      -4.058  10.671  16.293  0.00  0.00    +0.000 C 
BRANCH  21  23
ATOM     22  C   UNL     1      -5.845  11.226  17.967  0.00  0.00    +0.000 C 
ATOM     23  C   UNL     1      -4.878  11.783  16.937  0.00  0.00    +0.000 C 
ENDBRANCH  21  23
ENDBRANCH  20  21
ENDBRANCH  19  20
ENDBRANCH  18  19
ENDBRANCH  17  18
ENDBRANCH  15  17
ENDBRANCH  11  15
ENDBRANCH   1  12
BRANCH   3  24
ATOM     24  O   UNL     1       0.939   3.308  20.704  0.00  0.00    +0.000 OA
ATOM     25  H   UNL     1       0.200   3.036  20.129  0.00  0.00    +0.000 HD
ENDBRANCH   3  24
BRANCH   8  26
ATOM     26  N   UNL     1       4.911   6.069  16.940  0.00  0.00    +0.000 N 
ATOM     27  H   UNL     1       4.721   6.105  15.937  0.00  0.00    +0.000 HD
BRANCH  26  28
ATOM     28  S   UNL     1       6.593   6.108  17.151  0.00  0.00    +0.000 S 
ATOM     29  C   UNL     1       6.760   5.672  18.871  0.00  0.00    +0.000 C 
ATOM     30  O   UNL     1       7.225   5.085  16.351  0.00  0.00    +0.000 OA
ATOM     31  O   UNL     1       6.965   7.503  17.020  0.00  0.00    +0.000 OA
ENDBRANCH  26  28
ENDBRANCH   8  26
TORSDOF 11
ENDMDL
MODEL 6
REMARK VINA RESULT:      -6.6      1.642      2.560
REMARK  Name = 
REMARK  14 active torsions:
REMARK  status: ('A' for Active; 'I' for Inactive)
REMARK    1  A    between atoms: C_1  and  C_2
REMARK    2  A    between atoms: C_2  and  C_3
REMARK    3  A    between atoms: C_3  and  C_4
REMARK    4  A    between atoms: C_4  and  C_5
REMARK    5  A    between atoms: C_5  and  C_6
REMARK    6  A    between atoms: C_6  and  C_7
REMARK    7  A    between atoms: C_7  and  C_8
REMARK    8  A    between atoms: C_8  and  C_9
REMARK    9  A    between atoms: C_8  and  N_10
REMARK   10  A    between atoms: C_11  and  C_13
REMARK   11  A    between atoms: C_15  and  O_16
REMARK   12  A    between atoms: C_21  and  N_22
REMARK   13  A    between atoms: N_22  and  S_23
REMARK   14  A    between atoms: S_23  and  C_24
REMARK                            x       y       z     vdW  Elec       q    Type
REMARK                         _______ _______ _______ _____ _____    ______ ____
ROOT
ATOM      1  C   UNL     1       1.022   8.987  20.398  0.00  0.00    +0.000 A 
ATOM      2  C   UNL     1       1.130   8.937  21.774  0.00  0.00    +0.000 A 
ATOM      3  C   UNL     1       0.302   9.775  22.494  0.00  0.00    +0.000 A 
ATOM      4  C   UNL     1      -0.595  10.642  21.845  0.00  0.00    +0.000 A 
ATOM      5  C   UNL     1      -1.455  11.490  22.572  0.00  0.00    +0.000 A 
ATOM      6  C   UNL     1      -2.335  12.348  21.924  0.00  0.00    +0.000 A 
ATOM      7  C   UNL     1      -2.362  12.376  20.538  0.00  0.00    +0.000 A 
ATOM      8  C   UNL     1      -1.523  11.528  19.804  0.00  0.00    +0.000 A 
ATOM      9  C   UNL     1      -0.622  10.640  20.430  0.00  0.00    +0.000 A 
ATOM     10  N   UNL     1       0.165   9.802  19.712  0.00  0.00    +0.000 NA
ENDROOT
BRANCH   1  12
ATOM     11  N   UNL     1       2.140   6.861  20.184  0.00  0.00    +0.000 N 
ATOM     12  C   UNL     1       1.891   8.076  19.585  0.00  0.00    +0.000 C 
ATOM     13  O   UNL     1       2.321   8.409  18.492  0.00  0.00    +0.000 OA
ATOM     14  H   UNL     1       1.714   6.712  21.094  0.00  0.00    +0.000 HD
BRANCH  11  15
ATOM     15  C   UNL     1       2.944   5.824  19.570  0.00  0.00    +0.000 C 
ATOM     16  C   UNL     1       2.959   4.574  20.443  0.00  0.00    +0.000 C 
BRANCH  15  17
ATOM     17  C   UNL     1       2.425   5.516  18.156  0.00  0.00    +0.000 C 
BRANCH  17  18
ATOM     18  C   UNL     1       2.329   4.014  17.849  0.00  0.00    +0.000 C 
BRANCH  18  19
ATOM     19  C   UNL     1       3.518   3.506  17.035  0.00  0.00    +0.000 C 
BRANCH  19  20
ATOM     20  C   UNL     1       4.469   4.634  16.651  0.00  0.00    +0.000 C 
BRANCH  20  21
ATOM     21  C   UNL     1       5.545   4.114  15.697  0.00  0.00    +0.000 C 
BRANCH  21  23
ATOM     22  C   UNL     1       7.205   4.572  17.524  0.00  0.00    +0.000 C 
ATOM     23  C   UNL     1       6.915   4.689  16.037  0.00  0.00    +0.000 C 
ENDBRANCH  21  23
ENDBRANCH  20  21
ENDBRANCH  19  20
ENDBRANCH  18  19
ENDBRANCH  17  18
ENDBRANCH  15  17
ENDBRANCH  11  15
ENDBRANCH   1  12
BRANCH   3  24
ATOM     24  O   UNL     1       0.353   9.761  23.865  0.00  0.00    +0.000 OA
ATOM     25  H   UNL     1      -0.185   9.023  24.203  0.00  0.00    +0.000 HD
ENDBRANCH   3  24
BRANCH   8  26
ATOM     26  N   UNL     1      -1.616  11.624  18.368  0.00  0.00    +0.000 N 
ATOM     27  H   UNL     1      -1.582  12.589  18.033  0.00  0.00    +0.000 HD
BRANCH  26  28
ATOM     28  S   UNL     1      -2.951  10.870  17.642  0.00  0.00    +0.000 S 
ATOM     29  C   UNL     1      -2.544  10.986  15.911  0.00  0.00    +0.000 C 
ATOM     30  O   UNL     1      -3.004   9.475  18.012  0.00  0.00    +0.000 OA
ATOM     31  O   UNL     1      -4.072  11.756  17.883  0.00  0.00    +0.000 OA
ENDBRANCH  26  28
ENDBRANCH   8  26
TORSDOF 11
ENDMDL
MODEL 7
REMARK VINA RESULT:      -6.6      3.496      8.764
REMARK  Name = 
REMARK  14 active torsions:
REMARK  status: ('A' for Active; 'I' for Inactive)
REMARK    1  A    between atoms: C_1  and  C_2
REMARK    2  A    between atoms: C_2  and  C_3
REMARK    3  A    between atoms: C_3  and  C_4
REMARK    4  A    between atoms: C_4  and  C_5
REMARK    5  A    between atoms: C_5  and  C_6
REMARK    6  A    between atoms: C_6  and  C_7
REMARK    7  A    between atoms: C_7  and  C_8
REMARK    8  A    between atoms: C_8  and  C_9
REMARK    9  A    between atoms: C_8  and  N_10
REMARK   10  A    between atoms: C_11  and  C_13
REMARK   11  A    between atoms: C_15  and  O_16
REMARK   12  A    between atoms: C_21  and  N_22
REMARK   13  A    between atoms: N_22  and  S_23
REMARK   14  A    between atoms: S_23  and  C_24
REMARK                            x       y       z     vdW  Elec       q    Type
REMARK                         _______ _______ _______ _____ _____    ______ ____
ROOT
ATOM      1  C   UNL     1       2.035   6.191  19.818  0.00  0.00    +0.000 A 
ATOM      2  C   UNL     1       1.232   5.299  20.500  0.00  0.00    +0.000 A 
ATOM      3  C   UNL     1       1.462   3.956  20.277  0.00  0.00    +0.000 A 
ATOM      4  C   UNL     1       2.463   3.530  19.386  0.00  0.00    +0.000 A 
ATOM      5  C   UNL     1       2.716   2.161  19.163  0.00  0.00    +0.000 A 
ATOM      6  C   UNL     1       3.703   1.747  18.277  0.00  0.00    +0.000 A 
ATOM      7  C   UNL     1       4.447   2.699  17.594  0.00  0.00    +0.000 A 
ATOM      8  C   UNL     1       4.215   4.061  17.818  0.00  0.00    +0.000 A 
ATOM      9  C   UNL     1       3.225   4.516  18.715  0.00  0.00    +0.000 A 
ATOM     10  N   UNL     1       3.029   5.837  18.947  0.00  0.00    +0.000 NA
ENDROOT
BRANCH   1  12
ATOM     11  N   UNL     1       1.683   8.392  18.898  0.00  0.00    +0.000 N 
ATOM     12  C   UNL     1       1.827   7.656  20.053  0.00  0.00    +0.000 C 
ATOM     13  O   UNL     1       1.792   8.125  21.181  0.00  0.00    +0.000 OA
ATOM     14  H   UNL     1       1.728   7.873  18.026  0.00  0.00    +0.000 HD
BRANCH  11  15
ATOM     15  C   UNL     1       1.459   9.823  18.891  0.00  0.00    +0.000 C 
ATOM     16  C   UNL     1       2.491  10.520  18.012  0.00  0.00    +0.000 C 
BRANCH  15  17
ATOM     17  C   UNL     1       0.026  10.135  18.431  0.00  0.00    +0.000 C 
BRANCH  17  18
ATOM     18  C   UNL     1      -0.901  10.591  19.568  0.00  0.00    +0.000 C 
BRANCH  18  19
ATOM     19  C   UNL     1      -2.152  11.301  19.053  0.00  0.00    +0.000 C 
BRANCH  19  20
ATOM     20  C   UNL     1      -2.073  11.581  17.556  0.00  0.00    +0.000 C 
BRANCH  20  21
ATOM     21  C   UNL     1      -2.972  10.609  16.791  0.00  0.00    +0.000 C 
BRANCH  21  23
ATOM     22  C   UNL     1      -3.749   9.944  14.497  0.00  0.00    +0.000 C 
ATOM     23  C   UNL     1      -3.188  11.067  15.353  0.00  0.00    +0.000 C 
ENDBRANCH  21  23
ENDBRANCH  20  21
ENDBRANCH  19  20
ENDBRANCH  18  19
ENDBRANCH  17  18
ENDBRANCH  15  17
ENDBRANCH  11  15
ENDBRANCH   1  12
BRANCH   3  24
ATOM     24  O   UNL     1       0.704   3.022  20.936  0.00  0.00    +0.000 OA
ATOM     25  H   UNL     1       1.254   2.245  21.144  0.00  0.00    +0.000 HD
ENDBRANCH   3  24
BRANCH   8  26
ATOM     26  N   UNL     1       5.034   4.980  17.064  0.00  0.00    +0.000 N 
ATOM     27  H   UNL     1       5.052   4.765  16.066  0.00  0.00    +0.000 HD
BRANCH  26  28
ATOM     28  S   UNL     1       6.637   5.169  17.584  0.00  0.00    +0.000 S 
ATOM     29  C   UNL     1       6.873   6.928  17.424  0.00  0.00    +0.000 C 
ATOM     30  O   UNL     1       6.760   4.811  18.979  0.00  0.00    +0.000 OA
ATOM     31  O   UNL     1       7.449   4.530  16.569  0.00  0.00    +0.000 OA
ENDBRANCH  26  28
ENDBRANCH   8  26
TORSDOF 11
ENDMDL
MODEL 8
REMARK VINA RESULT:      -6.5      1.588      2.659
REMARK  Name = 
REMARK  14 active torsions:
REMARK  status: ('A' for Active; 'I' for Inactive)
REMARK    1  A    between atoms: C_1  and  C_2
REMARK    2  A    between atoms: C_2  and  C_3
REMARK    3  A    between atoms: C_3  and  C_4
REMARK    4  A    between atoms: C_4  and  C_5
REMARK    5  A    between atoms: C_5  and  C_6
REMARK    6  A    between atoms: C_6  and  C_7
REMARK    7  A    between atoms: C_7  and  C_8
REMARK    8  A    between atoms: C_8  and  C_9
REMARK    9  A    between atoms: C_8  and  N_10
REMARK   10  A    between atoms: C_11  and  C_13
REMARK   11  A    between atoms: C_15  and  O_16
REMARK   12  A    between atoms: C_21  and  N_22
REMARK   13  A    between atoms: N_22  and  S_23
REMARK   14  A    between atoms: S_23  and  C_24
REMARK                            x       y       z     vdW  Elec       q    Type
REMARK                         _______ _______ _______ _____ _____    ______ ____
ROOT
ATOM      1  C   UNL     1       1.066   8.791  20.369  0.00  0.00    +0.000 A 
ATOM      2  C   UNL     1       1.085   8.916  21.744  0.00  0.00    +0.000 A 
ATOM      3  C   UNL     1       0.262   9.879  22.293  0.00  0.00    +0.000 A 
ATOM      4  C   UNL     1      -0.544  10.695  21.480  0.00  0.00    +0.000 A 
ATOM      5  C   UNL     1      -1.399  11.670  22.033  0.00  0.00    +0.000 A 
ATOM      6  C   UNL     1      -2.189  12.476  21.222  0.00  0.00    +0.000 A 
ATOM      7  C   UNL     1      -2.128  12.324  19.845  0.00  0.00    +0.000 A 
ATOM      8  C   UNL     1      -1.294  11.350  19.284  0.00  0.00    +0.000 A 
ATOM      9  C   UNL     1      -0.483  10.510  20.078  0.00  0.00    +0.000 A 
ATOM     10  N   UNL     1       0.299   9.549  19.527  0.00  0.00    +0.000 NA
ENDROOT
BRANCH   1  12
ATOM     11  N   UNL     1       1.871   6.518  20.367  0.00  0.00    +0.000 N 
ATOM     12  C   UNL     1       1.931   7.742  19.739  0.00  0.00    +0.000 C 
ATOM     13  O   UNL     1       2.616   7.983  18.756  0.00  0.00    +0.000 OA
ATOM     14  H   UNL     1       1.255   6.456  21.172  0.00  0.00    +0.000 HD
BRANCH  11  15
ATOM     15  C   UNL     1       2.615   5.359  19.919  0.00  0.00    +0.000 C 
ATOM     16  C   UNL     1       2.526   4.237  20.947  0.00  0.00    +0.000 C 
BRANCH  15  17
ATOM     17  C   UNL     1       2.109   4.901  18.542  0.00  0.00    +0.000 C 
BRANCH  17  18
ATOM     18  C   UNL     1       2.432   3.434  18.223  0.00  0.00    +0.000 C 
BRANCH  18  19
ATOM     19  C   UNL     1       3.860   3.247  17.712  0.00  0.00    +0.000 C 
BRANCH  19  20
ATOM     20  C   UNL     1       4.203   4.238  16.604  0.00  0.00    +0.000 C 
BRANCH  20  21
ATOM     21  C   UNL     1       5.534   3.860  15.953  0.00  0.00    +0.000 C 
BRANCH  21  23
ATOM     22  C   UNL     1       6.259   3.921  13.550  0.00  0.00    +0.000 C 
ATOM     23  C   UNL     1       5.837   4.748  14.752  0.00  0.00    +0.000 C 
ENDBRANCH  21  23
ENDBRANCH  20  21
ENDBRANCH  19  20
ENDBRANCH  18  19
ENDBRANCH  17  18
ENDBRANCH  15  17
ENDBRANCH  11  15
ENDBRANCH   1  12
BRANCH   3  24
ATOM     24  O   UNL     1       0.228  10.041  23.655  0.00  0.00    +0.000 OA
ATOM     25  H   UNL     1       1.126   9.936  24.017  0.00  0.00    +0.000 HD
ENDBRANCH   3  24
BRANCH   8  26
ATOM     26  N   UNL     1      -1.293  11.262  17.844  0.00  0.00    +0.000 N 
ATOM     27  H   UNL     1      -1.280  12.178  17.392  0.00  0.00    +0.000 HD
BRANCH  26  28
ATOM     28  S   UNL     1      -2.539  10.353  17.138  0.00  0.00    +0.000 S 
ATOM     29  C   UNL     1      -3.865  11.541  17.062  0.00  0.00    +0.000 C 
ATOM     30  O   UNL     1      -2.182   9.971  15.791  0.00  0.00    +0.000 OA
ATOM     31  O   UNL     1      -2.902   9.362  18.131  0.00  0.00    +0.000 OA
ENDBRANCH  26  28
ENDBRANCH   8  26
TORSDOF 11
ENDMDL
MODEL 9
REMARK VINA RESULT:      -6.5      3.477      8.750
REMARK  Name = 
REMARK  14 active torsions:
REMARK  status: ('A' for Active; 'I' for Inactive)
REMARK    1  A    between atoms: C_1  and  C_2
REMARK    2  A    between atoms: C_2  and  C_3
REMARK    3  A    between atoms: C_3  and  C_4
REMARK    4  A    between atoms: C_4  and  C_5
REMARK    5  A    between atoms: C_5  and  C_6
REMARK    6  A    between atoms: C_6  and  C_7
REMARK    7  A    between atoms: C_7  and  C_8
REMARK    8  A    between atoms: C_8  and  C_9
REMARK    9  A    between atoms: C_8  and  N_10
REMARK   10  A    between atoms: C_11  and  C_13
REMARK   11  A    between atoms: C_15  and  O_16
REMARK   12  A    between atoms: C_21  and  N_22
REMARK   13  A    between atoms: N_22  and  S_23
REMARK   14  A    between atoms: S_23  and  C_24
REMARK                            x       y       z     vdW  Elec       q    Type
REMARK                         _______ _______ _______ _____ _____    ______ ____
ROOT
ATOM      1  C   UNL     1       2.032   6.182  19.801  0.00  0.00    +0.000 A 
ATOM      2  C   UNL     1       1.244   5.306  20.521  0.00  0.00    +0.000 A 
ATOM      3  C   UNL     1       1.456   3.958  20.308  0.00  0.00    +0.000 A 
ATOM      4  C   UNL     1       2.424   3.513  19.390  0.00  0.00    +0.000 A 
ATOM      5  C   UNL     1       2.659   2.139  19.178  0.00  0.00    +0.000 A 
ATOM      6  C   UNL     1       3.614   1.705  18.266  0.00  0.00    +0.000 A 
ATOM      7  C   UNL     1       4.342   2.642  17.546  0.00  0.00    +0.000 A 
ATOM      8  C   UNL     1       4.128   4.009  17.759  0.00  0.00    +0.000 A 
ATOM      9  C   UNL     1       3.171   4.484  18.682  0.00  0.00    +0.000 A 
ATOM     10  N   UNL     1       2.993   5.809  18.903  0.00  0.00    +0.000 NA
ENDROOT
BRANCH   1  12
ATOM     11  N   UNL     1       1.685   8.377  18.862  0.00  0.00    +0.000 N 
ATOM     12  C   UNL     1       1.843   7.652  20.023  0.00  0.00    +0.000 C 
ATOM     13  O   UNL     1       1.832   8.134  21.146  0.00  0.00    +0.000 OA
ATOM     14  H   UNL     1       1.710   7.848  17.995  0.00  0.00    +0.000 HD
BRANCH  11  15
ATOM     15  C   UNL     1       1.476   9.809  18.843  0.00  0.00    +0.000 C 
ATOM     16  C   UNL     1       2.432  10.475  17.859  0.00  0.00    +0.000 C 
BRANCH  15  17
ATOM     17  C   UNL     1       0.011  10.129  18.507  0.00  0.00    +0.000 C 
BRANCH  17  18
ATOM     18  C   UNL     1      -0.903  10.201  19.739  0.00  0.00    +0.000 C 
BRANCH  18  19
ATOM     19  C   UNL     1      -0.534  11.352  20.674  0.00  0.00    +0.000 C 
BRANCH  19  20
ATOM     20  C   UNL     1      -0.357  10.881  22.114  0.00  0.00    +0.000 C 
BRANCH  20  21
ATOM     21  C   UNL     1      -1.364  11.584  23.025  0.00  0.00    +0.000 C 
BRANCH  21  23
ATOM     22  C   UNL     1      -1.370  14.004  23.694  0.00  0.00    +0.000 C 
ATOM     23  C   UNL     1      -1.622  13.015  22.569  0.00  0.00    +0.000 C 
ENDBRANCH  21  23
ENDBRANCH  20  21
ENDBRANCH  19  20
ENDBRANCH  18  19
ENDBRANCH  17  18
ENDBRANCH  15  17
ENDBRANCH  11  15
ENDBRANCH   1  12
BRANCH   3  24
ATOM     24  O   UNL     1       0.713   3.039  21.004  0.00  0.00    +0.000 OA
ATOM     25  H   UNL     1       1.262   2.638  21.701  0.00  0.00    +0.000 HD
ENDBRANCH   3  24
BRANCH   8  26
ATOM     26  N   UNL     1       4.929   4.911  16.967  0.00  0.00    +0.000 N 
ATOM     27  H   UNL     1       4.926   4.673  15.974  0.00  0.00    +0.000 HD
BRANCH  26  28
ATOM     28  S   UNL     1       6.542   5.115  17.448  0.00  0.00    +0.000 S 
ATOM     29  C   UNL     1       6.734   6.884  17.359  0.00  0.00    +0.000 C 
ATOM     30  O   UNL     1       6.714   4.700  18.822  0.00  0.00    +0.000 OA
ATOM     31  O   UNL     1       7.338   4.539  16.383  0.00  0.00    +0.000 OA
ENDBRANCH  26  28
ENDBRANCH   8  26
TORSDOF 11
ENDMDL
