MODEL 1
REMARK VINA RESULT:      -7.3      0.000      0.000
REMARK  Name = 
REMARK  9 active torsions:
REMARK  status: ('A' for Active; 'I' for Inactive)
REMARK    1  A    between atoms: C_1  and  O_2
REMARK    2  A    between atoms: O_2  and  C_3
REMARK    3  A    between atoms: C_5  and  C_6
REMARK    4  A    between atoms: C_6  and  C_7
REMARK    5  A    between atoms: C_7  and  N_8
REMARK    6  A    between atoms: C_9  and  C_11
REMARK    7  A    between atoms: N_13  and  C_14
REMARK    8  A    between atoms: C_18  and  N_19
REMARK    9  A    between atoms: C_23  and  O_24
REMARK                            x       y       z     vdW  Elec       q    Type
REMARK                         _______ _______ _______ _____ _____    ______ ____
ROOT
ATOM      1  N   UNL     1       2.448   6.186  18.031  0.00  0.00    +0.000 N 
ATOM      2  C   UNL     1       2.277   7.189  18.967  0.00  0.00    +0.000 C 
ATOM      3  O   UNL     1       2.354   7.059  20.182  0.00  0.00    +0.000 OA
ATOM      4  H   UNL     1       2.331   6.445  17.054  0.00  0.00    +0.000 HD
ENDROOT
BRANCH   2   5
ATOM      5  C   UNL     1       1.942   8.571  18.365  0.00  0.00    +0.000 C 
ATOM      6  O   UNL     1       2.423   8.847  17.271  0.00  0.00    +0.000 OA
ATOM      7  N   UNL     1       1.082   9.319  19.152  0.00  0.00    +0.000 N 
ATOM      8  H   UNL     1       0.751   8.854  19.996  0.00  0.00    +0.000 HD
BRANCH   7   9
ATOM      9  C   UNL     1       0.571  10.605  18.860  0.00  0.00    +0.000 A 
ATOM     10  C   UNL     1       1.350  11.761  18.941  0.00  0.00    +0.000 A 
ATOM     11  C   UNL     1       0.804  13.009  18.643  0.00  0.00    +0.000 A 
ATOM     12  C   UNL     1      -0.524  13.113  18.238  0.00  0.00    +0.000 A 
ATOM     13  C   UNL     1      -1.311  11.969  18.098  0.00  0.00    +0.000 A 
ATOM     14  C   UNL     1      -0.776  10.728  18.478  0.00  0.00    +0.000 A 
BRANCH  13  15
ATOM     15  N   UNL     1      -2.674  12.100  17.792  0.00  0.00    +0.000 N 
ATOM     16  H   UNL     1      -3.236  12.413  18.580  0.00  0.00    +0.000 HD
ATOM     17  H   UNL     1      -2.858  12.647  16.957  0.00  0.00    +0.000 HD
ENDBRANCH  13  15
ENDBRANCH   7   9
ENDBRANCH   2   5
BRANCH   1  18
ATOM     18  C   UNL     1       2.755   4.824  18.430  0.00  0.00    +0.000 C 
BRANCH  18  19
ATOM     19  C   UNL     1       4.218   4.594  18.828  0.00  0.00    +0.000 C 
BRANCH  19  22
ATOM     20  C   UNL     1       6.917   5.995  16.478  0.00  0.00    +0.000 A 
ATOM     21  C   UNL     1       6.074   5.805  17.589  0.00  0.00    +0.000 A 
ATOM     22  C   UNL     1       5.148   4.750  17.642  0.00  0.00    +0.000 A 
ATOM     23  C   UNL     1       5.071   3.875  16.555  0.00  0.00    +0.000 A 
ATOM     24  C   UNL     1       5.902   4.051  15.443  0.00  0.00    +0.000 A 
ATOM     25  C   UNL     1       6.818   5.107  15.402  0.00  0.00    +0.000 A 
BRANCH  20  27
ATOM     26  C   UNL     1       7.802   7.727  17.877  0.00  0.00    +0.000 C 
ATOM     27  O   UNL     1       7.747   7.076  16.615  0.00  0.00    +0.000 OA
ENDBRANCH  20  27
BRANCH  25  28
ATOM     28  O   UNL     1       7.600   5.241  14.288  0.00  0.00    +0.000 OA
ATOM     29  H   UNL     1       8.422   4.740  14.412  0.00  0.00    +0.000 HD
ENDBRANCH  25  28
ENDBRANCH  19  22
ENDBRANCH  18  19
ENDBRANCH   1  18
TORSDOF 8
ENDMDL
MODEL 2
REMARK VINA RESULT:      -7.3      4.845      7.561
REMARK  Name = 
REMARK  9 active torsions:
REMARK  status: ('A' for Active; 'I' for Inactive)
REMARK    1  A    between atoms: C_1  and  O_2
REMARK    2  A    between atoms: O_2  and  C_3
REMARK    3  A    between atoms: C_5  and  C_6
REMARK    4  A    between atoms: C_6  and  C_7
REMARK    5  A    between atoms: C_7  and  N_8
REMARK    6  A    between atoms: C_9  and  C_11
REMARK    7  A    between atoms: N_13  and  C_14
REMARK    8  A    between atoms: C_18  and  N_19
REMARK    9  A    between atoms: C_23  and  O_24
REMARK                            x       y       z     vdW  Elec       q    Type
REMARK                         _______ _______ _______ _____ _____    ______ ____
ROOT
ATOM      1  N   UNL     1       7.109   7.044  17.962  0.00  0.00    +0.000 N 
ATOM      2  C   UNL     1       6.007   6.602  17.254  0.00  0.00    +0.000 C 
ATOM      3  O   UNL     1       5.557   7.110  16.235  0.00  0.00    +0.000 OA
ATOM      4  H   UNL     1       7.349   6.528  18.806  0.00  0.00    +0.000 HD
ENDROOT
BRANCH   2   5
ATOM      5  C   UNL     1       5.313   5.364  17.863  0.00  0.00    +0.000 C 
ATOM      6  O   UNL     1       6.014   4.396  18.138  0.00  0.00    +0.000 OA
ATOM      7  N   UNL     1       3.953   5.538  18.059  0.00  0.00    +0.000 N 
ATOM      8  H   UNL     1       3.595   6.461  17.819  0.00  0.00    +0.000 HD
BRANCH   7   9
ATOM      9  C   UNL     1       3.054   4.604  18.622  0.00  0.00    +0.000 A 
ATOM     10  C   UNL     1       2.166   3.853  17.849  0.00  0.00    +0.000 A 
ATOM     11  C   UNL     1       1.295   2.942  18.448  0.00  0.00    +0.000 A 
ATOM     12  C   UNL     1       1.320   2.754  19.827  0.00  0.00    +0.000 A 
ATOM     13  C   UNL     1       2.233   3.452  20.619  0.00  0.00    +0.000 A 
ATOM     14  C   UNL     1       3.047   4.425  20.016  0.00  0.00    +0.000 A 
BRANCH  13  15
ATOM     15  N   UNL     1       2.172   3.331  22.015  0.00  0.00    +0.000 N 
ATOM     16  H   UNL     1       3.043   3.577  22.479  0.00  0.00    +0.000 HD
ATOM     17  H   UNL     1       1.376   3.799  22.435  0.00  0.00    +0.000 HD
ENDBRANCH  13  15
ENDBRANCH   7   9
ENDBRANCH   2   5
BRANCH   1  18
ATOM     18  C   UNL     1       7.869   8.204  17.533  0.00  0.00    +0.000 C 
BRANCH  18  19
ATOM     19  C   UNL     1       8.616   8.926  18.662  0.00  0.00    +0.000 C 
BRANCH  19  22
ATOM     20  C   UNL     1      10.663  12.133  18.119  0.00  0.00    +0.000 A 
ATOM     21  C   UNL     1      10.302  10.811  18.439  0.00  0.00    +0.000 A 
ATOM     22  C   UNL     1       8.990  10.339  18.265  0.00  0.00    +0.000 A 
ATOM     23  C   UNL     1       8.027  11.219  17.760  0.00  0.00    +0.000 A 
ATOM     24  C   UNL     1       8.370  12.536  17.438  0.00  0.00    +0.000 A 
ATOM     25  C   UNL     1       9.680  12.992  17.619  0.00  0.00    +0.000 A 
BRANCH  20  27
ATOM     26  C   UNL     1      12.333  13.013  19.593  0.00  0.00    +0.000 C 
ATOM     27  O   UNL     1      11.985  12.401  18.360  0.00  0.00    +0.000 OA
ENDBRANCH  20  27
BRANCH  25  28
ATOM     28  O   UNL     1       9.960  14.292  17.297  0.00  0.00    +0.000 OA
ATOM     29  H   UNL     1      10.724  14.593  17.815  0.00  0.00    +0.000 HD
ENDBRANCH  25  28
ENDBRANCH  19  22
ENDBRANCH  18  19
ENDBRANCH   1  18
TORSDOF 8
ENDMDL
MODEL 3
REMARK VINA RESULT:      -7.2      5.002      7.692
REMARK  Name = 
REMARK  9 active torsions:
REMARK  status: ('A' for Active; 'I' for Inactive)
REMARK    1  A    between atoms: C_1  and  O_2
REMARK    2  A    between atoms: O_2  and  C_3
REMARK    3  A    between atoms: C_5  and  C_6
REMARK    4  A    between atoms: C_6  and  C_7
REMARK    5  A    between atoms: C_7  and  N_8
REMARK    6  A    between atoms: C_9  and  C_11
REMARK    7  A    between atoms: N_13  and  C_14
REMARK    8  A    between atoms: C_18  and  N_19
REMARK    9  A    between atoms: C_23  and  O_24
REMARK                            x       y       z     vdW  Elec       q    Type
REMARK                         _______ _______ _______ _____ _____    ______ ____
ROOT
ATOM      1  N   UNL     1       6.987   7.283  18.001  0.00  0.00    +0.000 N 
ATOM      2  C   UNL     1       6.908   6.004  18.518  0.00  0.00    +0.000 C 
ATOM      3  O   UNL     1       7.812   5.400  19.082  0.00  0.00    +0.000 OA
ATOM      4  H   UNL     1       6.154   7.644  17.540  0.00  0.00    +0.000 HD
ENDROOT
BRANCH   2   5
ATOM      5  C   UNL     1       5.538   5.320  18.321  0.00  0.00    +0.000 C 
ATOM      6  O   UNL     1       5.245   4.947  17.190  0.00  0.00    +0.000 OA
ATOM      7  N   UNL     1       4.819   5.179  19.497  0.00  0.00    +0.000 N 
ATOM      8  H   UNL     1       5.296   5.503  20.337  0.00  0.00    +0.000 HD
BRANCH   7   9
ATOM      9  C   UNL     1       3.552   4.572  19.645  0.00  0.00    +0.000 A 
ATOM     10  C   UNL     1       2.474   5.217  20.255  0.00  0.00    +0.000 A 
ATOM     11  C   UNL     1       1.240   4.578  20.381  0.00  0.00    +0.000 A 
ATOM     12  C   UNL     1       1.064   3.293  19.875  0.00  0.00    +0.000 A 
ATOM     13  C   UNL     1       2.108   2.644  19.214  0.00  0.00    +0.000 A 
ATOM     14  C   UNL     1       3.367   3.263  19.166  0.00  0.00    +0.000 A 
BRANCH  13  15
ATOM     15  N   UNL     1       1.946   1.312  18.806  0.00  0.00    +0.000 N 
ATOM     16  H   UNL     1       2.402   0.643  19.421  0.00  0.00    +0.000 HD
ATOM     17  H   UNL     1       0.984   1.053  18.615  0.00  0.00    +0.000 HD
ENDBRANCH  13  15
ENDBRANCH   7   9
ENDBRANCH   2   5
BRANCH   1  18
ATOM     18  C   UNL     1       8.210   8.061  18.090  0.00  0.00    +0.000 C 
BRANCH  18  19
ATOM     19  C   UNL     1       8.038   9.551  17.765  0.00  0.00    +0.000 C 
BRANCH  19  22
ATOM     20  C   UNL     1      11.083  11.860  18.170  0.00  0.00    +0.000 A 
ATOM     21  C   UNL     1      10.034  11.111  17.605  0.00  0.00    +0.000 A 
ATOM     22  C   UNL     1       9.130  10.387  18.400  0.00  0.00    +0.000 A 
ATOM     23  C   UNL     1       9.290  10.419  19.788  0.00  0.00    +0.000 A 
ATOM     24  C   UNL     1      10.328  11.157  20.365  0.00  0.00    +0.000 A 
ATOM     25  C   UNL     1      11.223  11.871  19.562  0.00  0.00    +0.000 A 
BRANCH  20  27
ATOM     26  C   UNL     1      11.549  13.841  16.908  0.00  0.00    +0.000 C 
ATOM     27  O   UNL     1      11.855  12.493  17.232  0.00  0.00    +0.000 OA
ENDBRANCH  20  27
BRANCH  25  28
ATOM     28  O   UNL     1      12.227  12.570  20.176  0.00  0.00    +0.000 OA
ATOM     29  H   UNL     1      11.864  13.389  20.550  0.00  0.00    +0.000 HD
ENDBRANCH  25  28
ENDBRANCH  19  22
ENDBRANCH  18  19
ENDBRANCH   1  18
TORSDOF 8
ENDMDL
MODEL 4
REMARK VINA RESULT:      -7.2      3.031      9.205
REMARK  Name = 
REMARK  9 active torsions:
REMARK  status: ('A' for Active; 'I' for Inactive)
REMARK    1  A    between atoms: C_1  and  O_2
REMARK    2  A    between atoms: O_2  and  C_3
REMARK    3  A    between atoms: C_5  and  C_6
REMARK    4  A    between atoms: C_6  and  C_7
REMARK    5  A    between atoms: C_7  and  N_8
REMARK    6  A    between atoms: C_9  and  C_11
REMARK    7  A    between atoms: N_13  and  C_14
REMARK    8  A    between atoms: C_18  and  N_19
REMARK    9  A    between atoms: C_23  and  O_24
REMARK                            x       y       z     vdW  Elec       q    Type
REMARK                         _______ _______ _______ _____ _____    ______ ____
ROOT
ATOM      1  N   UNL     1       1.257   9.365  19.139  0.00  0.00    +0.000 N 
ATOM      2  C   UNL     1       2.033   8.511  18.378  0.00  0.00    +0.000 C 
ATOM      3  O   UNL     1       2.542   8.775  17.296  0.00  0.00    +0.000 OA
ATOM      4  H   UNL     1       0.885   8.992  20.011  0.00  0.00    +0.000 HD
ENDROOT
BRANCH   2   5
ATOM      5  C   UNL     1       2.225   7.106  18.991  0.00  0.00    +0.000 C 
ATOM      6  O   UNL     1       2.180   7.007  20.212  0.00  0.00    +0.000 OA
ATOM      7  N   UNL     1       2.386   6.110  18.042  0.00  0.00    +0.000 N 
ATOM      8  H   UNL     1       2.317   6.419  17.074  0.00  0.00    +0.000 HD
BRANCH   7   9
ATOM      9  C   UNL     1       2.552   4.728  18.288  0.00  0.00    +0.000 A 
ATOM     10  C   UNL     1       1.557   3.789  18.010  0.00  0.00    +0.000 A 
ATOM     11  C   UNL     1       1.764   2.434  18.269  0.00  0.00    +0.000 A 
ATOM     12  C   UNL     1       2.981   2.000  18.789  0.00  0.00    +0.000 A 
ATOM     13  C   UNL     1       4.012   2.909  19.028  0.00  0.00    +0.000 A 
ATOM     14  C   UNL     1       3.764   4.279  18.840  0.00  0.00    +0.000 A 
BRANCH  13  15
ATOM     15  N   UNL     1       5.190   2.472  19.650  0.00  0.00    +0.000 N 
ATOM     16  H   UNL     1       5.781   1.907  19.044  0.00  0.00    +0.000 HD
ATOM     17  H   UNL     1       5.716   3.212  20.105  0.00  0.00    +0.000 HD
ENDBRANCH  13  15
ENDBRANCH   7   9
ENDBRANCH   2   5
BRANCH   1  18
ATOM     18  C   UNL     1       0.968  10.718  18.701  0.00  0.00    +0.000 C 
BRANCH  18  19
ATOM     19  C   UNL     1      -0.136  11.421  19.500  0.00  0.00    +0.000 C 
BRANCH  19  22
ATOM     20  C   UNL     1      -2.870  10.357  17.018  0.00  0.00    +0.000 A 
ATOM     21  C   UNL     1      -1.633  10.485  17.675  0.00  0.00    +0.000 A 
ATOM     22  C   UNL     1      -1.490  11.261  18.837  0.00  0.00    +0.000 A 
ATOM     23  C   UNL     1      -2.615  11.920  19.342  0.00  0.00    +0.000 A 
ATOM     24  C   UNL     1      -3.851  11.804  18.699  0.00  0.00    +0.000 A 
ATOM     25  C   UNL     1      -3.979  11.030  17.541  0.00  0.00    +0.000 A 
BRANCH  20  27
ATOM     26  C   UNL     1      -2.932  10.175  14.630  0.00  0.00    +0.000 C 
ATOM     27  O   UNL     1      -2.806   9.561  15.905  0.00  0.00    +0.000 OA
ENDBRANCH  20  27
BRANCH  25  28
ATOM     28  O   UNL     1      -5.209  10.957  16.946  0.00  0.00    +0.000 OA
ATOM     29  H   UNL     1      -5.619  10.104  17.162  0.00  0.00    +0.000 HD
ENDBRANCH  25  28
ENDBRANCH  19  22
ENDBRANCH  18  19
ENDBRANCH   1  18
TORSDOF 8
ENDMDL
MODEL 5
REMARK VINA RESULT:      -7.2      4.949      7.641
REMARK  Name = 
REMARK  9 active torsions:
REMARK  status: ('A' for Active; 'I' for Inactive)
REMARK    1  A    between atoms: C_1  and  O_2
REMARK    2  A    between atoms: O_2  and  C_3
REMARK    3  A    between atoms: C_5  and  C_6
REMARK    4  A    between atoms: C_6  and  C_7
REMARK    5  A    between atoms: C_7  and  N_8
REMARK    6  A    between atoms: C_9  and  C_11
REMARK    7  A    between atoms: N_13  and  C_14
REMARK    8  A    between atoms: C_18  and  N_19
REMARK    9  A    between atoms: C_23  and  O_24
REMARK                            x       y       z     vdW  Elec       q    Type
REMARK                         _______ _______ _______ _____ _____    ______ ____
ROOT
ATOM      1  N   UNL     1       7.510   6.999  18.367  0.00  0.00    +0.000 N 
ATOM      2  C   UNL     1       6.727   6.300  17.467  0.00  0.00    +0.000 C 
ATOM      3  O   UNL     1       6.708   6.462  16.254  0.00  0.00    +0.000 OA
ATOM      4  H   UNL     1       7.398   6.765  19.351  0.00  0.00    +0.000 HD
ENDROOT
BRANCH   2   5
ATOM      5  C   UNL     1       5.800   5.247  18.113  0.00  0.00    +0.000 C 
ATOM      6  O   UNL     1       6.326   4.277  18.648  0.00  0.00    +0.000 OA
ATOM      7  N   UNL     1       4.456   5.575  18.034  0.00  0.00    +0.000 N 
ATOM      8  H   UNL     1       4.255   6.475  17.602  0.00  0.00    +0.000 HD
BRANCH   7   9
ATOM      9  C   UNL     1       3.373   4.831  18.554  0.00  0.00    +0.000 A 
ATOM     10  C   UNL     1       2.338   4.345  17.752  0.00  0.00    +0.000 A 
ATOM     11  C   UNL     1       1.288   3.616  18.309  0.00  0.00    +0.000 A 
ATOM     12  C   UNL     1       1.272   3.344  19.674  0.00  0.00    +0.000 A 
ATOM     13  C   UNL     1       2.319   3.772  20.492  0.00  0.00    +0.000 A 
ATOM     14  C   UNL     1       3.328   4.574  19.936  0.00  0.00    +0.000 A 
BRANCH  13  15
ATOM     15  N   UNL     1       2.236   3.582  21.879  0.00  0.00    +0.000 N 
ATOM     16  H   UNL     1       3.139   3.434  22.321  0.00  0.00    +0.000 HD
ATOM     17  H   UNL     1       1.692   4.292  22.360  0.00  0.00    +0.000 HD
ENDBRANCH  13  15
ENDBRANCH   7   9
ENDBRANCH   2   5
BRANCH   1  18
ATOM     18  C   UNL     1       8.428   8.034  17.926  0.00  0.00    +0.000 C 
BRANCH  18  19
ATOM     19  C   UNL     1       7.825   9.444  17.898  0.00  0.00    +0.000 C 
BRANCH  19  22
ATOM     20  C   UNL     1      10.083  12.535  18.249  0.00  0.00    +0.000 A 
ATOM     21  C   UNL     1       9.166  11.595  17.743  0.00  0.00    +0.000 A 
ATOM     22  C   UNL     1       8.778  10.467  18.484  0.00  0.00    +0.000 A 
ATOM     23  C   UNL     1       9.327  10.285  19.757  0.00  0.00    +0.000 A 
ATOM     24  C   UNL     1      10.240  11.209  20.274  0.00  0.00    +0.000 A 
ATOM     25  C   UNL     1      10.619  12.327  19.524  0.00  0.00    +0.000 A 
BRANCH  20  27
ATOM     26  C   UNL     1      11.510  13.499  16.583  0.00  0.00    +0.000 C 
ATOM     27  O   UNL     1      10.333  13.562  17.377  0.00  0.00    +0.000 OA
ENDBRANCH  20  27
BRANCH  25  28
ATOM     28  O   UNL     1      11.523  13.196  20.072  0.00  0.00    +0.000 OA
ATOM     29  H   UNL     1      11.074  14.028  20.291  0.00  0.00    +0.000 HD
ENDBRANCH  25  28
ENDBRANCH  19  22
ENDBRANCH  18  19
ENDBRANCH   1  18
TORSDOF 8
ENDMDL
MODEL 6
REMARK VINA RESULT:      -7.2      4.518      7.536
REMARK  Name = 
REMARK  9 active torsions:
REMARK  status: ('A' for Active; 'I' for Inactive)
REMARK    1  A    between atoms: C_1  and  O_2
REMARK    2  A    between atoms: O_2  and  C_3
REMARK    3  A    between atoms: C_5  and  C_6
REMARK    4  A    between atoms: C_6  and  C_7
REMARK    5  A    between atoms: C_7  and  N_8
REMARK    6  A    between atoms: C_9  and  C_11
REMARK    7  A    between atoms: N_13  and  C_14
REMARK    8  A    between atoms: C_18  and  N_19
REMARK    9  A    between atoms: C_23  and  O_24
REMARK                            x       y       z     vdW  Elec       q    Type
REMARK                         _______ _______ _______ _____ _____    ______ ____
ROOT
ATOM      1  N   UNL     1       7.060   7.635  16.965  0.00  0.00    +0.000 N 
ATOM      2  C   UNL     1       7.930   7.843  18.020  0.00  0.00    +0.000 C 
ATOM      3  O   UNL     1       8.356   6.982  18.780  0.00  0.00    +0.000 OA
ATOM      4  H   UNL     1       6.778   8.457  16.435  0.00  0.00    +0.000 HD
ENDROOT
BRANCH   2   5
ATOM      5  C   UNL     1       8.351   9.315  18.218  0.00  0.00    +0.000 C 
ATOM      6  O   UNL     1       7.891  10.148  17.445  0.00  0.00    +0.000 OA
ATOM      7  N   UNL     1       9.188   9.506  19.306  0.00  0.00    +0.000 N 
ATOM      8  H   UNL     1       9.384   8.669  19.854  0.00  0.00    +0.000 HD
BRANCH   7   9
ATOM      9  C   UNL     1       9.716  10.735  19.760  0.00  0.00    +0.000 A 
ATOM     10  C   UNL     1      10.761  11.393  19.107  0.00  0.00    +0.000 A 
ATOM     11  C   UNL     1      11.252  12.605  19.592  0.00  0.00    +0.000 A 
ATOM     12  C   UNL     1      10.687  13.186  20.724  0.00  0.00    +0.000 A 
ATOM     13  C   UNL     1       9.608  12.577  21.367  0.00  0.00    +0.000 A 
ATOM     14  C   UNL     1       9.176  11.318  20.920  0.00  0.00    +0.000 A 
BRANCH  13  15
ATOM     15  N   UNL     1       9.121  13.119  22.565  0.00  0.00    +0.000 N 
ATOM     16  H   UNL     1       9.444  14.068  22.740  0.00  0.00    +0.000 HD
ATOM     17  H   UNL     1       8.115  13.037  22.676  0.00  0.00    +0.000 HD
ENDBRANCH  13  15
ENDBRANCH   7   9
ENDBRANCH   2   5
BRANCH   1  18
ATOM     18  C   UNL     1       6.556   6.311  16.650  0.00  0.00    +0.000 C 
BRANCH  18  19
ATOM     19  C   UNL     1       5.074   6.274  16.255  0.00  0.00    +0.000 C 
BRANCH  19  22
ATOM     20  C   UNL     1       3.340   4.221  19.003  0.00  0.00    +0.000 A 
ATOM     21  C   UNL     1       4.181   4.596  17.938  0.00  0.00    +0.000 A 
ATOM     22  C   UNL     1       4.195   5.906  17.434  0.00  0.00    +0.000 A 
ATOM     23  C   UNL     1       3.345   6.853  18.013  0.00  0.00    +0.000 A 
ATOM     24  C   UNL     1       2.504   6.496  19.072  0.00  0.00    +0.000 A 
ATOM     25  C   UNL     1       2.498   5.186  19.562  0.00  0.00    +0.000 A 
BRANCH  20  27
ATOM     26  C   UNL     1       3.159   1.916  18.374  0.00  0.00    +0.000 C 
ATOM     27  O   UNL     1       3.471   2.901  19.349  0.00  0.00    +0.000 OA
ENDBRANCH  20  27
BRANCH  25  28
ATOM     28  O   UNL     1       1.649   4.886  20.593  0.00  0.00    +0.000 OA
ATOM     29  H   UNL     1       1.935   4.059  21.013  0.00  0.00    +0.000 HD
ENDBRANCH  25  28
ENDBRANCH  19  22
ENDBRANCH  18  19
ENDBRANCH   1  18
TORSDOF 8
ENDMDL
MODEL 7
REMARK VINA RESULT:      -7.1      4.827      7.891
REMARK  Name = 
REMARK  9 active torsions:
REMARK  status: ('A' for Active; 'I' for Inactive)
REMARK    1  A    between atoms: C_1  and  O_2
REMARK    2  A    between atoms: O_2  and  C_3
REMARK    3  A    between atoms: C_5  and  C_6
REMARK    4  A    between atoms: C_6  and  C_7
REMARK    5  A    between atoms: C_7  and  N_8
REMARK    6  A    between atoms: C_9  and  C_11
REMARK    7  A    between atoms: N_13  and  C_14
REMARK    8  A    between atoms: C_18  and  N_19
REMARK    9  A    between atoms: C_23  and  O_24
REMARK                            x       y       z     vdW  Elec       q    Type
REMARK                         _______ _______ _______ _____ _____    ______ ____
ROOT
ATOM      1  N   UNL     1       7.055   7.305  17.971  0.00  0.00    +0.000 N 
ATOM      2  C   UNL     1       6.981   6.547  16.816  0.00  0.00    +0.000 C 
ATOM      3  O   UNL     1       7.855   6.450  15.964  0.00  0.00    +0.000 OA
ATOM      4  H   UNL     1       6.235   7.302  18.574  0.00  0.00    +0.000 HD
ENDROOT
BRANCH   2   5
ATOM      5  C   UNL     1       5.646   5.794  16.633  0.00  0.00    +0.000 C 
ATOM      6  O   UNL     1       5.243   5.620  15.488  0.00  0.00    +0.000 OA
ATOM      7  N   UNL     1       5.087   5.368  17.826  0.00  0.00    +0.000 N 
ATOM      8  H   UNL     1       5.640   5.566  18.659  0.00  0.00    +0.000 HD
BRANCH   7   9
ATOM      9  C   UNL     1       3.890   4.632  17.984  0.00  0.00    +0.000 A 
ATOM     10  C   UNL     1       2.627   5.224  17.914  0.00  0.00    +0.000 A 
ATOM     11  C   UNL     1       1.473   4.458  18.076  0.00  0.00    +0.000 A 
ATOM     12  C   UNL     1       1.568   3.085  18.286  0.00  0.00    +0.000 A 
ATOM     13  C   UNL     1       2.814   2.458  18.309  0.00  0.00    +0.000 A 
ATOM     14  C   UNL     1       3.971   3.249  18.226  0.00  0.00    +0.000 A 
BRANCH  13  15
ATOM     15  N   UNL     1       2.898   1.095  18.627  0.00  0.00    +0.000 N 
ATOM     16  H   UNL     1       2.818   0.907  19.623  0.00  0.00    +0.000 HD
ATOM     17  H   UNL     1       2.277   0.505  18.081  0.00  0.00    +0.000 HD
ENDBRANCH  13  15
ENDBRANCH   7   9
ENDBRANCH   2   5
BRANCH   1  18
ATOM     18  C   UNL     1       8.237   8.086  18.289  0.00  0.00    +0.000 C 
BRANCH  18  19
ATOM     19  C   UNL     1       8.335   9.421  17.539  0.00  0.00    +0.000 C 
BRANCH  19  22
ATOM     20  C   UNL     1       9.990  12.721  18.606  0.00  0.00    +0.000 A 
ATOM     21  C   UNL     1       9.353  11.727  17.841  0.00  0.00    +0.000 A 
ATOM     22  C   UNL     1       8.978  10.493  18.396  0.00  0.00    +0.000 A 
ATOM     23  C   UNL     1       9.252  10.258  19.747  0.00  0.00    +0.000 A 
ATOM     24  C   UNL     1       9.885  11.236  20.521  0.00  0.00    +0.000 A 
ATOM     25  C   UNL     1      10.256  12.460  19.954  0.00  0.00    +0.000 A 
BRANCH  20  27
ATOM     26  C   UNL     1      11.245  13.761  16.851  0.00  0.00    +0.000 C 
ATOM     27  O   UNL     1      10.276  13.851  17.886  0.00  0.00    +0.000 OA
ENDBRANCH  20  27
BRANCH  25  28
ATOM     28  O   UNL     1      10.882  13.378  20.753  0.00  0.00    +0.000 OA
ATOM     29  H   UNL     1      11.497  13.903  20.216  0.00  0.00    +0.000 HD
ENDBRANCH  25  28
ENDBRANCH  19  22
ENDBRANCH  18  19
ENDBRANCH   1  18
TORSDOF 8
ENDMDL
MODEL 8
REMARK VINA RESULT:      -7.1      5.214      7.956
REMARK  Name = 
REMARK  9 active torsions:
REMARK  status: ('A' for Active; 'I' for Inactive)
REMARK    1  A    between atoms: C_1  and  O_2
REMARK    2  A    between atoms: O_2  and  C_3
REMARK    3  A    between atoms: C_5  and  C_6
REMARK    4  A    between atoms: C_6  and  C_7
REMARK    5  A    between atoms: C_7  and  N_8
REMARK    6  A    between atoms: C_9  and  C_11
REMARK    7  A    between atoms: N_13  and  C_14
REMARK    8  A    between atoms: C_18  and  N_19
REMARK    9  A    between atoms: C_23  and  O_24
REMARK                            x       y       z     vdW  Elec       q    Type
REMARK                         _______ _______ _______ _____ _____    ______ ____
ROOT
ATOM      1  N   UNL     1       7.208   7.145  17.856  0.00  0.00    +0.000 N 
ATOM      2  C   UNL     1       7.193   5.888  18.432  0.00  0.00    +0.000 C 
ATOM      3  O   UNL     1       8.041   5.436  19.191  0.00  0.00    +0.000 OA
ATOM      4  H   UNL     1       6.440   7.370  17.227  0.00  0.00    +0.000 HD
ENDROOT
BRANCH   2   5
ATOM      5  C   UNL     1       5.982   5.017  18.030  0.00  0.00    +0.000 C 
ATOM      6  O   UNL     1       5.822   4.781  16.838  0.00  0.00    +0.000 OA
ATOM      7  N   UNL     1       5.242   4.572  19.113  0.00  0.00    +0.000 N 
ATOM      8  H   UNL     1       5.608   4.837  20.027  0.00  0.00    +0.000 HD
BRANCH   7   9
ATOM      9  C   UNL     1       4.101   3.738  19.072  0.00  0.00    +0.000 A 
ATOM     10  C   UNL     1       4.084   2.519  18.392  0.00  0.00    +0.000 A 
ATOM     11  C   UNL     1       2.935   1.728  18.377  0.00  0.00    +0.000 A 
ATOM     12  C   UNL     1       1.795   2.139  19.063  0.00  0.00    +0.000 A 
ATOM     13  C   UNL     1       1.800   3.327  19.794  0.00  0.00    +0.000 A 
ATOM     14  C   UNL     1       2.933   4.154  19.735  0.00  0.00    +0.000 A 
BRANCH  13  15
ATOM     15  N   UNL     1       0.613   3.778  20.390  0.00  0.00    +0.000 N 
ATOM     16  H   UNL     1       0.500   4.788  20.352  0.00  0.00    +0.000 HD
ATOM     17  H   UNL     1      -0.219   3.294  20.069  0.00  0.00    +0.000 HD
ENDBRANCH  13  15
ENDBRANCH   7   9
ENDBRANCH   2   5
BRANCH   1  18
ATOM     18  C   UNL     1       8.282   8.085  18.118  0.00  0.00    +0.000 C 
BRANCH  18  19
ATOM     19  C   UNL     1       7.922   9.551  17.849  0.00  0.00    +0.000 C 
BRANCH  19  22
ATOM     20  C   UNL     1      10.508  12.370  18.221  0.00  0.00    +0.000 A 
ATOM     21  C   UNL     1       9.529  11.510  17.689  0.00  0.00    +0.000 A 
ATOM     22  C   UNL     1       8.939  10.494  18.459  0.00  0.00    +0.000 A 
ATOM     23  C   UNL     1       9.345  10.344  19.788  0.00  0.00    +0.000 A 
ATOM     24  C   UNL     1      10.318  11.190  20.332  0.00  0.00    +0.000 A 
ATOM     25  C   UNL     1      10.899  12.195  19.553  0.00  0.00    +0.000 A 
BRANCH  20  27
ATOM     26  C   UNL     1      12.333  13.256  16.948  0.00  0.00    +0.000 C 
ATOM     27  O   UNL     1      10.961  13.292  17.315  0.00  0.00    +0.000 OA
ENDBRANCH  20  27
BRANCH  25  28
ATOM     28  O   UNL     1      11.852  12.989  20.130  0.00  0.00    +0.000 OA
ATOM     29  H   UNL     1      11.486  13.398  20.931  0.00  0.00    +0.000 HD
ENDBRANCH  25  28
ENDBRANCH  19  22
ENDBRANCH  18  19
ENDBRANCH   1  18
TORSDOF 8
ENDMDL
MODEL 9
REMARK VINA RESULT:      -7.1      4.668      7.503
REMARK  Name = 
REMARK  9 active torsions:
REMARK  status: ('A' for Active; 'I' for Inactive)
REMARK    1  A    between atoms: C_1  and  O_2
REMARK    2  A    between atoms: O_2  and  C_3
REMARK    3  A    between atoms: C_5  and  C_6
REMARK    4  A    between atoms: C_6  and  C_7
REMARK    5  A    between atoms: C_7  and  N_8
REMARK    6  A    between atoms: C_9  and  C_11
REMARK    7  A    between atoms: N_13  and  C_14
REMARK    8  A    between atoms: C_18  and  N_19
REMARK    9  A    between atoms: C_23  and  O_24
REMARK                            x       y       z     vdW  Elec       q    Type
REMARK                         _______ _______ _______ _____ _____    ______ ____
ROOT
ATOM      1  N   UNL     1       6.866   7.684  17.453  0.00  0.00    +0.000 N 
ATOM      2  C   UNL     1       6.716   6.396  17.933  0.00  0.00    +0.000 C 
ATOM      3  O   UNL     1       7.618   5.665  18.321  0.00  0.00    +0.000 OA
ATOM      4  H   UNL     1       6.021   8.161  17.146  0.00  0.00    +0.000 HD
ENDROOT
BRANCH   2   5
ATOM      5  C   UNL     1       5.259   5.884  17.937  0.00  0.00    +0.000 C 
ATOM      6  O   UNL     1       4.616   5.988  16.899  0.00  0.00    +0.000 OA
ATOM      7  N   UNL     1       4.879   5.320  19.144  0.00  0.00    +0.000 N 
ATOM      8  H   UNL     1       5.610   5.278  19.852  0.00  0.00    +0.000 HD
BRANCH   7   9
ATOM      9  C   UNL     1       3.626   4.741  19.449  0.00  0.00    +0.000 A 
ATOM     10  C   UNL     1       2.666   5.390  20.228  0.00  0.00    +0.000 A 
ATOM     11  C   UNL     1       1.443   4.779  20.504  0.00  0.00    +0.000 A 
ATOM     12  C   UNL     1       1.156   3.520  19.983  0.00  0.00    +0.000 A 
ATOM     13  C   UNL     1       2.075   2.871  19.158  0.00  0.00    +0.000 A 
ATOM     14  C   UNL     1       3.335   3.457  18.955  0.00  0.00    +0.000 A 
BRANCH  13  15
ATOM     15  N   UNL     1       1.816   1.561  18.730  0.00  0.00    +0.000 N 
ATOM     16  H   UNL     1       2.541   0.898  18.996  0.00  0.00    +0.000 HD
ATOM     17  H   UNL     1       0.890   1.223  18.972  0.00  0.00    +0.000 HD
ENDBRANCH  13  15
ENDBRANCH   7   9
ENDBRANCH   2   5
BRANCH   1  18
ATOM     18  C   UNL     1       8.172   8.313  17.369  0.00  0.00    +0.000 C 
BRANCH  18  19
ATOM     19  C   UNL     1       8.581   9.096  18.623  0.00  0.00    +0.000 C 
BRANCH  19  22
ATOM     20  C   UNL     1       8.452  12.777  17.527  0.00  0.00    +0.000 A 
ATOM     21  C   UNL     1       8.070  11.473  17.892  0.00  0.00    +0.000 A 
ATOM     22  C   UNL     1       9.013  10.507  18.280  0.00  0.00    +0.000 A 
ATOM     23  C   UNL     1      10.364  10.865  18.299  0.00  0.00    +0.000 A 
ATOM     24  C   UNL     1      10.760  12.157  17.938  0.00  0.00    +0.000 A 
ATOM     25  C   UNL     1       9.810  13.108  17.551  0.00  0.00    +0.000 A 
BRANCH  20  27
ATOM     26  C   UNL     1       6.927  14.526  18.121  0.00  0.00    +0.000 C 
ATOM     27  O   UNL     1       7.389  13.569  17.179  0.00  0.00    +0.000 OA
ENDBRANCH  20  27
BRANCH  25  28
ATOM     28  O   UNL     1      10.251  14.354  17.199  0.00  0.00    +0.000 OA
ATOM     29  H   UNL     1      10.708  14.303  16.343  0.00  0.00    +0.000 HD
ENDBRANCH  25  28
ENDBRANCH  19  22
ENDBRANCH  18  19
ENDBRANCH   1  18
TORSDOF 8
ENDMDL
