MODEL 1
REMARK VINA RESULT:      -7.1      0.000      0.000
REMARK  Name = 
REMARK  11 active torsions:
REMARK  status: ('A' for Active; 'I' for Inactive)
REMARK    1  A    between atoms: C_1  and  C_2
REMARK    2  A    between atoms: C_2  and  C_3
REMARK    3  A    between atoms: C_2  and  C_4
REMARK    4  A    between atoms: C_4  and  C_5
REMARK    5  A    between atoms: C_5  and  C_6
REMARK    6  A    between atoms: C_5  and  N_7
REMARK    7  A    between atoms: C_5  and  C_8
REMARK    8  A    between atoms: C_8  and  O_9
REMARK    9  A    between atoms: O_9  and  C_10
REMARK   10  A    between atoms: C_13  and  C_14
REMARK   11  A    between atoms: C_22  and  C_23
REMARK                            x       y       z     vdW  Elec       q    Type
REMARK                         _______ _______ _______ _____ _____    ______ ____
ROOT
ATOM      1  C   UNL     1       4.953   5.361  18.466  0.00  0.00    +0.000 A 
ATOM      2  N   UNL     1       5.882   4.406  18.256  0.00  0.00    +0.000 NA
ATOM      3  C   UNL     1       6.297   4.216  16.980  0.00  0.00    +0.000 A 
ATOM      4  C   UNL     1       5.828   4.917  15.871  0.00  0.00    +0.000 A 
ATOM      5  C   UNL     1       4.879   5.913  16.149  0.00  0.00    +0.000 A 
ATOM      6  C   UNL     1       4.453   6.171  17.463  0.00  0.00    +0.000 A 
ENDROOT
BRANCH   4   7
ATOM      7  C   UNL     1       6.305   4.641  14.502  0.00  0.00    +0.000 A 
ATOM      8  C   UNL     1       7.383   5.342  13.937  0.00  0.00    +0.000 A 
ATOM      9  C   UNL     1       7.782   5.056  12.639  0.00  0.00    +0.000 A 
ATOM     10  N   UNL     1       7.200   4.122  11.865  0.00  0.00    +0.000 NA
ATOM     11  C   UNL     1       6.175   3.450  12.419  0.00  0.00    +0.000 A 
ATOM     12 CL   UNL     1       5.463   2.264  11.406  0.00  0.00    +0.000 Cl
ATOM     13  C   UNL     1       5.696   3.666  13.700  0.00  0.00    +0.000 A 
ENDBRANCH   4   7
BRANCH   6  14
ATOM     14  C   UNL     1       3.451   7.243  17.748  0.00  0.00    +0.000 C 
ATOM     15  F   UNL     1       3.368   8.153  16.734  0.00  0.00    +0.000 F 
ATOM     16  F   UNL     1       2.190   6.747  17.893  0.00  0.00    +0.000 F 
ENDBRANCH   6  14
BRANCH   1  17
ATOM     17  O   UNL     1       4.474   5.547  19.746  0.00  0.00    +0.000 OA
BRANCH  17  18
ATOM     18  C   UNL     1       3.952   4.343  20.323  0.00  0.00    +0.000 C 
BRANCH  18  19
ATOM     19  C   UNL     1       2.431   4.495  20.639  0.00  0.00    +0.000 C 
ATOM     20  C   UNL     1       2.064   3.544  21.792  0.00  0.00    +0.000 C 
BRANCH  19  21
ATOM     21  N   UNL     1       2.208   5.884  21.083  0.00  0.00    +0.000 NA
ATOM     22  H   UNL     1       2.334   6.524  20.297  0.00  0.00    +0.000 HD
ATOM     23  H   UNL     1       2.929   6.155  21.748  0.00  0.00    +0.000 HD
ENDBRANCH  19  21
BRANCH  19  24
ATOM     24  C   UNL     1       1.605   4.174  19.358  0.00  0.00    +0.000 C 
BRANCH  24  26
ATOM     25  C   UNL     1       0.672   1.914  18.496  0.00  0.00    +0.000 C 
ATOM     26  C   UNL     1       1.872   2.858  18.583  0.00  0.00    +0.000 C 
ATOM     27  C   UNL     1       2.313   3.199  17.152  0.00  0.00    +0.000 C 
ENDBRANCH  24  26
ENDBRANCH  19  24
ENDBRANCH  18  19
ENDBRANCH  17  18
ENDBRANCH   1  17
TORSDOF 8
ENDMDL
MODEL 2
REMARK VINA RESULT:      -6.8      4.821      8.429
REMARK  Name = 
REMARK  11 active torsions:
REMARK  status: ('A' for Active; 'I' for Inactive)
REMARK    1  A    between atoms: C_1  and  C_2
REMARK    2  A    between atoms: C_2  and  C_3
REMARK    3  A    between atoms: C_2  and  C_4
REMARK    4  A    between atoms: C_4  and  C_5
REMARK    5  A    between atoms: C_5  and  C_6
REMARK    6  A    between atoms: C_5  and  N_7
REMARK    7  A    between atoms: C_5  and  C_8
REMARK    8  A    between atoms: C_8  and  O_9
REMARK    9  A    between atoms: O_9  and  C_10
REMARK   10  A    between atoms: C_13  and  C_14
REMARK   11  A    between atoms: C_22  and  C_23
REMARK                            x       y       z     vdW  Elec       q    Type
REMARK                         _______ _______ _______ _____ _____    ______ ____
ROOT
ATOM      1  C   UNL     1       2.819   6.736  18.410  0.00  0.00    +0.000 A 
ATOM      2  N   UNL     1       2.540   7.986  17.984  0.00  0.00    +0.000 NA
ATOM      3  C   UNL     1       1.855   8.791  18.834  0.00  0.00    +0.000 A 
ATOM      4  C   UNL     1       1.405   8.422  20.100  0.00  0.00    +0.000 A 
ATOM      5  C   UNL     1       1.741   7.120  20.500  0.00  0.00    +0.000 A 
ATOM      6  C   UNL     1       2.487   6.268  19.667  0.00  0.00    +0.000 A 
ENDROOT
BRANCH   4   7
ATOM      7  C   UNL     1       0.641   9.342  20.965  0.00  0.00    +0.000 A 
ATOM      8  C   UNL     1       0.355   9.034  22.305  0.00  0.00    +0.000 A 
ATOM      9  C   UNL     1      -0.383   9.926  23.071  0.00  0.00    +0.000 A 
ATOM     10  N   UNL     1      -0.849  11.101  22.611  0.00  0.00    +0.000 NA
ATOM     11  C   UNL     1      -0.560  11.391  21.330  0.00  0.00    +0.000 A 
ATOM     12 CL   UNL     1      -1.164  12.899  20.782  0.00  0.00    +0.000 Cl
ATOM     13  C   UNL     1       0.159  10.566  20.481  0.00  0.00    +0.000 A 
ENDBRANCH   4   7
BRANCH   6  14
ATOM     14  C   UNL     1       2.850   4.887  20.110  0.00  0.00    +0.000 C 
ATOM     15  F   UNL     1       2.520   4.661  21.416  0.00  0.00    +0.000 F 
ATOM     16  F   UNL     1       2.193   3.927  19.401  0.00  0.00    +0.000 F 
ENDBRANCH   6  14
BRANCH   1  17
ATOM     17  O   UNL     1       3.472   5.877  17.552  0.00  0.00    +0.000 OA
BRANCH  17  18
ATOM     18  C   UNL     1       4.559   6.505  16.859  0.00  0.00    +0.000 C 
BRANCH  18  19
ATOM     19  C   UNL     1       5.576   5.440  16.341  0.00  0.00    +0.000 C 
ATOM     20  C   UNL     1       5.180   4.061  16.895  0.00  0.00    +0.000 C 
BRANCH  19  21
ATOM     21  N   UNL     1       5.469   5.408  14.869  0.00  0.00    +0.000 NA
ATOM     22  H   UNL     1       6.390   5.249  14.458  0.00  0.00    +0.000 HD
ATOM     23  H   UNL     1       5.191   6.323  14.522  0.00  0.00    +0.000 HD
ENDBRANCH  19  21
BRANCH  19  24
ATOM     24  C   UNL     1       7.012   5.840  16.792  0.00  0.00    +0.000 C 
BRANCH  24  26
ATOM     25  C   UNL     1       8.022   5.899  19.179  0.00  0.00    +0.000 C 
ATOM     26  C   UNL     1       7.209   6.631  18.110  0.00  0.00    +0.000 C 
ATOM     27  C   UNL     1       7.921   7.957  17.798  0.00  0.00    +0.000 C 
ENDBRANCH  24  26
ENDBRANCH  19  24
ENDBRANCH  18  19
ENDBRANCH  17  18
ENDBRANCH   1  17
TORSDOF 8
ENDMDL
MODEL 3
REMARK VINA RESULT:      -6.7      5.132      7.081
REMARK  Name = 
REMARK  11 active torsions:
REMARK  status: ('A' for Active; 'I' for Inactive)
REMARK    1  A    between atoms: C_1  and  C_2
REMARK    2  A    between atoms: C_2  and  C_3
REMARK    3  A    between atoms: C_2  and  C_4
REMARK    4  A    between atoms: C_4  and  C_5
REMARK    5  A    between atoms: C_5  and  C_6
REMARK    6  A    between atoms: C_5  and  N_7
REMARK    7  A    between atoms: C_5  and  C_8
REMARK    8  A    between atoms: C_8  and  O_9
REMARK    9  A    between atoms: O_9  and  C_10
REMARK   10  A    between atoms: C_13  and  C_14
REMARK   11  A    between atoms: C_22  and  C_23
REMARK                            x       y       z     vdW  Elec       q    Type
REMARK                         _______ _______ _______ _____ _____    ______ ____
ROOT
ATOM      1  C   UNL     1       1.156   9.338  19.661  0.00  0.00    +0.000 A 
ATOM      2  N   UNL     1       1.704   9.096  18.452  0.00  0.00    +0.000 NA
ATOM      3  C   UNL     1       2.329   7.905  18.284  0.00  0.00    +0.000 A 
ATOM      4  C   UNL     1       2.462   6.924  19.264  0.00  0.00    +0.000 A 
ATOM      5  C   UNL     1       1.855   7.218  20.494  0.00  0.00    +0.000 A 
ATOM      6  C   UNL     1       1.160   8.423  20.697  0.00  0.00    +0.000 A 
ENDROOT
BRANCH   4   7
ATOM      7  C   UNL     1       3.180   5.657  19.021  0.00  0.00    +0.000 A 
ATOM      8  C   UNL     1       4.549   5.515  19.300  0.00  0.00    +0.000 A 
ATOM      9  C   UNL     1       5.180   4.307  19.037  0.00  0.00    +0.000 A 
ATOM     10  N   UNL     1       4.555   3.230  18.528  0.00  0.00    +0.000 NA
ATOM     11  C   UNL     1       3.242   3.374  18.274  0.00  0.00    +0.000 A 
ATOM     12 CL   UNL     1       2.479   1.979  17.633  0.00  0.00    +0.000 Cl
ATOM     13  C   UNL     1       2.524   4.537  18.492  0.00  0.00    +0.000 A 
ENDBRANCH   4   7
BRANCH   6  14
ATOM     14  C   UNL     1       0.507   8.721  22.008  0.00  0.00    +0.000 C 
ATOM     15  F   UNL     1       1.033   9.831  22.606  0.00  0.00    +0.000 F 
ATOM     16  F   UNL     1      -0.824   8.979  21.876  0.00  0.00    +0.000 F 
ENDBRANCH   6  14
BRANCH   1  17
ATOM     17  O   UNL     1       0.554  10.560  19.880  0.00  0.00    +0.000 OA
BRANCH  17  18
ATOM     18  C   UNL     1       0.431  11.340  18.683  0.00  0.00    +0.000 C 
BRANCH  18  19
ATOM     19  C   UNL     1      -1.058  11.735  18.431  0.00  0.00    +0.000 C 
ATOM     20  C   UNL     1      -1.745  11.986  19.784  0.00  0.00    +0.000 C 
BRANCH  19  21
ATOM     21  N   UNL     1      -1.057  12.993  17.660  0.00  0.00    +0.000 NA
ATOM     22  H   UNL     1      -1.698  13.662  18.087  0.00  0.00    +0.000 HD
ATOM     23  H   UNL     1      -1.441  12.831  16.731  0.00  0.00    +0.000 HD
ENDBRANCH  19  21
BRANCH  19  24
ATOM     24  C   UNL     1      -1.766  10.593  17.641  0.00  0.00    +0.000 C 
BRANCH  24  26
ATOM     25  C   UNL     1      -2.798   9.907  15.363  0.00  0.00    +0.000 C 
ATOM     26  C   UNL     1      -2.733  10.947  16.483  0.00  0.00    +0.000 C 
ATOM     27  C   UNL     1      -4.150  11.124  17.049  0.00  0.00    +0.000 C 
ENDBRANCH  24  26
ENDBRANCH  19  24
ENDBRANCH  18  19
ENDBRANCH  17  18
ENDBRANCH   1  17
TORSDOF 8
ENDMDL
MODEL 4
REMARK VINA RESULT:      -6.7      4.887      8.143
REMARK  Name = 
REMARK  11 active torsions:
REMARK  status: ('A' for Active; 'I' for Inactive)
REMARK    1  A    between atoms: C_1  and  C_2
REMARK    2  A    between atoms: C_2  and  C_3
REMARK    3  A    between atoms: C_2  and  C_4
REMARK    4  A    between atoms: C_4  and  C_5
REMARK    5  A    between atoms: C_5  and  C_6
REMARK    6  A    between atoms: C_5  and  N_7
REMARK    7  A    between atoms: C_5  and  C_8
REMARK    8  A    between atoms: C_8  and  O_9
REMARK    9  A    between atoms: O_9  and  C_10
REMARK   10  A    between atoms: C_13  and  C_14
REMARK   11  A    between atoms: C_22  and  C_23
REMARK                            x       y       z     vdW  Elec       q    Type
REMARK                         _______ _______ _______ _____ _____    ______ ____
ROOT
ATOM      1  C   UNL     1       2.423   6.627  18.912  0.00  0.00    +0.000 A 
ATOM      2  N   UNL     1       2.395   7.904  18.479  0.00  0.00    +0.000 NA
ATOM      3  C   UNL     1       1.806   8.819  19.289  0.00  0.00    +0.000 A 
ATOM      4  C   UNL     1       1.216   8.539  20.519  0.00  0.00    +0.000 A 
ATOM      5  C   UNL     1       1.293   7.200  20.931  0.00  0.00    +0.000 A 
ATOM      6  C   UNL     1       1.932   6.228  20.141  0.00  0.00    +0.000 A 
ENDROOT
BRANCH   4   7
ATOM      7  C   UNL     1       0.568   9.581  21.340  0.00  0.00    +0.000 A 
ATOM      8  C   UNL     1      -0.163   9.265  22.496  0.00  0.00    +0.000 A 
ATOM      9  C   UNL     1      -0.768  10.282  23.223  0.00  0.00    +0.000 A 
ATOM     10  N   UNL     1      -0.694  11.585  22.895  0.00  0.00    +0.000 NA
ATOM     11  C   UNL     1       0.017  11.876  21.791  0.00  0.00    +0.000 A 
ATOM     12 CL   UNL     1       0.095  13.545  21.408  0.00  0.00    +0.000 Cl
ATOM     13  C   UNL     1       0.649  10.937  20.994  0.00  0.00    +0.000 A 
ENDBRANCH   4   7
BRANCH   6  14
ATOM     14  C   UNL     1       2.018   4.807  20.595  0.00  0.00    +0.000 C 
ATOM     15  F   UNL     1       2.517   4.699  21.862  0.00  0.00    +0.000 F 
ATOM     16  F   UNL     1       0.799   4.201  20.636  0.00  0.00    +0.000 F 
ENDBRANCH   6  14
BRANCH   1  17
ATOM     17  O   UNL     1       2.972   5.664  18.092  0.00  0.00    +0.000 OA
BRANCH  17  18
ATOM     18  C   UNL     1       4.395   5.784  17.971  0.00  0.00    +0.000 C 
BRANCH  18  19
ATOM     19  C   UNL     1       5.053   4.385  17.753  0.00  0.00    +0.000 C 
ATOM     20  C   UNL     1       6.162   4.515  16.695  0.00  0.00    +0.000 C 
BRANCH  19  21
ATOM     21  N   UNL     1       5.666   3.982  19.033  0.00  0.00    +0.000 NA
ATOM     22  H   UNL     1       5.215   3.134  19.382  0.00  0.00    +0.000 HD
ATOM     23  H   UNL     1       5.473   4.682  19.746  0.00  0.00    +0.000 HD
ENDBRANCH  19  21
BRANCH  19  24
ATOM     24  C   UNL     1       3.961   3.368  17.307  0.00  0.00    +0.000 C 
BRANCH  24  26
ATOM     25  C   UNL     1       1.774   2.277  18.172  0.00  0.00    +0.000 C 
ATOM     26  C   UNL     1       3.280   2.462  18.365  0.00  0.00    +0.000 C 
ATOM     27  C   UNL     1       3.937   1.074  18.335  0.00  0.00    +0.000 C 
ENDBRANCH  24  26
ENDBRANCH  19  24
ENDBRANCH  18  19
ENDBRANCH  17  18
ENDBRANCH   1  17
TORSDOF 8
ENDMDL
MODEL 5
REMARK VINA RESULT:      -6.7      2.069      2.596
REMARK  Name = 
REMARK  11 active torsions:
REMARK  status: ('A' for Active; 'I' for Inactive)
REMARK    1  A    between atoms: C_1  and  C_2
REMARK    2  A    between atoms: C_2  and  C_3
REMARK    3  A    between atoms: C_2  and  C_4
REMARK    4  A    between atoms: C_4  and  C_5
REMARK    5  A    between atoms: C_5  and  C_6
REMARK    6  A    between atoms: C_5  and  N_7
REMARK    7  A    between atoms: C_5  and  C_8
REMARK    8  A    between atoms: C_8  and  O_9
REMARK    9  A    between atoms: O_9  and  C_10
REMARK   10  A    between atoms: C_13  and  C_14
REMARK   11  A    between atoms: C_22  and  C_23
REMARK                            x       y       z     vdW  Elec       q    Type
REMARK                         _______ _______ _______ _____ _____    ______ ____
ROOT
ATOM      1  C   UNL     1       5.251   5.021  18.298  0.00  0.00    +0.000 A 
ATOM      2  N   UNL     1       4.414   4.388  17.450  0.00  0.00    +0.000 NA
ATOM      3  C   UNL     1       4.848   4.196  16.180  0.00  0.00    +0.000 A 
ATOM      4  C   UNL     1       6.081   4.614  15.682  0.00  0.00    +0.000 A 
ATOM      5  C   UNL     1       6.919   5.247  16.611  0.00  0.00    +0.000 A 
ATOM      6  C   UNL     1       6.525   5.429  17.948  0.00  0.00    +0.000 A 
ENDROOT
BRANCH   4   7
ATOM      7  C   UNL     1       6.481   4.395  14.278  0.00  0.00    +0.000 A 
ATOM      8  C   UNL     1       7.427   5.214  13.641  0.00  0.00    +0.000 A 
ATOM      9  C   UNL     1       7.755   4.976  12.313  0.00  0.00    +0.000 A 
ATOM     10  N   UNL     1       7.225   3.983  11.576  0.00  0.00    +0.000 NA
ATOM     11  C   UNL     1       6.328   3.199  12.200  0.00  0.00    +0.000 A 
ATOM     12 CL   UNL     1       5.679   1.941  11.232  0.00  0.00    +0.000 Cl
ATOM     13  C   UNL     1       5.926   3.358  13.515  0.00  0.00    +0.000 A 
ENDBRANCH   4   7
BRANCH   6  14
ATOM     14  C   UNL     1       7.432   6.093  18.933  0.00  0.00    +0.000 C 
ATOM     15  F   UNL     1       8.356   5.229  19.448  0.00  0.00    +0.000 F 
ATOM     16  F   UNL     1       8.156   7.102  18.371  0.00  0.00    +0.000 F 
ENDBRANCH   6  14
BRANCH   1  17
ATOM     17  O   UNL     1       4.821   5.275  19.583  0.00  0.00    +0.000 OA
BRANCH  17  18
ATOM     18  C   UNL     1       3.796   6.276  19.637  0.00  0.00    +0.000 C 
BRANCH  18  19
ATOM     19  C   UNL     1       2.399   5.626  19.886  0.00  0.00    +0.000 C 
ATOM     20  C   UNL     1       1.524   6.612  20.679  0.00  0.00    +0.000 C 
BRANCH  19  21
ATOM     21  N   UNL     1       1.777   5.396  18.568  0.00  0.00    +0.000 NA
ATOM     22  H   UNL     1       0.924   5.950  18.486  0.00  0.00    +0.000 HD
ATOM     23  H   UNL     1       1.461   4.431  18.498  0.00  0.00    +0.000 HD
ENDBRANCH  19  21
BRANCH  19  24
ATOM     24  C   UNL     1       2.586   4.287  20.661  0.00  0.00    +0.000 C 
BRANCH  24  26
ATOM     25  C   UNL     1       1.856   2.125  19.430  0.00  0.00    +0.000 C 
ATOM     26  C   UNL     1       1.532   3.160  20.508  0.00  0.00    +0.000 C 
ATOM     27  C   UNL     1       1.390   2.422  21.848  0.00  0.00    +0.000 C 
ENDBRANCH  24  26
ENDBRANCH  19  24
ENDBRANCH  18  19
ENDBRANCH  17  18
ENDBRANCH   1  17
TORSDOF 8
ENDMDL
MODEL 6
REMARK VINA RESULT:      -6.7      4.266      7.847
REMARK  Name = 
REMARK  11 active torsions:
REMARK  status: ('A' for Active; 'I' for Inactive)
REMARK    1  A    between atoms: C_1  and  C_2
REMARK    2  A    between atoms: C_2  and  C_3
REMARK    3  A    between atoms: C_2  and  C_4
REMARK    4  A    between atoms: C_4  and  C_5
REMARK    5  A    between atoms: C_5  and  C_6
REMARK    6  A    between atoms: C_5  and  N_7
REMARK    7  A    between atoms: C_5  and  C_8
REMARK    8  A    between atoms: C_8  and  O_9
REMARK    9  A    between atoms: O_9  and  C_10
REMARK   10  A    between atoms: C_13  and  C_14
REMARK   11  A    between atoms: C_22  and  C_23
REMARK                            x       y       z     vdW  Elec       q    Type
REMARK                         _______ _______ _______ _____ _____    ______ ____
ROOT
ATOM      1  C   UNL     1       3.612   6.136  17.608  0.00  0.00    +0.000 A 
ATOM      2  N   UNL     1       3.480   7.443  17.299  0.00  0.00    +0.000 NA
ATOM      3  C   UNL     1       2.764   8.212  18.156  0.00  0.00    +0.000 A 
ATOM      4  C   UNL     1       2.145   7.755  19.317  0.00  0.00    +0.000 A 
ATOM      5  C   UNL     1       2.332   6.394  19.601  0.00  0.00    +0.000 A 
ATOM      6  C   UNL     1       3.102   5.570  18.761  0.00  0.00    +0.000 A 
ENDROOT
BRANCH   4   7
ATOM      7  C   UNL     1       1.357   8.643  20.194  0.00  0.00    +0.000 A 
ATOM      8  C   UNL     1       1.327   8.472  21.588  0.00  0.00    +0.000 A 
ATOM      9  C   UNL     1       0.557   9.325  22.366  0.00  0.00    +0.000 A 
ATOM     10  N   UNL     1      -0.176  10.338  21.868  0.00  0.00    +0.000 NA
ATOM     11  C   UNL     1      -0.132  10.498  20.533  0.00  0.00    +0.000 A 
ATOM     12 CL   UNL     1      -1.072  11.801  19.936  0.00  0.00    +0.000 Cl
ATOM     13  C   UNL     1       0.596   9.697  19.670  0.00  0.00    +0.000 A 
ENDBRANCH   4   7
BRANCH   6  14
ATOM     14  C   UNL     1       3.306   4.125  19.081  0.00  0.00    +0.000 C 
ATOM     15  F   UNL     1       4.385   3.923  19.893  0.00  0.00    +0.000 F 
ATOM     16  F   UNL     1       2.246   3.588  19.749  0.00  0.00    +0.000 F 
ENDBRANCH   6  14
BRANCH   1  17
ATOM     17  O   UNL     1       4.293   5.317  16.732  0.00  0.00    +0.000 OA
BRANCH  17  18
ATOM     18  C   UNL     1       5.337   6.003  16.029  0.00  0.00    +0.000 C 
BRANCH  18  19
ATOM     19  C   UNL     1       6.582   5.079  15.845  0.00  0.00    +0.000 C 
ATOM     20  C   UNL     1       6.103   3.634  15.624  0.00  0.00    +0.000 C 
BRANCH  19  21
ATOM     21  N   UNL     1       7.293   5.532  14.634  0.00  0.00    +0.000 NA
ATOM     22  H   UNL     1       7.841   4.763  14.245  0.00  0.00    +0.000 HD
ATOM     23  H   UNL     1       7.985   6.236  14.882  0.00  0.00    +0.000 HD
ENDBRANCH  19  21
BRANCH  19  24
ATOM     24  C   UNL     1       7.492   5.187  17.105  0.00  0.00    +0.000 C 
BRANCH  24  26
ATOM     25  C   UNL     1       7.205   5.644  19.641  0.00  0.00    +0.000 C 
ATOM     26  C   UNL     1       7.139   6.204  18.220  0.00  0.00    +0.000 C 
ATOM     27  C   UNL     1       8.104   7.397  18.134  0.00  0.00    +0.000 C 
ENDBRANCH  24  26
ENDBRANCH  19  24
ENDBRANCH  18  19
ENDBRANCH  17  18
ENDBRANCH   1  17
TORSDOF 8
ENDMDL
MODEL 7
REMARK VINA RESULT:      -6.6      4.414      7.848
REMARK  Name = 
REMARK  11 active torsions:
REMARK  status: ('A' for Active; 'I' for Inactive)
REMARK    1  A    between atoms: C_1  and  C_2
REMARK    2  A    between atoms: C_2  and  C_3
REMARK    3  A    between atoms: C_2  and  C_4
REMARK    4  A    between atoms: C_4  and  C_5
REMARK    5  A    between atoms: C_5  and  C_6
REMARK    6  A    between atoms: C_5  and  N_7
REMARK    7  A    between atoms: C_5  and  C_8
REMARK    8  A    between atoms: C_8  and  O_9
REMARK    9  A    between atoms: O_9  and  C_10
REMARK   10  A    between atoms: C_13  and  C_14
REMARK   11  A    between atoms: C_22  and  C_23
REMARK                            x       y       z     vdW  Elec       q    Type
REMARK                         _______ _______ _______ _____ _____    ______ ____
ROOT
ATOM      1  C   UNL     1       3.363   5.707  17.753  0.00  0.00    +0.000 A 
ATOM      2  N   UNL     1       3.569   6.999  17.421  0.00  0.00    +0.000 NA
ATOM      3  C   UNL     1       2.934   7.938  18.165  0.00  0.00    +0.000 A 
ATOM      4  C   UNL     1       2.077   7.672  19.231  0.00  0.00    +0.000 A 
ATOM      5  C   UNL     1       1.916   6.315  19.546  0.00  0.00    +0.000 A 
ATOM      6  C   UNL     1       2.589   5.311  18.827  0.00  0.00    +0.000 A 
ENDROOT
BRANCH   4   7
ATOM      7  C   UNL     1       1.397   8.744  19.983  0.00  0.00    +0.000 A 
ATOM      8  C   UNL     1       1.042   9.962  19.381  0.00  0.00    +0.000 A 
ATOM      9  C   UNL     1       0.419  10.945  20.138  0.00  0.00    +0.000 A 
ATOM     10  N   UNL     1       0.114  10.807  21.441  0.00  0.00    +0.000 NA
ATOM     11  C   UNL     1       0.450   9.633  22.005  0.00  0.00    +0.000 A 
ATOM     12 CL   UNL     1       0.041   9.491  23.664  0.00  0.00    +0.000 Cl
ATOM     13  C   UNL     1       1.081   8.595  21.341  0.00  0.00    +0.000 A 
ENDBRANCH   4   7
BRANCH   6  14
ATOM     14  C   UNL     1       2.419   3.869  19.181  0.00  0.00    +0.000 C 
ATOM     15  F   UNL     1       3.201   3.502  20.238  0.00  0.00    +0.000 F 
ATOM     16  F   UNL     1       1.143   3.575  19.558  0.00  0.00    +0.000 F 
ENDBRANCH   6  14
BRANCH   1  17
ATOM     17  O   UNL     1       3.955   4.726  16.986  0.00  0.00    +0.000 OA
BRANCH  17  18
ATOM     18  C   UNL     1       5.362   4.604  17.232  0.00  0.00    +0.000 C 
BRANCH  18  19
ATOM     19  C   UNL     1       6.186   5.175  16.035  0.00  0.00    +0.000 C 
ATOM     20  C   UNL     1       6.608   4.012  15.121  0.00  0.00    +0.000 C 
BRANCH  19  21
ATOM     21  N   UNL     1       5.297   6.075  15.277  0.00  0.00    +0.000 NA
ATOM     22  H   UNL     1       5.814   6.905  14.981  0.00  0.00    +0.000 HD
ATOM     23  H   UNL     1       4.567   6.436  15.887  0.00  0.00    +0.000 HD
ENDBRANCH  19  21
BRANCH  19  24
ATOM     24  C   UNL     1       7.426   5.941  16.585  0.00  0.00    +0.000 C 
BRANCH  24  26
ATOM     25  C   UNL     1       8.019   6.162  19.099  0.00  0.00    +0.000 C 
ATOM     26  C   UNL     1       7.301   6.765  17.891  0.00  0.00    +0.000 C 
ATOM     27  C   UNL     1       7.871   8.172  17.654  0.00  0.00    +0.000 C 
ENDBRANCH  24  26
ENDBRANCH  19  24
ENDBRANCH  18  19
ENDBRANCH  17  18
ENDBRANCH   1  17
TORSDOF 8
ENDMDL
MODEL 8
REMARK VINA RESULT:      -6.6      3.564      5.065
REMARK  Name = 
REMARK  11 active torsions:
REMARK  status: ('A' for Active; 'I' for Inactive)
REMARK    1  A    between atoms: C_1  and  C_2
REMARK    2  A    between atoms: C_2  and  C_3
REMARK    3  A    between atoms: C_2  and  C_4
REMARK    4  A    between atoms: C_4  and  C_5
REMARK    5  A    between atoms: C_5  and  C_6
REMARK    6  A    between atoms: C_5  and  N_7
REMARK    7  A    between atoms: C_5  and  C_8
REMARK    8  A    between atoms: C_8  and  O_9
REMARK    9  A    between atoms: O_9  and  C_10
REMARK   10  A    between atoms: C_13  and  C_14
REMARK   11  A    between atoms: C_22  and  C_23
REMARK                            x       y       z     vdW  Elec       q    Type
REMARK                         _______ _______ _______ _____ _____    ______ ____
ROOT
ATOM      1  C   UNL     1       2.029   6.784  19.943  0.00  0.00    +0.000 A 
ATOM      2  N   UNL     1       2.661   7.609  19.083  0.00  0.00    +0.000 NA
ATOM      3  C   UNL     1       3.661   7.078  18.337  0.00  0.00    +0.000 A 
ATOM      4  C   UNL     1       4.094   5.755  18.402  0.00  0.00    +0.000 A 
ATOM      5  C   UNL     1       3.388   4.936  19.296  0.00  0.00    +0.000 A 
ATOM      6  C   UNL     1       2.317   5.437  20.057  0.00  0.00    +0.000 A 
ENDROOT
BRANCH   4   7
ATOM      7  C   UNL     1       5.208   5.248  17.577  0.00  0.00    +0.000 A 
ATOM      8  C   UNL     1       6.503   5.091  18.098  0.00  0.00    +0.000 A 
ATOM      9  C   UNL     1       7.520   4.626  17.275  0.00  0.00    +0.000 A 
ATOM     10  N   UNL     1       7.347   4.297  15.982  0.00  0.00    +0.000 NA
ATOM     11  C   UNL     1       6.101   4.441  15.498  0.00  0.00    +0.000 A 
ATOM     12 CL   UNL     1       5.917   4.005  13.850  0.00  0.00    +0.000 Cl
ATOM     13  C   UNL     1       5.022   4.905  16.231  0.00  0.00    +0.000 A 
ENDBRANCH   4   7
BRANCH   6  14
ATOM     14  C   UNL     1       1.565   4.552  20.997  0.00  0.00    +0.000 C 
ATOM     15  F   UNL     1       0.994   3.488  20.359  0.00  0.00    +0.000 F 
ATOM     16  F   UNL     1       2.369   4.009  21.954  0.00  0.00    +0.000 F 
ENDBRANCH   6  14
BRANCH   1  17
ATOM     17  O   UNL     1       1.040   7.304  20.751  0.00  0.00    +0.000 OA
BRANCH  17  18
ATOM     18  C   UNL     1       1.503   8.389  21.566  0.00  0.00    +0.000 C 
BRANCH  18  19
ATOM     19  C   UNL     1       0.454   9.545  21.599  0.00  0.00    +0.000 C 
ATOM     20  C   UNL     1      -0.336   9.465  22.916  0.00  0.00    +0.000 C 
BRANCH  19  21
ATOM     21  N   UNL     1       1.199  10.818  21.570  0.00  0.00    +0.000 NA
ATOM     22  H   UNL     1       0.559  11.591  21.379  0.00  0.00    +0.000 HD
ATOM     23  H   UNL     1       1.845  10.824  20.783  0.00  0.00    +0.000 HD
ENDBRANCH  19  21
BRANCH  19  24
ATOM     24  C   UNL     1      -0.489   9.418  20.365  0.00  0.00    +0.000 C 
BRANCH  24  26
ATOM     25  C   UNL     1       0.509   9.926  18.027  0.00  0.00    +0.000 C 
ATOM     26  C   UNL     1      -0.353  10.419  19.190  0.00  0.00    +0.000 C 
ATOM     27  C   UNL     1      -1.751  10.742  18.641  0.00  0.00    +0.000 C 
ENDBRANCH  24  26
ENDBRANCH  19  24
ENDBRANCH  18  19
ENDBRANCH  17  18
ENDBRANCH   1  17
TORSDOF 8
ENDMDL
MODEL 9
REMARK VINA RESULT:      -6.6      4.859      8.261
REMARK  Name = 
REMARK  11 active torsions:
REMARK  status: ('A' for Active; 'I' for Inactive)
REMARK    1  A    between atoms: C_1  and  C_2
REMARK    2  A    between atoms: C_2  and  C_3
REMARK    3  A    between atoms: C_2  and  C_4
REMARK    4  A    between atoms: C_4  and  C_5
REMARK    5  A    between atoms: C_5  and  C_6
REMARK    6  A    between atoms: C_5  and  N_7
REMARK    7  A    between atoms: C_5  and  C_8
REMARK    8  A    between atoms: C_8  and  O_9
REMARK    9  A    between atoms: O_9  and  C_10
REMARK   10  A    between atoms: C_13  and  C_14
REMARK   11  A    between atoms: C_22  and  C_23
REMARK                            x       y       z     vdW  Elec       q    Type
REMARK                         _______ _______ _______ _____ _____    ______ ____
ROOT
ATOM      1  C   UNL     1       3.051   7.023  17.987  0.00  0.00    +0.000 A 
ATOM      2  N   UNL     1       2.868   8.201  17.356  0.00  0.00    +0.000 NA
ATOM      3  C   UNL     1       2.125   9.137  17.996  0.00  0.00    +0.000 A 
ATOM      4  C   UNL     1       1.526   8.970  19.243  0.00  0.00    +0.000 A 
ATOM      5  C   UNL     1       1.767   7.735  19.863  0.00  0.00    +0.000 A 
ATOM      6  C   UNL     1       2.566   6.753  19.253  0.00  0.00    +0.000 A 
ENDROOT
BRANCH   4   7
ATOM      7  C   UNL     1       0.707  10.024  19.873  0.00  0.00    +0.000 A 
ATOM      8  C   UNL     1       0.439  11.240  19.225  0.00  0.00    +0.000 A 
ATOM      9  C   UNL     1      -0.324  12.206  19.868  0.00  0.00    +0.000 A 
ATOM     10  N   UNL     1      -0.847  12.051  21.098  0.00  0.00    +0.000 NA
ATOM     11  C   UNL     1      -0.592  10.878  21.705  0.00  0.00    +0.000 A 
ATOM     12 CL   UNL     1      -1.279  10.715  23.267  0.00  0.00    +0.000 Cl
ATOM     13  C   UNL     1       0.163   9.857  21.154  0.00  0.00    +0.000 A 
ENDBRANCH   4   7
BRANCH   6  14
ATOM     14  C   UNL     1       2.826   5.445  19.929  0.00  0.00    +0.000 C 
ATOM     15  F   UNL     1       2.212   5.363  21.146  0.00  0.00    +0.000 F 
ATOM     16  F   UNL     1       2.349   4.389  19.213  0.00  0.00    +0.000 F 
ENDBRANCH   6  14
BRANCH   1  17
ATOM     17  O   UNL     1       3.762   6.032  17.342  0.00  0.00    +0.000 OA
BRANCH  17  18
ATOM     18  C   UNL     1       4.821   6.550  16.527  0.00  0.00    +0.000 C 
BRANCH  18  19
ATOM     19  C   UNL     1       5.809   5.415  16.113  0.00  0.00    +0.000 C 
ATOM     20  C   UNL     1       5.180   4.055  16.462  0.00  0.00    +0.000 C 
BRANCH  19  21
ATOM     21  N   UNL     1       5.984   5.493  14.650  0.00  0.00    +0.000 NA
ATOM     22  H   UNL     1       6.836   6.012  14.430  0.00  0.00    +0.000 HD
ATOM     23  H   UNL     1       5.236   6.049  14.241  0.00  0.00    +0.000 HD
ENDBRANCH  19  21
BRANCH  19  24
ATOM     24  C   UNL     1       7.164   5.618  16.853  0.00  0.00    +0.000 C 
BRANCH  24  26
ATOM     25  C   UNL     1       7.911   5.833  19.327  0.00  0.00    +0.000 C 
ATOM     26  C   UNL     1       7.214   6.490  18.134  0.00  0.00    +0.000 C 
ATOM     27  C   UNL     1       7.947   7.802  17.819  0.00  0.00    +0.000 C 
ENDBRANCH  24  26
ENDBRANCH  19  24
ENDBRANCH  18  19
ENDBRANCH  17  18
ENDBRANCH   1  17
TORSDOF 8
ENDMDL
