MODEL 1
REMARK VINA RESULT:      -7.4      0.000      0.000
REMARK  Name = 
REMARK  7 active torsions:
REMARK  status: ('A' for Active; 'I' for Inactive)
REMARK    1  A    between atoms: C_1  and  C_2
REMARK    2  A    between atoms: C_2  and  C_3
REMARK    3  A    between atoms: C_3  and  C_4
REMARK    4  A    between atoms: C_4  and  N_5
REMARK    5  A    between atoms: N_8  and  S_9
REMARK    6  A    between atoms: S_9  and  C_12
REMARK    7  A    between atoms: C_15  and  N_16
REMARK                            x       y       z     vdW  Elec       q    Type
REMARK                         _______ _______ _______ _____ _____    ______ ____
ROOT
ATOM      1  S   UNL     1       7.100   5.168  17.049  0.00  0.00    +0.000 S 
ATOM      2  O   UNL     1       7.880   4.403  18.005  0.00  0.00    +0.000 OA
ATOM      3  O   UNL     1       7.661   6.352  16.436  0.00  0.00    +0.000 OA
ENDROOT
BRANCH   1   7
ATOM      4  N   UNL     1       6.314   3.342  13.693  0.00  0.00    +0.000 N 
ATOM      5  C   UNL     1       6.720   4.368  14.500  0.00  0.00    +0.000 C 
ATOM      6  O   UNL     1       7.062   5.455  14.057  0.00  0.00    +0.000 OA
ATOM      7  N   UNL     1       6.689   4.080  15.853  0.00  0.00    +0.000 N 
ATOM      8  H   UNL     1       6.140   2.434  14.084  0.00  0.00    +0.000 HD
ATOM      9  H   UNL     1       6.366   3.191  16.212  0.00  0.00    +0.000 HD
BRANCH   4  10
ATOM     10  C   UNL     1       6.215   3.530  12.256  0.00  0.00    +0.000 C 
BRANCH  10  11
ATOM     11  C   UNL     1       4.970   2.890  11.640  0.00  0.00    +0.000 C 
BRANCH  11  13
ATOM     12  C   UNL     1       3.164   3.426   9.963  0.00  0.00    +0.000 C 
ATOM     13  C   UNL     1       3.954   3.927  11.162  0.00  0.00    +0.000 C 
ENDBRANCH  11  13
ENDBRANCH  10  11
ENDBRANCH   4  10
ENDBRANCH   1   7
BRANCH   1  14
ATOM     14  C   UNL     1       5.567   5.595  17.844  0.00  0.00    +0.000 A 
ATOM     15  C   UNL     1       4.742   6.587  17.311  0.00  0.00    +0.000 A 
ATOM     16  C   UNL     1       3.547   6.918  17.965  0.00  0.00    +0.000 A 
ATOM     17  C   UNL     1       3.144   6.235  19.120  0.00  0.00    +0.000 A 
ATOM     18  C   UNL     1       3.979   5.242  19.636  0.00  0.00    +0.000 A 
ATOM     19  C   UNL     1       5.168   4.895  18.986  0.00  0.00    +0.000 A 
BRANCH  17  20
ATOM     20  N   UNL     1       2.062   6.700  19.875  0.00  0.00    +0.000 N 
ATOM     21  H   UNL     1       1.983   6.291  20.800  0.00  0.00    +0.000 HD
ATOM     22  H   UNL     1       1.962   7.710  19.884  0.00  0.00    +0.000 HD
ENDBRANCH  17  20
ENDBRANCH   1  14
TORSDOF 6
ENDMDL
MODEL 2
REMARK VINA RESULT:      -7.4      1.836      2.207
REMARK  Name = 
REMARK  7 active torsions:
REMARK  status: ('A' for Active; 'I' for Inactive)
REMARK    1  A    between atoms: C_1  and  C_2
REMARK    2  A    between atoms: C_2  and  C_3
REMARK    3  A    between atoms: C_3  and  C_4
REMARK    4  A    between atoms: C_4  and  N_5
REMARK    5  A    between atoms: N_8  and  S_9
REMARK    6  A    between atoms: S_9  and  C_12
REMARK    7  A    between atoms: C_15  and  N_16
REMARK                            x       y       z     vdW  Elec       q    Type
REMARK                         _______ _______ _______ _____ _____    ______ ____
ROOT
ATOM      1  S   UNL     1       5.849   4.924  18.052  0.00  0.00    +0.000 S 
ATOM      2  O   UNL     1       7.118   4.400  18.522  0.00  0.00    +0.000 OA
ATOM      3  O   UNL     1       5.676   6.348  17.865  0.00  0.00    +0.000 OA
ENDROOT
BRANCH   1   7
ATOM      4  N   UNL     1       5.942   3.580  14.392  0.00  0.00    +0.000 N 
ATOM      5  C   UNL     1       6.373   4.278  15.485  0.00  0.00    +0.000 C 
ATOM      6  O   UNL     1       7.378   4.975  15.464  0.00  0.00    +0.000 OA
ATOM      7  N   UNL     1       5.568   4.148  16.602  0.00  0.00    +0.000 N 
ATOM      8  H   UNL     1       5.173   2.939  14.476  0.00  0.00    +0.000 HD
ATOM      9  H   UNL     1       4.716   3.602  16.597  0.00  0.00    +0.000 HD
BRANCH   4  10
ATOM     10  C   UNL     1       6.643   3.690  13.124  0.00  0.00    +0.000 C 
BRANCH  10  11
ATOM     11  C   UNL     1       5.865   3.107  11.943  0.00  0.00    +0.000 C 
BRANCH  11  13
ATOM     12  C   UNL     1       3.655   2.996  10.733  0.00  0.00    +0.000 C 
ATOM     13  C   UNL     1       4.453   3.681  11.833  0.00  0.00    +0.000 C 
ENDBRANCH  11  13
ENDBRANCH  10  11
ENDBRANCH   4  10
ENDBRANCH   1   7
BRANCH   1  14
ATOM     14  C   UNL     1       4.592   4.325  19.159  0.00  0.00    +0.000 A 
ATOM     15  C   UNL     1       3.616   5.189  19.660  0.00  0.00    +0.000 A 
ATOM     16  C   UNL     1       2.646   4.697  20.545  0.00  0.00    +0.000 A 
ATOM     17  C   UNL     1       2.611   3.342  20.896  0.00  0.00    +0.000 A 
ATOM     18  C   UNL     1       3.591   2.492  20.380  0.00  0.00    +0.000 A 
ATOM     19  C   UNL     1       4.557   2.968  19.488  0.00  0.00    +0.000 A 
BRANCH  17  20
ATOM     20  N   UNL     1       1.773   2.899  21.925  0.00  0.00    +0.000 N 
ATOM     21  H   UNL     1       2.238   2.740  22.813  0.00  0.00    +0.000 HD
ATOM     22  H   UNL     1       0.915   3.433  22.024  0.00  0.00    +0.000 HD
ENDBRANCH  17  20
ENDBRANCH   1  14
TORSDOF 6
ENDMDL
MODEL 3
REMARK VINA RESULT:      -7.2      1.649      2.204
REMARK  Name = 
REMARK  7 active torsions:
REMARK  status: ('A' for Active; 'I' for Inactive)
REMARK    1  A    between atoms: C_1  and  C_2
REMARK    2  A    between atoms: C_2  and  C_3
REMARK    3  A    between atoms: C_3  and  C_4
REMARK    4  A    between atoms: C_4  and  N_5
REMARK    5  A    between atoms: N_8  and  S_9
REMARK    6  A    between atoms: S_9  and  C_12
REMARK    7  A    between atoms: C_15  and  N_16
REMARK                            x       y       z     vdW  Elec       q    Type
REMARK                         _______ _______ _______ _____ _____    ______ ____
ROOT
ATOM      1  S   UNL     1       5.869   4.907  17.863  0.00  0.00    +0.000 S 
ATOM      2  O   UNL     1       7.043   4.246  18.403  0.00  0.00    +0.000 OA
ATOM      3  O   UNL     1       5.858   6.343  17.692  0.00  0.00    +0.000 OA
ENDROOT
BRANCH   1   7
ATOM      4  N   UNL     1       5.998   3.703  14.155  0.00  0.00    +0.000 N 
ATOM      5  C   UNL     1       6.415   4.364  15.276  0.00  0.00    +0.000 C 
ATOM      6  O   UNL     1       7.412   5.072  15.288  0.00  0.00    +0.000 OA
ATOM      7  N   UNL     1       5.605   4.183  16.382  0.00  0.00    +0.000 N 
ATOM      8  H   UNL     1       5.237   3.050  14.210  0.00  0.00    +0.000 HD
ATOM      9  H   UNL     1       4.759   3.628  16.352  0.00  0.00    +0.000 HD
BRANCH   4  10
ATOM     10  C   UNL     1       6.706   3.868  12.897  0.00  0.00    +0.000 C 
BRANCH  10  11
ATOM     11  C   UNL     1       5.975   3.258  11.700  0.00  0.00    +0.000 C 
BRANCH  11  13
ATOM     12  C   UNL     1       3.697   3.463  10.636  0.00  0.00    +0.000 C 
ATOM     13  C   UNL     1       4.464   3.175  11.918  0.00  0.00    +0.000 C 
ENDBRANCH  11  13
ENDBRANCH  10  11
ENDBRANCH   4  10
ENDBRANCH   1   7
BRANCH   1  14
ATOM     14  C   UNL     1       4.486   4.430  18.874  0.00  0.00    +0.000 A 
ATOM     15  C   UNL     1       4.442   3.168  19.470  0.00  0.00    +0.000 A 
ATOM     16  C   UNL     1       3.333   2.810  20.249  0.00  0.00    +0.000 A 
ATOM     17  C   UNL     1       2.289   3.715  20.478  0.00  0.00    +0.000 A 
ATOM     18  C   UNL     1       2.352   4.974  19.878  0.00  0.00    +0.000 A 
ATOM     19  C   UNL     1       3.458   5.348  19.109  0.00  0.00    +0.000 A 
BRANCH  17  20
ATOM     20  N   UNL     1       1.102   3.288  21.083  0.00  0.00    +0.000 N 
ATOM     21  H   UNL     1       0.833   3.814  21.908  0.00  0.00    +0.000 HD
ATOM     22  H   UNL     1       0.331   3.150  20.439  0.00  0.00    +0.000 HD
ENDBRANCH  17  20
ENDBRANCH   1  14
TORSDOF 6
ENDMDL
MODEL 4
REMARK VINA RESULT:      -7.2      1.283      1.727
REMARK  Name = 
REMARK  7 active torsions:
REMARK  status: ('A' for Active; 'I' for Inactive)
REMARK    1  A    between atoms: C_1  and  C_2
REMARK    2  A    between atoms: C_2  and  C_3
REMARK    3  A    between atoms: C_3  and  C_4
REMARK    4  A    between atoms: C_4  and  N_5
REMARK    5  A    between atoms: N_8  and  S_9
REMARK    6  A    between atoms: S_9  and  C_12
REMARK    7  A    between atoms: C_15  and  N_16
REMARK                            x       y       z     vdW  Elec       q    Type
REMARK                         _______ _______ _______ _____ _____    ______ ____
ROOT
ATOM      1  S   UNL     1       7.223   5.571  17.582  0.00  0.00    +0.000 S 
ATOM      2  O   UNL     1       8.006   4.413  17.973  0.00  0.00    +0.000 OA
ATOM      3  O   UNL     1       7.614   6.893  18.020  0.00  0.00    +0.000 OA
ENDROOT
BRANCH   1   7
ATOM      4  N   UNL     1       6.792   4.658  13.814  0.00  0.00    +0.000 N 
ATOM      5  C   UNL     1       6.681   4.496  15.167  0.00  0.00    +0.000 C 
ATOM      6  O   UNL     1       6.181   3.499  15.669  0.00  0.00    +0.000 OA
ATOM      7  N   UNL     1       7.200   5.538  15.914  0.00  0.00    +0.000 N 
ATOM      8  H   UNL     1       7.113   5.532  13.437  0.00  0.00    +0.000 HD
ATOM      9  H   UNL     1       7.649   6.340  15.490  0.00  0.00    +0.000 HD
BRANCH   4  10
ATOM     10  C   UNL     1       6.366   3.606  12.909  0.00  0.00    +0.000 C 
BRANCH  10  11
ATOM     11  C   UNL     1       4.898   3.716  12.491  0.00  0.00    +0.000 C 
BRANCH  11  13
ATOM     12  C   UNL     1       3.382   3.473  10.490  0.00  0.00    +0.000 C 
ATOM     13  C   UNL     1       4.587   2.912  11.229  0.00  0.00    +0.000 C 
ENDBRANCH  11  13
ENDBRANCH  10  11
ENDBRANCH   4  10
ENDBRANCH   1   7
BRANCH   1  14
ATOM     14  C   UNL     1       5.544   5.265  18.083  0.00  0.00    +0.000 A 
ATOM     15  C   UNL     1       5.242   4.212  18.948  0.00  0.00    +0.000 A 
ATOM     16  C   UNL     1       3.909   3.980  19.315  0.00  0.00    +0.000 A 
ATOM     17  C   UNL     1       2.881   4.818  18.866  0.00  0.00    +0.000 A 
ATOM     18  C   UNL     1       3.203   5.870  18.006  0.00  0.00    +0.000 A 
ATOM     19  C   UNL     1       4.530   6.118  17.642  0.00  0.00    +0.000 A 
BRANCH  17  20
ATOM     20  N   UNL     1       1.542   4.467  19.070  0.00  0.00    +0.000 N 
ATOM     21  H   UNL     1       0.890   4.878  18.409  0.00  0.00    +0.000 HD
ATOM     22  H   UNL     1       1.386   3.473  19.205  0.00  0.00    +0.000 HD
ENDBRANCH  17  20
ENDBRANCH   1  14
TORSDOF 6
ENDMDL
MODEL 5
REMARK VINA RESULT:      -7.1      1.855      2.129
REMARK  Name = 
REMARK  7 active torsions:
REMARK  status: ('A' for Active; 'I' for Inactive)
REMARK    1  A    between atoms: C_1  and  C_2
REMARK    2  A    between atoms: C_2  and  C_3
REMARK    3  A    between atoms: C_3  and  C_4
REMARK    4  A    between atoms: C_4  and  N_5
REMARK    5  A    between atoms: N_8  and  S_9
REMARK    6  A    between atoms: S_9  and  C_12
REMARK    7  A    between atoms: C_15  and  N_16
REMARK                            x       y       z     vdW  Elec       q    Type
REMARK                         _______ _______ _______ _____ _____    ______ ____
ROOT
ATOM      1  S   UNL     1       5.815   4.897  17.989  0.00  0.00    +0.000 S 
ATOM      2  O   UNL     1       6.790   4.459  18.972  0.00  0.00    +0.000 OA
ATOM      3  O   UNL     1       5.727   6.295  17.628  0.00  0.00    +0.000 OA
ENDROOT
BRANCH   1   7
ATOM      4  N   UNL     1       6.371   3.597  14.354  0.00  0.00    +0.000 N 
ATOM      5  C   UNL     1       6.095   4.510  15.333  0.00  0.00    +0.000 C 
ATOM      6  O   UNL     1       5.808   5.672  15.084  0.00  0.00    +0.000 OA
ATOM      7  N   UNL     1       6.146   4.003  16.619  0.00  0.00    +0.000 N 
ATOM      8  H   UNL     1       6.703   2.681  14.599  0.00  0.00    +0.000 HD
ATOM      9  H   UNL     1       6.344   3.030  16.813  0.00  0.00    +0.000 HD
BRANCH   4  10
ATOM     10  C   UNL     1       6.273   3.967  12.953  0.00  0.00    +0.000 C 
BRANCH  10  11
ATOM     11  C   UNL     1       6.559   2.810  11.993  0.00  0.00    +0.000 C 
BRANCH  11  13
ATOM     12  C   UNL     1       4.165   3.264  11.341  0.00  0.00    +0.000 C 
ATOM     13  C   UNL     1       5.285   2.234  11.376  0.00  0.00    +0.000 C 
ENDBRANCH  11  13
ENDBRANCH  10  11
ENDBRANCH   4  10
ENDBRANCH   1   7
BRANCH   1  14
ATOM     14  C   UNL     1       4.221   4.337  18.545  0.00  0.00    +0.000 A 
ATOM     15  C   UNL     1       3.052   4.838  17.968  0.00  0.00    +0.000 A 
ATOM     16  C   UNL     1       1.807   4.393  18.435  0.00  0.00    +0.000 A 
ATOM     17  C   UNL     1       1.717   3.420  19.438  0.00  0.00    +0.000 A 
ATOM     18  C   UNL     1       2.897   2.927  19.999  0.00  0.00    +0.000 A 
ATOM     19  C   UNL     1       4.145   3.353  19.534  0.00  0.00    +0.000 A 
BRANCH  17  20
ATOM     20  N   UNL     1       0.486   3.130  20.034  0.00  0.00    +0.000 N 
ATOM     21  H   UNL     1      -0.128   3.930  20.153  0.00  0.00    +0.000 HD
ATOM     22  H   UNL     1       0.008   2.327  19.637  0.00  0.00    +0.000 HD
ENDBRANCH  17  20
ENDBRANCH   1  14
TORSDOF 6
ENDMDL
MODEL 6
REMARK VINA RESULT:      -7.1      2.018      2.593
REMARK  Name = 
REMARK  7 active torsions:
REMARK  status: ('A' for Active; 'I' for Inactive)
REMARK    1  A    between atoms: C_1  and  C_2
REMARK    2  A    between atoms: C_2  and  C_3
REMARK    3  A    between atoms: C_3  and  C_4
REMARK    4  A    between atoms: C_4  and  N_5
REMARK    5  A    between atoms: N_8  and  S_9
REMARK    6  A    between atoms: S_9  and  C_12
REMARK    7  A    between atoms: C_15  and  N_16
REMARK                            x       y       z     vdW  Elec       q    Type
REMARK                         _______ _______ _______ _____ _____    ______ ____
ROOT
ATOM      1  S   UNL     1       5.342   5.349  17.847  0.00  0.00    +0.000 S 
ATOM      2  O   UNL     1       6.680   5.371  18.408  0.00  0.00    +0.000 OA
ATOM      3  O   UNL     1       4.726   6.575  17.389  0.00  0.00    +0.000 OA
ENDROOT
BRANCH   1   7
ATOM      4  N   UNL     1       5.930   3.548  14.437  0.00  0.00    +0.000 N 
ATOM      5  C   UNL     1       6.003   4.561  15.352  0.00  0.00    +0.000 C 
ATOM      6  O   UNL     1       6.524   5.638  15.097  0.00  0.00    +0.000 OA
ATOM      7  N   UNL     1       5.421   4.274  16.573  0.00  0.00    +0.000 N 
ATOM      8  H   UNL     1       5.589   2.644  14.714  0.00  0.00    +0.000 HD
ATOM      9  H   UNL     1       4.956   3.395  16.760  0.00  0.00    +0.000 HD
BRANCH   4  10
ATOM     10  C   UNL     1       6.426   3.739  13.085  0.00  0.00    +0.000 C 
BRANCH  10  11
ATOM     11  C   UNL     1       5.444   3.282  12.004  0.00  0.00    +0.000 C 
BRANCH  11  13
ATOM     12  C   UNL     1       7.235   1.766  11.077  0.00  0.00    +0.000 C 
ATOM     13  C   UNL     1       5.770   1.887  11.470  0.00  0.00    +0.000 C 
ENDBRANCH  11  13
ENDBRANCH  10  11
ENDBRANCH   4  10
ENDBRANCH   1   7
BRANCH   1  14
ATOM     14  C   UNL     1       4.280   4.579  19.048  0.00  0.00    +0.000 A 
ATOM     15  C   UNL     1       3.290   5.317  19.699  0.00  0.00    +0.000 A 
ATOM     16  C   UNL     1       2.477   4.692  20.655  0.00  0.00    +0.000 A 
ATOM     17  C   UNL     1       2.612   3.326  20.934  0.00  0.00    +0.000 A 
ATOM     18  C   UNL     1       3.604   2.602  20.269  0.00  0.00    +0.000 A 
ATOM     19  C   UNL     1       4.413   3.212  19.305  0.00  0.00    +0.000 A 
BRANCH  17  20
ATOM     20  N   UNL     1       1.941   2.757  22.021  0.00  0.00    +0.000 N 
ATOM     21  H   UNL     1       2.416   2.857  22.913  0.00  0.00    +0.000 HD
ATOM     22  H   UNL     1       0.956   2.994  22.075  0.00  0.00    +0.000 HD
ENDBRANCH  17  20
ENDBRANCH   1  14
TORSDOF 6
ENDMDL
MODEL 7
REMARK VINA RESULT:      -7.1      2.103      2.570
REMARK  Name = 
REMARK  7 active torsions:
REMARK  status: ('A' for Active; 'I' for Inactive)
REMARK    1  A    between atoms: C_1  and  C_2
REMARK    2  A    between atoms: C_2  and  C_3
REMARK    3  A    between atoms: C_3  and  C_4
REMARK    4  A    between atoms: C_4  and  N_5
REMARK    5  A    between atoms: N_8  and  S_9
REMARK    6  A    between atoms: S_9  and  C_12
REMARK    7  A    between atoms: C_15  and  N_16
REMARK                            x       y       z     vdW  Elec       q    Type
REMARK                         _______ _______ _______ _____ _____    ______ ____
ROOT
ATOM      1  S   UNL     1       5.870   4.887  17.934  0.00  0.00    +0.000 S 
ATOM      2  O   UNL     1       6.753   4.446  18.997  0.00  0.00    +0.000 OA
ATOM      3  O   UNL     1       5.697   6.299  17.673  0.00  0.00    +0.000 OA
ENDROOT
BRANCH   1   7
ATOM      4  N   UNL     1       6.648   3.752  14.283  0.00  0.00    +0.000 N 
ATOM      5  C   UNL     1       6.081   4.510  15.270  0.00  0.00    +0.000 C 
ATOM      6  O   UNL     1       5.298   5.419  15.030  0.00  0.00    +0.000 OA
ATOM      7  N   UNL     1       6.447   4.148  16.553  0.00  0.00    +0.000 N 
ATOM      8  H   UNL     1       7.363   3.084  14.511  0.00  0.00    +0.000 HD
ATOM      9  H   UNL     1       7.063   3.368  16.743  0.00  0.00    +0.000 HD
BRANCH   4  10
ATOM     10  C   UNL     1       6.289   3.965  12.892  0.00  0.00    +0.000 C 
BRANCH  10  11
ATOM     11  C   UNL     1       6.551   2.749  12.001  0.00  0.00    +0.000 C 
BRANCH  11  13
ATOM     12  C   UNL     1       4.157   3.245  11.376  0.00  0.00    +0.000 C 
ATOM     13  C   UNL     1       5.273   2.211  11.357  0.00  0.00    +0.000 C 
ENDBRANCH  11  13
ENDBRANCH  10  11
ENDBRANCH   4  10
ENDBRANCH   1   7
BRANCH   1  14
ATOM     14  C   UNL     1       4.279   4.151  18.232  0.00  0.00    +0.000 A 
ATOM     15  C   UNL     1       4.160   3.017  19.037  0.00  0.00    +0.000 A 
ATOM     16  C   UNL     1       2.897   2.445  19.244  0.00  0.00    +0.000 A 
ATOM     17  C   UNL     1       1.745   3.021  18.694  0.00  0.00    +0.000 A 
ATOM     18  C   UNL     1       1.882   4.159  17.896  0.00  0.00    +0.000 A 
ATOM     19  C   UNL     1       3.135   4.746  17.692  0.00  0.00    +0.000 A 
BRANCH  17  20
ATOM     20  N   UNL     1       0.524   2.340  18.736  0.00  0.00    +0.000 N 
ATOM     21  H   UNL     1      -0.296   2.933  18.650  0.00  0.00    +0.000 HD
ATOM     22  H   UNL     1       0.480   1.523  18.136  0.00  0.00    +0.000 HD
ENDBRANCH  17  20
ENDBRANCH   1  14
TORSDOF 6
ENDMDL
MODEL 8
REMARK VINA RESULT:      -7.0      3.925      6.374
REMARK  Name = 
REMARK  7 active torsions:
REMARK  status: ('A' for Active; 'I' for Inactive)
REMARK    1  A    between atoms: C_1  and  C_2
REMARK    2  A    between atoms: C_2  and  C_3
REMARK    3  A    between atoms: C_3  and  C_4
REMARK    4  A    between atoms: C_4  and  N_5
REMARK    5  A    between atoms: N_8  and  S_9
REMARK    6  A    between atoms: S_9  and  C_12
REMARK    7  A    between atoms: C_15  and  N_16
REMARK                            x       y       z     vdW  Elec       q    Type
REMARK                         _______ _______ _______ _____ _____    ______ ____
ROOT
ATOM      1  S   UNL     1       6.512   5.814  16.541  0.00  0.00    +0.000 S 
ATOM      2  O   UNL     1       5.863   5.834  15.243  0.00  0.00    +0.000 OA
ATOM      3  O   UNL     1       7.567   4.861  16.811  0.00  0.00    +0.000 OA
ENDROOT
BRANCH   1   7
ATOM      4  N   UNL     1       8.220   9.073  17.837  0.00  0.00    +0.000 N 
ATOM      5  C   UNL     1       7.860   7.754  17.846  0.00  0.00    +0.000 C 
ATOM      6  O   UNL     1       8.164   6.998  18.758  0.00  0.00    +0.000 OA
ATOM      7  N   UNL     1       7.108   7.358  16.754  0.00  0.00    +0.000 N 
ATOM      8  H   UNL     1       8.042   9.637  17.025  0.00  0.00    +0.000 HD
ATOM      9  H   UNL     1       6.827   8.001  16.026  0.00  0.00    +0.000 HD
BRANCH   4  10
ATOM     10  C   UNL     1       8.940   9.647  18.960  0.00  0.00    +0.000 C 
BRANCH  10  11
ATOM     11  C   UNL     1       9.325  11.114  18.753  0.00  0.00    +0.000 C 
BRANCH  11  13
ATOM     12  C   UNL     1      11.731  11.873  18.725  0.00  0.00    +0.000 C 
ATOM     13  C   UNL     1      10.593  11.272  17.914  0.00  0.00    +0.000 C 
ENDBRANCH  11  13
ENDBRANCH  10  11
ENDBRANCH   4  10
ENDBRANCH   1   7
BRANCH   1  14
ATOM     14  C   UNL     1       5.234   5.629  17.765  0.00  0.00    +0.000 A 
ATOM     15  C   UNL     1       4.144   6.500  17.790  0.00  0.00    +0.000 A 
ATOM     16  C   UNL     1       3.158   6.344  18.775  0.00  0.00    +0.000 A 
ATOM     17  C   UNL     1       3.226   5.299  19.705  0.00  0.00    +0.000 A 
ATOM     18  C   UNL     1       4.321   4.434  19.660  0.00  0.00    +0.000 A 
ATOM     19  C   UNL     1       5.304   4.571  18.676  0.00  0.00    +0.000 A 
BRANCH  17  20
ATOM     20  N   UNL     1       2.355   5.268  20.799  0.00  0.00    +0.000 N 
ATOM     21  H   UNL     1       2.804   5.107  21.695  0.00  0.00    +0.000 HD
ATOM     22  H   UNL     1       1.691   6.035  20.827  0.00  0.00    +0.000 HD
ENDBRANCH  17  20
ENDBRANCH   1  14
TORSDOF 6
ENDMDL
MODEL 9
REMARK VINA RESULT:      -7.0      1.806      2.198
REMARK  Name = 
REMARK  7 active torsions:
REMARK  status: ('A' for Active; 'I' for Inactive)
REMARK    1  A    between atoms: C_1  and  C_2
REMARK    2  A    between atoms: C_2  and  C_3
REMARK    3  A    between atoms: C_3  and  C_4
REMARK    4  A    between atoms: C_4  and  N_5
REMARK    5  A    between atoms: N_8  and  S_9
REMARK    6  A    between atoms: S_9  and  C_12
REMARK    7  A    between atoms: C_15  and  N_16
REMARK                            x       y       z     vdW  Elec       q    Type
REMARK                         _______ _______ _______ _____ _____    ______ ____
ROOT
ATOM      1  S   UNL     1       5.903   5.310  16.425  0.00  0.00    +0.000 S 
ATOM      2  O   UNL     1       7.123   4.936  17.117  0.00  0.00    +0.000 OA
ATOM      3  O   UNL     1       5.742   6.652  15.909  0.00  0.00    +0.000 OA
ENDROOT
BRANCH   1   7
ATOM      4  N   UNL     1       6.224   3.320  13.085  0.00  0.00    +0.000 N 
ATOM      5  C   UNL     1       6.517   4.290  14.002  0.00  0.00    +0.000 C 
ATOM      6  O   UNL     1       7.359   5.154  13.798  0.00  0.00    +0.000 OA
ATOM      7  N   UNL     1       5.768   4.225  15.164  0.00  0.00    +0.000 N 
ATOM      8  H   UNL     1       5.603   2.569  13.328  0.00  0.00    +0.000 HD
ATOM      9  H   UNL     1       5.045   3.532  15.306  0.00  0.00    +0.000 HD
BRANCH   4  10
ATOM     10  C   UNL     1       6.873   3.316  11.785  0.00  0.00    +0.000 C 
BRANCH  10  11
ATOM     11  C   UNL     1       7.181   1.912  11.260  0.00  0.00    +0.000 C 
BRANCH  11  13
ATOM     12  C   UNL     1       6.204  -0.411  11.371  0.00  0.00    +0.000 C 
ATOM     13  C   UNL     1       5.923   1.060  11.099  0.00  0.00    +0.000 C 
ENDBRANCH  11  13
ENDBRANCH  10  11
ENDBRANCH   4  10
ENDBRANCH   1   7
BRANCH   1  14
ATOM     14  C   UNL     1       4.547   4.938  17.513  0.00  0.00    +0.000 A 
ATOM     15  C   UNL     1       3.556   4.032  17.131  0.00  0.00    +0.000 A 
ATOM     16  C   UNL     1       2.487   3.769  17.999  0.00  0.00    +0.000 A 
ATOM     17  C   UNL     1       2.423   4.364  19.265  0.00  0.00    +0.000 A 
ATOM     18  C   UNL     1       3.427   5.263  19.633  0.00  0.00    +0.000 A 
ATOM     19  C   UNL     1       4.503   5.525  18.781  0.00  0.00    +0.000 A 
BRANCH  17  20
ATOM     20  N   UNL     1       1.264   4.255  20.041  0.00  0.00    +0.000 N 
ATOM     21  H   UNL     1       0.540   4.930  19.819  0.00  0.00    +0.000 HD
ATOM     22  H   UNL     1       0.904   3.309  20.123  0.00  0.00    +0.000 HD
ENDBRANCH  17  20
ENDBRANCH   1  14
TORSDOF 6
ENDMDL
