MODEL 1
REMARK VINA RESULT:      -8.2      0.000      0.000
REMARK  Name = 
REMARK  9 active torsions:
REMARK  status: ('A' for Active; 'I' for Inactive)
REMARK    1  A    between atoms: C_2  and  C_3
REMARK    2  A    between atoms: C_3  and  N_4
REMARK    3  A    between atoms: N_4  and  C_5
REMARK    4  A    between atoms: N_4  and  C_15
REMARK    5  A    between atoms: C_5  and  C_6
REMARK    6  A    between atoms: C_11  and  O_12
REMARK    7  A    between atoms: C_15  and  C_16
REMARK    8  A    between atoms: C_21  and  O_22
REMARK    9  A    between atoms: N_25  and  O_26
REMARK                            x       y       z     vdW  Elec       q    Type
REMARK                         _______ _______ _______ _____ _____    ______ ____
ROOT
ATOM      1  N   UNL     1       2.253   4.837  17.982  0.00  0.00    +0.000 NA
ENDROOT
BRANCH   1   2
ATOM      2  C   UNL     1       1.329   3.743  18.433  0.00  0.00    +0.000 C 
BRANCH   2   4
ATOM      3  O   UNL     1       2.686   2.245  19.776  0.00  0.00    +0.000 OA
ATOM      4  C   UNL     1       1.760   3.054  19.727  0.00  0.00    +0.000 C 
ATOM      5  N   UNL     1       0.994   3.338  20.825  0.00  0.00    +0.000 N 
ATOM      6  H   UNL     1       0.154   3.905  20.781  0.00  0.00    +0.000 HD
BRANCH   5   7
ATOM      7  O   UNL     1       1.290   2.650  22.020  0.00  0.00    +0.000 OA
ATOM      8  H   UNL     1       0.841   3.202  22.698  0.00  0.00    +0.000 HD
ENDBRANCH   5   7
ENDBRANCH   2   4
ENDBRANCH   1   2
BRANCH   1   9
ATOM      9  C   UNL     1       2.632   5.662  19.168  0.00  0.00    +0.000 C 
BRANCH   9  10
ATOM     10  C   UNL     1       2.209   7.115  19.097  0.00  0.00    +0.000 A 
ATOM     11  C   UNL     1       2.311   7.858  17.910  0.00  0.00    +0.000 A 
ATOM     12  C   UNL     1       1.835   9.173  17.850  0.00  0.00    +0.000 A 
ATOM     13  C   UNL     1       1.253   9.757  18.980  0.00  0.00    +0.000 A 
ATOM     14 CL   UNL     1       0.640  11.366  18.879  0.00  0.00    +0.000 Cl
ATOM     15  C   UNL     1       1.158   9.037  20.168  0.00  0.00    +0.000 A 
ATOM     16  C   UNL     1       1.634   7.727  20.219  0.00  0.00    +0.000 A 
ATOM     17  F   UNL     1       1.531   7.036  21.364  0.00  0.00    +0.000 F 
BRANCH  15  18
ATOM     18  O   UNL     1       0.596   9.578  21.294  0.00  0.00    +0.000 OA
ATOM     19  H   UNL     1      -0.319   9.245  21.360  0.00  0.00    +0.000 HD
ENDBRANCH  15  18
ENDBRANCH   9  10
ENDBRANCH   1   9
BRANCH   1  20
ATOM     20  C   UNL     1       3.496   4.202  17.456  0.00  0.00    +0.000 C 
BRANCH  20  21
ATOM     21  C   UNL     1       4.764   5.009  17.617  0.00  0.00    +0.000 A 
ATOM     22  C   UNL     1       5.088   6.054  16.739  0.00  0.00    +0.000 A 
ATOM     23  C   UNL     1       6.210   6.859  16.974  0.00  0.00    +0.000 A 
ATOM     24  C   UNL     1       7.011   6.630  18.095  0.00  0.00    +0.000 A 
ATOM     25 CL   UNL     1       8.361   7.659  18.394  0.00  0.00    +0.000 Cl
ATOM     26  C   UNL     1       6.710   5.586  18.968  0.00  0.00    +0.000 A 
ATOM     27  C   UNL     1       5.600   4.780  18.721  0.00  0.00    +0.000 A 
ATOM     28  F   UNL     1       5.316   3.774  19.562  0.00  0.00    +0.000 F 
BRANCH  26  29
ATOM     29  O   UNL     1       7.463   5.343  20.085  0.00  0.00    +0.000 OA
ATOM     30  H   UNL     1       7.806   6.198  20.405  0.00  0.00    +0.000 HD
ENDBRANCH  26  29
ENDBRANCH  20  21
ENDBRANCH   1  20
TORSDOF 9
ENDMDL
MODEL 2
REMARK VINA RESULT:      -8.0      1.227      1.547
REMARK  Name = 
REMARK  9 active torsions:
REMARK  status: ('A' for Active; 'I' for Inactive)
REMARK    1  A    between atoms: C_2  and  C_3
REMARK    2  A    between atoms: C_3  and  N_4
REMARK    3  A    between atoms: N_4  and  C_5
REMARK    4  A    between atoms: N_4  and  C_15
REMARK    5  A    between atoms: C_5  and  C_6
REMARK    6  A    between atoms: C_11  and  O_12
REMARK    7  A    between atoms: C_15  and  C_16
REMARK    8  A    between atoms: C_21  and  O_22
REMARK    9  A    between atoms: N_25  and  O_26
REMARK                            x       y       z     vdW  Elec       q    Type
REMARK                         _______ _______ _______ _____ _____    ______ ____
ROOT
ATOM      1  N   UNL     1       2.421   4.948  18.111  0.00  0.00    +0.000 NA
ENDROOT
BRANCH   1   2
ATOM      2  C   UNL     1       1.493   3.843  18.525  0.00  0.00    +0.000 C 
BRANCH   2   4
ATOM      3  O   UNL     1       2.860   2.393  19.912  0.00  0.00    +0.000 OA
ATOM      4  C   UNL     1       1.891   3.148  19.827  0.00  0.00    +0.000 C 
ATOM      5  N   UNL     1       1.049   3.358  20.884  0.00  0.00    +0.000 N 
ATOM      6  H   UNL     1       0.180   3.875  20.803  0.00  0.00    +0.000 HD
BRANCH   5   7
ATOM      7  O   UNL     1       1.317   2.658  22.079  0.00  0.00    +0.000 OA
ATOM      8  H   UNL     1       0.573   2.937  22.657  0.00  0.00    +0.000 HD
ENDBRANCH   5   7
ENDBRANCH   2   4
ENDBRANCH   1   2
BRANCH   1   9
ATOM      9  C   UNL     1       2.812   5.725  19.324  0.00  0.00    +0.000 C 
BRANCH   9  10
ATOM     10  C   UNL     1       2.129   7.069  19.471  0.00  0.00    +0.000 A 
ATOM     11  C   UNL     1       1.502   7.452  20.668  0.00  0.00    +0.000 A 
ATOM     12  C   UNL     1       0.952   8.733  20.805  0.00  0.00    +0.000 A 
ATOM     13  C   UNL     1       1.023   9.641  19.744  0.00  0.00    +0.000 A 
ATOM     14 CL   UNL     1       0.371  11.225  19.941  0.00  0.00    +0.000 Cl
ATOM     15  C   UNL     1       1.630   9.269  18.546  0.00  0.00    +0.000 A 
ATOM     16  C   UNL     1       2.176   7.993  18.418  0.00  0.00    +0.000 A 
ATOM     17  F   UNL     1       2.767   7.644  17.265  0.00  0.00    +0.000 F 
BRANCH  15  18
ATOM     18  O   UNL     1       1.715  10.132  17.486  0.00  0.00    +0.000 OA
ATOM     19  H   UNL     1       1.780  11.038  17.843  0.00  0.00    +0.000 HD
ENDBRANCH  15  18
ENDBRANCH   9  10
ENDBRANCH   1   9
BRANCH   1  20
ATOM     20  C   UNL     1       3.657   4.327  17.552  0.00  0.00    +0.000 C 
BRANCH  20  21
ATOM     21  C   UNL     1       4.926   5.133  17.714  0.00  0.00    +0.000 A 
ATOM     22  C   UNL     1       5.244   6.188  16.846  0.00  0.00    +0.000 A 
ATOM     23  C   UNL     1       6.368   6.990  17.082  0.00  0.00    +0.000 A 
ATOM     24  C   UNL     1       7.176   6.748  18.194  0.00  0.00    +0.000 A 
ATOM     25 CL   UNL     1       8.528   7.774  18.496  0.00  0.00    +0.000 Cl
ATOM     26  C   UNL     1       6.882   5.694  19.057  0.00  0.00    +0.000 A 
ATOM     27  C   UNL     1       5.771   4.891  18.808  0.00  0.00    +0.000 A 
ATOM     28  F   UNL     1       5.493   3.875  19.640  0.00  0.00    +0.000 F 
BRANCH  26  29
ATOM     29  O   UNL     1       7.643   5.437  20.166  0.00  0.00    +0.000 OA
ATOM     30  H   UNL     1       8.580   5.507  19.906  0.00  0.00    +0.000 HD
ENDBRANCH  26  29
ENDBRANCH  20  21
ENDBRANCH   1  20
TORSDOF 9
ENDMDL
MODEL 3
REMARK VINA RESULT:      -7.9      2.957      4.983
REMARK  Name = 
REMARK  9 active torsions:
REMARK  status: ('A' for Active; 'I' for Inactive)
REMARK    1  A    between atoms: C_2  and  C_3
REMARK    2  A    between atoms: C_3  and  N_4
REMARK    3  A    between atoms: N_4  and  C_5
REMARK    4  A    between atoms: N_4  and  C_15
REMARK    5  A    between atoms: C_5  and  C_6
REMARK    6  A    between atoms: C_11  and  O_12
REMARK    7  A    between atoms: C_15  and  C_16
REMARK    8  A    between atoms: C_21  and  O_22
REMARK    9  A    between atoms: N_25  and  O_26
REMARK                            x       y       z     vdW  Elec       q    Type
REMARK                         _______ _______ _______ _____ _____    ______ ____
ROOT
ATOM      1  N   UNL     1       4.334   6.380  17.773  0.00  0.00    +0.000 NA
ENDROOT
BRANCH   1   2
ATOM      2  C   UNL     1       5.591   6.582  16.979  0.00  0.00    +0.000 C 
BRANCH   2   4
ATOM      3  O   UNL     1       7.600   6.574  18.341  0.00  0.00    +0.000 OA
ATOM      4  C   UNL     1       6.834   5.952  17.606  0.00  0.00    +0.000 C 
ATOM      5  N   UNL     1       7.089   4.660  17.231  0.00  0.00    +0.000 N 
ATOM      6  H   UNL     1       6.541   4.170  16.532  0.00  0.00    +0.000 HD
BRANCH   5   7
ATOM      7  O   UNL     1       8.279   4.069  17.703  0.00  0.00    +0.000 OA
ATOM      8  H   UNL     1       8.269   3.192  17.259  0.00  0.00    +0.000 HD
ENDBRANCH   5   7
ENDBRANCH   2   4
ENDBRANCH   1   2
BRANCH   1   9
ATOM      9  C   UNL     1       3.362   7.456  17.416  0.00  0.00    +0.000 C 
BRANCH   9  10
ATOM     10  C   UNL     1       2.457   7.901  18.546  0.00  0.00    +0.000 A 
ATOM     11  C   UNL     1       2.370   7.184  19.750  0.00  0.00    +0.000 A 
ATOM     12  C   UNL     1       1.590   7.664  20.809  0.00  0.00    +0.000 A 
ATOM     13  C   UNL     1       0.889   8.866  20.672  0.00  0.00    +0.000 A 
ATOM     14 CL   UNL     1      -0.039   9.460  21.999  0.00  0.00    +0.000 Cl
ATOM     15  C   UNL     1       0.955   9.581  19.478  0.00  0.00    +0.000 A 
ATOM     16  C   UNL     1       1.734   9.097  18.428  0.00  0.00    +0.000 A 
ATOM     17  F   UNL     1       1.801   9.795  17.284  0.00  0.00    +0.000 F 
BRANCH  15  18
ATOM     18  O   UNL     1       0.279  10.760  19.309  0.00  0.00    +0.000 OA
ATOM     19  H   UNL     1       0.898  11.404  18.916  0.00  0.00    +0.000 HD
ENDBRANCH  15  18
ENDBRANCH   9  10
ENDBRANCH   1   9
BRANCH   1  20
ATOM     20  C   UNL     1       3.735   5.076  17.364  0.00  0.00    +0.000 C 
BRANCH  20  21
ATOM     21  C   UNL     1       3.181   4.227  18.486  0.00  0.00    +0.000 A 
ATOM     22  C   UNL     1       3.988   3.796  19.550  0.00  0.00    +0.000 A 
ATOM     23  C   UNL     1       3.428   3.106  20.632  0.00  0.00    +0.000 A 
ATOM     24  C   UNL     1       2.056   2.850  20.662  0.00  0.00    +0.000 A 
ATOM     25 CL   UNL     1       1.377   2.041  22.025  0.00  0.00    +0.000 Cl
ATOM     26  C   UNL     1       1.245   3.258  19.605  0.00  0.00    +0.000 A 
ATOM     27  C   UNL     1       1.810   3.932  18.525  0.00  0.00    +0.000 A 
ATOM     28  F   UNL     1       1.026   4.320  17.507  0.00  0.00    +0.000 F 
BRANCH  26  29
ATOM     29  O   UNL     1      -0.107   3.038  19.609  0.00  0.00    +0.000 OA
ATOM     30  H   UNL     1      -0.462   3.386  20.447  0.00  0.00    +0.000 HD
ENDBRANCH  26  29
ENDBRANCH  20  21
ENDBRANCH   1  20
TORSDOF 9
ENDMDL
MODEL 4
REMARK VINA RESULT:      -7.9      1.674      5.155
REMARK  Name = 
REMARK  9 active torsions:
REMARK  status: ('A' for Active; 'I' for Inactive)
REMARK    1  A    between atoms: C_2  and  C_3
REMARK    2  A    between atoms: C_3  and  N_4
REMARK    3  A    between atoms: N_4  and  C_5
REMARK    4  A    between atoms: N_4  and  C_15
REMARK    5  A    between atoms: C_5  and  C_6
REMARK    6  A    between atoms: C_11  and  O_12
REMARK    7  A    between atoms: C_15  and  C_16
REMARK    8  A    between atoms: C_21  and  O_22
REMARK    9  A    between atoms: N_25  and  O_26
REMARK                            x       y       z     vdW  Elec       q    Type
REMARK                         _______ _______ _______ _____ _____    ______ ____
ROOT
ATOM      1  N   UNL     1       3.785   4.203  18.450  0.00  0.00    +0.000 NA
ENDROOT
BRANCH   1   2
ATOM      2  C   UNL     1       3.630   2.724  18.656  0.00  0.00    +0.000 C 
BRANCH   2   4
ATOM      3  O   UNL     1       3.201   2.432  21.027  0.00  0.00    +0.000 OA
ATOM      4  C   UNL     1       3.957   2.252  20.072  0.00  0.00    +0.000 C 
ATOM      5  N   UNL     1       5.190   1.681  20.230  0.00  0.00    +0.000 N 
ATOM      6  H   UNL     1       5.876   1.635  19.485  0.00  0.00    +0.000 HD
BRANCH   5   7
ATOM      7  O   UNL     1       5.578   1.322  21.537  0.00  0.00    +0.000 OA
ATOM      8  H   UNL     1       6.103   2.102  21.822  0.00  0.00    +0.000 HD
ENDBRANCH   5   7
ENDBRANCH   2   4
ENDBRANCH   1   2
BRANCH   1   9
ATOM      9  C   UNL     1       4.637   4.432  17.245  0.00  0.00    +0.000 C 
BRANCH   9  10
ATOM     10  C   UNL     1       5.660   5.540  17.386  0.00  0.00    +0.000 A 
ATOM     11  C   UNL     1       5.565   6.732  16.649  0.00  0.00    +0.000 A 
ATOM     12  C   UNL     1       6.477   7.774  16.861  0.00  0.00    +0.000 A 
ATOM     13  C   UNL     1       7.492   7.632  17.812  0.00  0.00    +0.000 A 
ATOM     14 CL   UNL     1       8.584   8.938  18.085  0.00  0.00    +0.000 Cl
ATOM     15  C   UNL     1       7.606   6.450  18.541  0.00  0.00    +0.000 A 
ATOM     16  C   UNL     1       6.694   5.417  18.325  0.00  0.00    +0.000 A 
ATOM     17  F   UNL     1       6.804   4.285  19.036  0.00  0.00    +0.000 F 
BRANCH  15  18
ATOM     18  O   UNL     1       8.589   6.276  19.479  0.00  0.00    +0.000 OA
ATOM     19  H   UNL     1       8.302   6.723  20.297  0.00  0.00    +0.000 HD
ENDBRANCH  15  18
ENDBRANCH   9  10
ENDBRANCH   1   9
BRANCH   1  20
ATOM     20  C   UNL     1       2.436   4.773  18.166  0.00  0.00    +0.000 C 
BRANCH  20  21
ATOM     21  C   UNL     1       2.237   6.217  18.564  0.00  0.00    +0.000 A 
ATOM     22  C   UNL     1       2.149   7.240  17.608  0.00  0.00    +0.000 A 
ATOM     23  C   UNL     1       1.853   8.553  17.995  0.00  0.00    +0.000 A 
ATOM     24  C   UNL     1       1.635   8.851  19.342  0.00  0.00    +0.000 A 
ATOM     25 CL   UNL     1       1.225  10.463  19.795  0.00  0.00    +0.000 Cl
ATOM     26  C   UNL     1       1.734   7.849  20.305  0.00  0.00    +0.000 A 
ATOM     27  C   UNL     1       2.042   6.547  19.915  0.00  0.00    +0.000 A 
ATOM     28  F   UNL     1       2.140   5.586  20.846  0.00  0.00    +0.000 F 
BRANCH  26  29
ATOM     29  O   UNL     1       1.510   8.101  21.632  0.00  0.00    +0.000 OA
ATOM     30  H   UNL     1       1.213   9.027  21.712  0.00  0.00    +0.000 HD
ENDBRANCH  26  29
ENDBRANCH  20  21
ENDBRANCH   1  20
TORSDOF 9
ENDMDL
MODEL 5
REMARK VINA RESULT:      -7.8      3.380      5.964
REMARK  Name = 
REMARK  9 active torsions:
REMARK  status: ('A' for Active; 'I' for Inactive)
REMARK    1  A    between atoms: C_2  and  C_3
REMARK    2  A    between atoms: C_3  and  N_4
REMARK    3  A    between atoms: N_4  and  C_5
REMARK    4  A    between atoms: N_4  and  C_15
REMARK    5  A    between atoms: C_5  and  C_6
REMARK    6  A    between atoms: C_11  and  O_12
REMARK    7  A    between atoms: C_15  and  C_16
REMARK    8  A    between atoms: C_21  and  O_22
REMARK    9  A    between atoms: N_25  and  O_26
REMARK                            x       y       z     vdW  Elec       q    Type
REMARK                         _______ _______ _______ _____ _____    ______ ____
ROOT
ATOM      1  N   UNL     1       4.630   4.718  16.604  0.00  0.00    +0.000 NA
ENDROOT
BRANCH   1   2
ATOM      2  C   UNL     1       5.967   4.123  16.269  0.00  0.00    +0.000 C 
BRANCH   2   4
ATOM      3  O   UNL     1       6.067   4.006  13.847  0.00  0.00    +0.000 OA
ATOM      4  C   UNL     1       6.493   4.508  14.887  0.00  0.00    +0.000 C 
ATOM      5  N   UNL     1       7.533   5.398  14.882  0.00  0.00    +0.000 N 
ATOM      6  H   UNL     1       7.980   5.729  15.730  0.00  0.00    +0.000 HD
BRANCH   5   7
ATOM      7  O   UNL     1       8.119   5.706  13.637  0.00  0.00    +0.000 OA
ATOM      8  H   UNL     1       7.353   6.042  13.121  0.00  0.00    +0.000 HD
ENDBRANCH   5   7
ENDBRANCH   2   4
ENDBRANCH   1   2
BRANCH   1   9
ATOM      9  C   UNL     1       3.604   3.632  16.586  0.00  0.00    +0.000 C 
BRANCH   9  10
ATOM     10  C   UNL     1       3.092   3.213  17.948  0.00  0.00    +0.000 A 
ATOM     11  C   UNL     1       3.921   2.574  18.884  0.00  0.00    +0.000 A 
ATOM     12  C   UNL     1       3.446   2.272  20.166  0.00  0.00    +0.000 A 
ATOM     13  C   UNL     1       2.136   2.608  20.523  0.00  0.00    +0.000 A 
ATOM     14 CL   UNL     1       1.578   2.262  22.117  0.00  0.00    +0.000 Cl
ATOM     15  C   UNL     1       1.299   3.231  19.600  0.00  0.00    +0.000 A 
ATOM     16  C   UNL     1       1.779   3.528  18.325  0.00  0.00    +0.000 A 
ATOM     17  F   UNL     1       0.971   4.135  17.443  0.00  0.00    +0.000 F 
BRANCH  15  18
ATOM     18  O   UNL     1       0.010   3.572  19.914  0.00  0.00    +0.000 OA
ATOM     19  H   UNL     1      -0.577   2.879  19.558  0.00  0.00    +0.000 HD
ENDBRANCH  15  18
ENDBRANCH   9  10
ENDBRANCH   1   9
BRANCH   1  20
ATOM     20  C   UNL     1       4.699   5.252  17.996  0.00  0.00    +0.000 C 
BRANCH  20  21
ATOM     21  C   UNL     1       3.786   6.419  18.296  0.00  0.00    +0.000 A 
ATOM     22  C   UNL     1       3.505   7.401  17.334  0.00  0.00    +0.000 A 
ATOM     23  C   UNL     1       2.571   8.410  17.599  0.00  0.00    +0.000 A 
ATOM     24  C   UNL     1       1.904   8.439  18.825  0.00  0.00    +0.000 A 
ATOM     25 CL   UNL     1       0.722   9.660  19.117  0.00  0.00    +0.000 Cl
ATOM     26  C   UNL     1       2.184   7.479  19.796  0.00  0.00    +0.000 A 
ATOM     27  C   UNL     1       3.125   6.486  19.532  0.00  0.00    +0.000 A 
ATOM     28  F   UNL     1       3.394   5.567  20.471  0.00  0.00    +0.000 F 
BRANCH  26  29
ATOM     29  O   UNL     1       1.537   7.467  21.003  0.00  0.00    +0.000 OA
ATOM     30  H   UNL     1       0.616   7.750  20.850  0.00  0.00    +0.000 HD
ENDBRANCH  26  29
ENDBRANCH  20  21
ENDBRANCH   1  20
TORSDOF 9
ENDMDL
MODEL 6
REMARK VINA RESULT:      -7.8      1.697      1.894
REMARK  Name = 
REMARK  9 active torsions:
REMARK  status: ('A' for Active; 'I' for Inactive)
REMARK    1  A    between atoms: C_2  and  C_3
REMARK    2  A    between atoms: C_3  and  N_4
REMARK    3  A    between atoms: N_4  and  C_5
REMARK    4  A    between atoms: N_4  and  C_15
REMARK    5  A    between atoms: C_5  and  C_6
REMARK    6  A    between atoms: C_11  and  O_12
REMARK    7  A    between atoms: C_15  and  C_16
REMARK    8  A    between atoms: C_21  and  O_22
REMARK    9  A    between atoms: N_25  and  O_26
REMARK                            x       y       z     vdW  Elec       q    Type
REMARK                         _______ _______ _______ _____ _____    ______ ____
ROOT
ATOM      1  N   UNL     1       2.725   5.128  18.561  0.00  0.00    +0.000 NA
ENDROOT
BRANCH   1   2
ATOM      2  C   UNL     1       1.528   4.257  18.809  0.00  0.00    +0.000 C 
BRANCH   2   4
ATOM      3  O   UNL     1       2.076   2.005  19.529  0.00  0.00    +0.000 OA
ATOM      4  C   UNL     1       1.761   3.153  19.840  0.00  0.00    +0.000 C 
ATOM      5  N   UNL     1       1.520   3.505  21.141  0.00  0.00    +0.000 N 
ATOM      6  H   UNL     1       1.142   4.408  21.407  0.00  0.00    +0.000 HD
BRANCH   5   7
ATOM      7  O   UNL     1       1.623   2.494  22.118  0.00  0.00    +0.000 OA
ATOM      8  H   UNL     1       1.884   3.001  22.918  0.00  0.00    +0.000 HD
ENDBRANCH   5   7
ENDBRANCH   2   4
ENDBRANCH   1   2
BRANCH   1   9
ATOM      9  C   UNL     1       2.842   6.112  19.678  0.00  0.00    +0.000 C 
BRANCH   9  10
ATOM     10  C   UNL     1       2.255   7.479  19.391  0.00  0.00    +0.000 A 
ATOM     11  C   UNL     1       2.364   8.078  18.126  0.00  0.00    +0.000 A 
ATOM     12  C   UNL     1       1.739   9.304  17.863  0.00  0.00    +0.000 A 
ATOM     13  C   UNL     1       1.002   9.941  18.865  0.00  0.00    +0.000 A 
ATOM     14 CL   UNL     1       0.210  11.433  18.515  0.00  0.00    +0.000 Cl
ATOM     15  C   UNL     1       0.897   9.365  20.129  0.00  0.00    +0.000 A 
ATOM     16  C   UNL     1       1.521   8.143  20.383  0.00  0.00    +0.000 A 
ATOM     17  F   UNL     1       1.409   7.589  21.599  0.00  0.00    +0.000 F 
BRANCH  15  18
ATOM     18  O   UNL     1       0.184   9.962  21.135  0.00  0.00    +0.000 OA
ATOM     19  H   UNL     1      -0.592  10.395  20.733  0.00  0.00    +0.000 HD
ENDBRANCH  15  18
ENDBRANCH   9  10
ENDBRANCH   1   9
BRANCH   1  20
ATOM     20  C   UNL     1       3.940   4.261  18.593  0.00  0.00    +0.000 C 
BRANCH  20  21
ATOM     21  C   UNL     1       4.895   4.428  17.433  0.00  0.00    +0.000 A 
ATOM     22  C   UNL     1       4.753   3.688  16.250  0.00  0.00    +0.000 A 
ATOM     23  C   UNL     1       5.581   3.940  15.149  0.00  0.00    +0.000 A 
ATOM     24  C   UNL     1       6.552   4.940  15.221  0.00  0.00    +0.000 A 
ATOM     25 CL   UNL     1       7.532   5.269  13.841  0.00  0.00    +0.000 Cl
ATOM     26  C   UNL     1       6.715   5.674  16.395  0.00  0.00    +0.000 A 
ATOM     27  C   UNL     1       5.897   5.409  17.491  0.00  0.00    +0.000 A 
ATOM     28  F   UNL     1       6.060   6.115  18.620  0.00  0.00    +0.000 F 
BRANCH  26  29
ATOM     29  O   UNL     1       7.646   6.674  16.496  0.00  0.00    +0.000 OA
ATOM     30  H   UNL     1       8.233   6.612  15.720  0.00  0.00    +0.000 HD
ENDBRANCH  26  29
ENDBRANCH  20  21
ENDBRANCH   1  20
TORSDOF 9
ENDMDL
MODEL 7
REMARK VINA RESULT:      -7.7      1.269      1.536
REMARK  Name = 
REMARK  9 active torsions:
REMARK  status: ('A' for Active; 'I' for Inactive)
REMARK    1  A    between atoms: C_2  and  C_3
REMARK    2  A    between atoms: C_3  and  N_4
REMARK    3  A    between atoms: N_4  and  C_5
REMARK    4  A    between atoms: N_4  and  C_15
REMARK    5  A    between atoms: C_5  and  C_6
REMARK    6  A    between atoms: C_11  and  O_12
REMARK    7  A    between atoms: C_15  and  C_16
REMARK    8  A    between atoms: C_21  and  O_22
REMARK    9  A    between atoms: N_25  and  O_26
REMARK                            x       y       z     vdW  Elec       q    Type
REMARK                         _______ _______ _______ _____ _____    ______ ____
ROOT
ATOM      1  N   UNL     1       2.971   4.551  17.429  0.00  0.00    +0.000 NA
ENDROOT
BRANCH   1   2
ATOM      2  C   UNL     1       2.091   3.335  17.480  0.00  0.00    +0.000 C 
BRANCH   2   4
ATOM      3  O   UNL     1       2.137   1.908  19.443  0.00  0.00    +0.000 OA
ATOM      4  C   UNL     1       2.634   2.208  18.358  0.00  0.00    +0.000 C 
ATOM      5  N   UNL     1       3.766   1.596  17.893  0.00  0.00    +0.000 N 
ATOM      6  H   UNL     1       4.262   1.909  17.065  0.00  0.00    +0.000 HD
BRANCH   5   7
ATOM      7  O   UNL     1       4.362   0.619  18.716  0.00  0.00    +0.000 OA
ATOM      8  H   UNL     1       3.660   0.448  19.382  0.00  0.00    +0.000 HD
ENDBRANCH   5   7
ENDBRANCH   2   4
ENDBRANCH   1   2
BRANCH   1   9
ATOM      9  C   UNL     1       3.092   5.113  18.807  0.00  0.00    +0.000 C 
BRANCH   9  10
ATOM     10  C   UNL     1       2.587   6.532  18.965  0.00  0.00    +0.000 A 
ATOM     11  C   UNL     1       2.643   7.458  17.911  0.00  0.00    +0.000 A 
ATOM     12  C   UNL     1       2.092   8.738  18.058  0.00  0.00    +0.000 A 
ATOM     13  C   UNL     1       1.482   9.102  19.262  0.00  0.00    +0.000 A 
ATOM     14 CL   UNL     1       0.778  10.669  19.414  0.00  0.00    +0.000 Cl
ATOM     15  C   UNL     1       1.432   8.198  20.321  0.00  0.00    +0.000 A 
ATOM     16  C   UNL     1       1.982   6.926  20.167  0.00  0.00    +0.000 A 
ATOM     17  F   UNL     1       1.922   6.057  21.187  0.00  0.00    +0.000 F 
BRANCH  15  18
ATOM     18  O   UNL     1       0.844   8.522  21.515  0.00  0.00    +0.000 OA
ATOM     19  H   UNL     1       1.344   8.076  22.224  0.00  0.00    +0.000 HD
ENDBRANCH  15  18
ENDBRANCH   9  10
ENDBRANCH   1   9
BRANCH   1  20
ATOM     20  C   UNL     1       4.331   4.117  16.996  0.00  0.00    +0.000 C 
BRANCH  20  21
ATOM     21  C   UNL     1       5.462   5.058  17.344  0.00  0.00    +0.000 A 
ATOM     22  C   UNL     1       5.746   6.188  16.563  0.00  0.00    +0.000 A 
ATOM     23  C   UNL     1       6.725   7.104  16.967  0.00  0.00    +0.000 A 
ATOM     24  C   UNL     1       7.421   6.901  18.161  0.00  0.00    +0.000 A 
ATOM     25 CL   UNL     1       8.589   8.063  18.667  0.00  0.00    +0.000 Cl
ATOM     26  C   UNL     1       7.160   5.775  18.939  0.00  0.00    +0.000 A 
ATOM     27  C   UNL     1       6.195   4.860  18.524  0.00  0.00    +0.000 A 
ATOM     28  F   UNL     1       5.949   3.775  19.275  0.00  0.00    +0.000 F 
BRANCH  26  29
ATOM     29  O   UNL     1       7.811   5.552  20.123  0.00  0.00    +0.000 OA
ATOM     30  H   UNL     1       8.575   6.157  20.161  0.00  0.00    +0.000 HD
ENDBRANCH  26  29
ENDBRANCH  20  21
ENDBRANCH   1  20
TORSDOF 9
ENDMDL
MODEL 8
REMARK VINA RESULT:      -7.7      2.059      2.337
REMARK  Name = 
REMARK  9 active torsions:
REMARK  status: ('A' for Active; 'I' for Inactive)
REMARK    1  A    between atoms: C_2  and  C_3
REMARK    2  A    between atoms: C_3  and  N_4
REMARK    3  A    between atoms: N_4  and  C_5
REMARK    4  A    between atoms: N_4  and  C_15
REMARK    5  A    between atoms: C_5  and  C_6
REMARK    6  A    between atoms: C_11  and  O_12
REMARK    7  A    between atoms: C_15  and  C_16
REMARK    8  A    between atoms: C_21  and  O_22
REMARK    9  A    between atoms: N_25  and  O_26
REMARK                            x       y       z     vdW  Elec       q    Type
REMARK                         _______ _______ _______ _____ _____    ______ ____
ROOT
ATOM      1  N   UNL     1       2.862   5.534  19.013  0.00  0.00    +0.000 NA
ENDROOT
BRANCH   1   2
ATOM      2  C   UNL     1       1.775   4.644  19.541  0.00  0.00    +0.000 C 
BRANCH   2   4
ATOM      3  O   UNL     1       1.162   3.854  17.329  0.00  0.00    +0.000 OA
ATOM      4  C   UNL     1       1.263   3.616  18.532  0.00  0.00    +0.000 C 
ATOM      5  N   UNL     1       0.847   2.427  19.067  0.00  0.00    +0.000 N 
ATOM      6  H   UNL     1       0.806   2.255  20.065  0.00  0.00    +0.000 HD
BRANCH   5   7
ATOM      7  O   UNL     1       0.273   1.485  18.188  0.00  0.00    +0.000 OA
ATOM      8  H   UNL     1      -0.684   1.700  18.245  0.00  0.00    +0.000 HD
ENDBRANCH   5   7
ENDBRANCH   2   4
ENDBRANCH   1   2
BRANCH   1   9
ATOM      9  C   UNL     1       2.985   6.723  19.908  0.00  0.00    +0.000 C 
BRANCH   9  10
ATOM     10  C   UNL     1       2.122   7.906  19.522  0.00  0.00    +0.000 A 
ATOM     11  C   UNL     1       2.055   8.372  18.199  0.00  0.00    +0.000 A 
ATOM     12  C   UNL     1       1.185   9.414  17.855  0.00  0.00    +0.000 A 
ATOM     13  C   UNL     1       0.374   9.999  18.832  0.00  0.00    +0.000 A 
ATOM     14 CL   UNL     1      -0.718  11.256  18.384  0.00  0.00    +0.000 Cl
ATOM     15  C   UNL     1       0.439   9.555  20.151  0.00  0.00    +0.000 A 
ATOM     16  C   UNL     1       1.308   8.517  20.486  0.00  0.00    +0.000 A 
ATOM     17  F   UNL     1       1.360   8.089  21.756  0.00  0.00    +0.000 F 
BRANCH  15  18
ATOM     18  O   UNL     1      -0.339  10.106  21.134  0.00  0.00    +0.000 OA
ATOM     19  H   UNL     1      -0.703   9.377  21.670  0.00  0.00    +0.000 HD
ENDBRANCH  15  18
ENDBRANCH   9  10
ENDBRANCH   1   9
BRANCH   1  20
ATOM     20  C   UNL     1       4.148   4.780  19.081  0.00  0.00    +0.000 C 
BRANCH  20  21
ATOM     21  C   UNL     1       4.955   4.742  17.803  0.00  0.00    +0.000 A 
ATOM     22  C   UNL     1       4.599   3.907  16.733  0.00  0.00    +0.000 A 
ATOM     23  C   UNL     1       5.295   3.971  15.520  0.00  0.00    +0.000 A 
ATOM     24  C   UNL     1       6.347   4.876  15.365  0.00  0.00    +0.000 A 
ATOM     25 CL   UNL     1       7.163   4.974  13.849  0.00  0.00    +0.000 Cl
ATOM     26  C   UNL     1       6.722   5.700  16.424  0.00  0.00    +0.000 A 
ATOM     27  C   UNL     1       6.034   5.622  17.634  0.00  0.00    +0.000 A 
ATOM     28  F   UNL     1       6.401   6.415  18.652  0.00  0.00    +0.000 F 
BRANCH  26  29
ATOM     29  O   UNL     1       7.738   6.611  16.303  0.00  0.00    +0.000 OA
ATOM     30  H   UNL     1       7.364   7.496  16.468  0.00  0.00    +0.000 HD
ENDBRANCH  26  29
ENDBRANCH  20  21
ENDBRANCH   1  20
TORSDOF 9
ENDMDL
MODEL 9
REMARK VINA RESULT:      -7.7      2.241      2.599
REMARK  Name = 
REMARK  9 active torsions:
REMARK  status: ('A' for Active; 'I' for Inactive)
REMARK    1  A    between atoms: C_2  and  C_3
REMARK    2  A    between atoms: C_3  and  N_4
REMARK    3  A    between atoms: N_4  and  C_5
REMARK    4  A    between atoms: N_4  and  C_15
REMARK    5  A    between atoms: C_5  and  C_6
REMARK    6  A    between atoms: C_11  and  O_12
REMARK    7  A    between atoms: C_15  and  C_16
REMARK    8  A    between atoms: C_21  and  O_22
REMARK    9  A    between atoms: N_25  and  O_26
REMARK                            x       y       z     vdW  Elec       q    Type
REMARK                         _______ _______ _______ _____ _____    ______ ____
ROOT
ATOM      1  N   UNL     1       3.112   4.803  18.489  0.00  0.00    +0.000 NA
ENDROOT
BRANCH   1   2
ATOM      2  C   UNL     1       1.937   3.900  18.729  0.00  0.00    +0.000 C 
BRANCH   2   4
ATOM      3  O   UNL     1       0.838   4.002  20.891  0.00  0.00    +0.000 OA
ATOM      4  C   UNL     1       1.731   3.520  20.195  0.00  0.00    +0.000 C 
ATOM      5  N   UNL     1       2.659   2.658  20.713  0.00  0.00    +0.000 N 
ATOM      6  H   UNL     1       3.472   2.345  20.194  0.00  0.00    +0.000 HD
BRANCH   5   7
ATOM      7  O   UNL     1       2.570   2.356  22.088  0.00  0.00    +0.000 OA
ATOM      8  H   UNL     1       1.601   2.391  22.249  0.00  0.00    +0.000 HD
ENDBRANCH   5   7
ENDBRANCH   2   4
ENDBRANCH   1   2
BRANCH   1   9
ATOM      9  C   UNL     1       3.267   5.711  19.664  0.00  0.00    +0.000 C 
BRANCH   9  10
ATOM     10  C   UNL     1       2.428   6.971  19.614  0.00  0.00    +0.000 A 
ATOM     11  C   UNL     1       1.643   7.381  20.703  0.00  0.00    +0.000 A 
ATOM     12  C   UNL     1       0.944   8.594  20.661  0.00  0.00    +0.000 A 
ATOM     13  C   UNL     1       1.025   9.407  19.527  0.00  0.00    +0.000 A 
ATOM     14 CL   UNL     1       0.187  10.914  19.505  0.00  0.00    +0.000 Cl
ATOM     15  C   UNL     1       1.790   9.008  18.433  0.00  0.00    +0.000 A 
ATOM     16  C   UNL     1       2.483   7.799  18.483  0.00  0.00    +0.000 A 
ATOM     17  F   UNL     1       3.225   7.423  17.430  0.00  0.00    +0.000 F 
BRANCH  15  18
ATOM     18  O   UNL     1       1.890   9.779  17.306  0.00  0.00    +0.000 OA
ATOM     19  H   UNL     1       1.732  10.706  17.564  0.00  0.00    +0.000 HD
ENDBRANCH  15  18
ENDBRANCH   9  10
ENDBRANCH   1   9
BRANCH   1  20
ATOM     20  C   UNL     1       4.336   3.955  18.407  0.00  0.00    +0.000 C 
BRANCH  20  21
ATOM     21  C   UNL     1       5.245   4.225  17.230  0.00  0.00    +0.000 A 
ATOM     22  C   UNL     1       5.124   3.512  16.028  0.00  0.00    +0.000 A 
ATOM     23  C   UNL     1       5.902   3.856  14.915  0.00  0.00    +0.000 A 
ATOM     24  C   UNL     1       6.800   4.923  14.994  0.00  0.00    +0.000 A 
ATOM     25 CL   UNL     1       7.715   5.363  13.601  0.00  0.00    +0.000 Cl
ATOM     26  C   UNL     1       6.942   5.630  16.186  0.00  0.00    +0.000 A 
ATOM     27  C   UNL     1       6.175   5.274  17.294  0.00  0.00    +0.000 A 
ATOM     28  F   UNL     1       6.317   5.956  18.440  0.00  0.00    +0.000 F 
BRANCH  26  29
ATOM     29  O   UNL     1       7.800   6.692  16.295  0.00  0.00    +0.000 OA
ATOM     30  H   UNL     1       8.280   6.600  17.139  0.00  0.00    +0.000 HD
ENDBRANCH  26  29
ENDBRANCH  20  21
ENDBRANCH   1  20
TORSDOF 9
ENDMDL
