MODEL 1
REMARK VINA RESULT:      -8.1      0.000      0.000
REMARK  Name = 
REMARK  10 active torsions:
REMARK  status: ('A' for Active; 'I' for Inactive)
REMARK    1  A    between atoms: C_1  and  C_2
REMARK    2  A    between atoms: C_2  and  C_3
REMARK    3  A    between atoms: C_3  and  C_4
REMARK    4  A    between atoms: C_6  and  N_7
REMARK    5  A    between atoms: C_10  and  N_11
REMARK    6  A    between atoms: C_12  and  C_14
REMARK    7  A    between atoms: C_15  and  C_16
REMARK    8  A    between atoms: C_19  and  C_20
REMARK    9  A    between atoms: C_20  and  C_21
REMARK   10  A    between atoms: C_20  and  C_22
REMARK                            x       y       z     vdW  Elec       q    Type
REMARK                         _______ _______ _______ _____ _____    ______ ____
ROOT
ATOM      1  C   UNL     1      -1.242  12.458  22.410  0.00  0.00    +0.000 A 
ATOM      2  C   UNL     1      -1.217  12.689  21.041  0.00  0.00    +0.000 A 
ATOM      3  C   UNL     1      -0.533  11.808  20.218  0.00  0.00    +0.000 A 
ATOM      4  C   UNL     1       0.037  10.656  20.801  0.00  0.00    +0.000 A 
ATOM      5  C   UNL     1       0.696   9.682  20.034  0.00  0.00    +0.000 A 
ATOM      6  C   UNL     1       1.295   8.555  20.586  0.00  0.00    +0.000 A 
ATOM      7  C   UNL     1       1.205   8.379  21.963  0.00  0.00    +0.000 A 
ATOM      8  C   UNL     1       0.538   9.341  22.746  0.00  0.00    +0.000 A 
ATOM      9  C   UNL     1      -0.043  10.482  22.195  0.00  0.00    +0.000 A 
ATOM     10  N   UNL     1      -0.666  11.373  22.986  0.00  0.00    +0.000 NA
ENDROOT
BRANCH   6  11
ATOM     11  N   UNL     1       1.980   7.601  19.791  0.00  0.00    +0.000 N 
ATOM     12  C   UNL     1       2.074   6.253  20.083  0.00  0.00    +0.000 C 
ATOM     13  O   UNL     1       1.564   5.666  21.033  0.00  0.00    +0.000 OA
ATOM     14  H   UNL     1       2.410   7.944  18.944  0.00  0.00    +0.000 HD
BRANCH  12  15
ATOM     15  C   UNL     1       2.891   5.479  19.114  0.00  0.00    +0.000 C 
ATOM     16  C   UNL     1       3.515   6.187  18.159  0.00  0.00    +0.000 C 
BRANCH  16  17
ATOM     17  C   UNL     1       4.374   5.638  17.114  0.00  0.00    +0.000 A 
ATOM     18  C   UNL     1       4.561   4.264  16.950  0.00  0.00    +0.000 A 
ATOM     19  C   UNL     1       5.324   3.780  15.886  0.00  0.00    +0.000 A 
ATOM     20  C   UNL     1       5.899   4.660  14.960  0.00  0.00    +0.000 A 
ATOM     21  C   UNL     1       5.715   6.039  15.135  0.00  0.00    +0.000 A 
ATOM     22  C   UNL     1       4.953   6.521  16.197  0.00  0.00    +0.000 A 
BRANCH  20  23
ATOM     23  C   UNL     1       6.660   4.110  13.769  0.00  0.00    +0.000 C 
ATOM     24  C   UNL     1       5.694   3.551  12.720  0.00  0.00    +0.000 C 
ATOM     25  C   UNL     1       7.594   5.152  13.157  0.00  0.00    +0.000 C 
ENDBRANCH  20  23
ENDBRANCH  16  17
ENDBRANCH  12  15
ENDBRANCH   6  11
BRANCH   3  26
ATOM     26  N   UNL     1      -0.645  11.984  18.824  0.00  0.00    +0.000 N 
ATOM     27  H   UNL     1      -0.037  11.388  18.274  0.00  0.00    +0.000 HD
ATOM     28  H   UNL     1      -1.594  11.972  18.461  0.00  0.00    +0.000 HD
ENDBRANCH   3  26
BRANCH   1  29
ATOM     29  C   UNL     1      -1.976  13.418  23.309  0.00  0.00    +0.000 C 
BRANCH  29  31
ATOM     30  C   UNL     1      -4.045  12.597  24.470  0.00  0.00    +0.000 C 
ATOM     31  C   UNL     1      -3.490  13.243  23.212  0.00  0.00    +0.000 C 
ENDBRANCH  29  31
ENDBRANCH   1  29
TORSDOF 7
ENDMDL
MODEL 2
REMARK VINA RESULT:      -7.7      1.947     11.384
REMARK  Name = 
REMARK  10 active torsions:
REMARK  status: ('A' for Active; 'I' for Inactive)
REMARK    1  A    between atoms: C_1  and  C_2
REMARK    2  A    between atoms: C_2  and  C_3
REMARK    3  A    between atoms: C_3  and  C_4
REMARK    4  A    between atoms: C_6  and  N_7
REMARK    5  A    between atoms: C_10  and  N_11
REMARK    6  A    between atoms: C_12  and  C_14
REMARK    7  A    between atoms: C_15  and  C_16
REMARK    8  A    between atoms: C_19  and  C_20
REMARK    9  A    between atoms: C_20  and  C_21
REMARK   10  A    between atoms: C_20  and  C_22
REMARK                            x       y       z     vdW  Elec       q    Type
REMARK                         _______ _______ _______ _____ _____    ______ ____
ROOT
ATOM      1  C   UNL     1       4.517   5.109  17.937  0.00  0.00    +0.000 A 
ATOM      2  C   UNL     1       4.099   4.541  19.132  0.00  0.00    +0.000 A 
ATOM      3  C   UNL     1       3.233   5.247  19.952  0.00  0.00    +0.000 A 
ATOM      4  C   UNL     1       2.739   6.487  19.490  0.00  0.00    +0.000 A 
ATOM      5  C   UNL     1       1.813   7.241  20.228  0.00  0.00    +0.000 A 
ATOM      6  C   UNL     1       1.336   8.479  19.813  0.00  0.00    +0.000 A 
ATOM      7  C   UNL     1       1.781   8.971  18.590  0.00  0.00    +0.000 A 
ATOM      8  C   UNL     1       2.702   8.222  17.832  0.00  0.00    +0.000 A 
ATOM      9  C   UNL     1       3.197   6.991  18.260  0.00  0.00    +0.000 A 
ATOM     10  N   UNL     1       4.077   6.316  17.500  0.00  0.00    +0.000 NA
ENDROOT
BRANCH   6  11
ATOM     11  N   UNL     1       0.422   9.234  20.592  0.00  0.00    +0.000 N 
ATOM     12  C   UNL     1       0.651   9.651  21.890  0.00  0.00    +0.000 C 
ATOM     13  O   UNL     1       1.668   9.476  22.553  0.00  0.00    +0.000 OA
ATOM     14  H   UNL     1      -0.447   9.492  20.147  0.00  0.00    +0.000 HD
BRANCH  12  15
ATOM     15  C   UNL     1      -0.488  10.383  22.500  0.00  0.00    +0.000 C 
ATOM     16  C   UNL     1      -0.488  11.719  22.353  0.00  0.00    +0.000 C 
BRANCH  16  17
ATOM     17  C   UNL     1      -1.508  12.632  22.858  0.00  0.00    +0.000 A 
ATOM     18  C   UNL     1      -2.775  12.192  23.247  0.00  0.00    +0.000 A 
ATOM     19  C   UNL     1      -3.690  13.087  23.803  0.00  0.00    +0.000 A 
ATOM     20  C   UNL     1      -3.349  14.433  23.995  0.00  0.00    +0.000 A 
ATOM     21  C   UNL     1      -2.079  14.870  23.595  0.00  0.00    +0.000 A 
ATOM     22  C   UNL     1      -1.165  13.976  23.041  0.00  0.00    +0.000 A 
BRANCH  20  23
ATOM     23  C   UNL     1      -4.331  15.370  24.671  0.00  0.00    +0.000 C 
ATOM     24  C   UNL     1      -3.673  16.721  24.969  0.00  0.00    +0.000 C 
ATOM     25  C   UNL     1      -5.607  15.548  23.850  0.00  0.00    +0.000 C 
ENDBRANCH  20  23
ENDBRANCH  16  17
ENDBRANCH  12  15
ENDBRANCH   6  11
BRANCH   3  26
ATOM     26  N   UNL     1       2.711   4.591  21.085  0.00  0.00    +0.000 N 
ATOM     27  H   UNL     1       3.262   4.705  21.929  0.00  0.00    +0.000 HD
ATOM     28  H   UNL     1       1.725   4.759  21.266  0.00  0.00    +0.000 HD
ENDBRANCH   3  26
BRANCH   1  29
ATOM     29  C   UNL     1       5.466   4.348  17.048  0.00  0.00    +0.000 C 
BRANCH  29  31
ATOM     30  C   UNL     1       6.234   3.964  14.690  0.00  0.00    +0.000 C 
ATOM     31  C   UNL     1       5.142   4.547  15.570  0.00  0.00    +0.000 C 
ENDBRANCH  29  31
ENDBRANCH   1  29
TORSDOF 7
ENDMDL
MODEL 3
REMARK VINA RESULT:      -7.7      1.972     11.305
REMARK  Name = 
REMARK  10 active torsions:
REMARK  status: ('A' for Active; 'I' for Inactive)
REMARK    1  A    between atoms: C_1  and  C_2
REMARK    2  A    between atoms: C_2  and  C_3
REMARK    3  A    between atoms: C_3  and  C_4
REMARK    4  A    between atoms: C_6  and  N_7
REMARK    5  A    between atoms: C_10  and  N_11
REMARK    6  A    between atoms: C_12  and  C_14
REMARK    7  A    between atoms: C_15  and  C_16
REMARK    8  A    between atoms: C_19  and  C_20
REMARK    9  A    between atoms: C_20  and  C_21
REMARK   10  A    between atoms: C_20  and  C_22
REMARK                            x       y       z     vdW  Elec       q    Type
REMARK                         _______ _______ _______ _____ _____    ______ ____
ROOT
ATOM      1  C   UNL     1       4.385   5.295  18.108  0.00  0.00    +0.000 A 
ATOM      2  C   UNL     1       3.953   4.677  19.273  0.00  0.00    +0.000 A 
ATOM      3  C   UNL     1       3.056   5.336  20.099  0.00  0.00    +0.000 A 
ATOM      4  C   UNL     1       2.548   6.582  19.671  0.00  0.00    +0.000 A 
ATOM      5  C   UNL     1       1.591   7.291  20.415  0.00  0.00    +0.000 A 
ATOM      6  C   UNL     1       1.098   8.534  20.033  0.00  0.00    +0.000 A 
ATOM      7  C   UNL     1       1.559   9.078  18.839  0.00  0.00    +0.000 A 
ATOM      8  C   UNL     1       2.510   8.375  18.075  0.00  0.00    +0.000 A 
ATOM      9  C   UNL     1       3.021   7.139  18.469  0.00  0.00    +0.000 A 
ATOM     10  N   UNL     1       3.930   6.509  17.705  0.00  0.00    +0.000 NA
ENDROOT
BRANCH   6  11
ATOM     11  N   UNL     1       0.154   9.242  20.819  0.00  0.00    +0.000 N 
ATOM     12  C   UNL     1       0.386   9.711  22.098  0.00  0.00    +0.000 C 
ATOM     13  O   UNL     1       1.431   9.628  22.736  0.00  0.00    +0.000 OA
ATOM     14  H   UNL     1      -0.744   9.424  20.392  0.00  0.00    +0.000 HD
BRANCH  12  15
ATOM     15  C   UNL     1      -0.786  10.376  22.722  0.00  0.00    +0.000 C 
ATOM     16  C   UNL     1      -1.329  11.396  22.037  0.00  0.00    +0.000 C 
BRANCH  16  17
ATOM     17  C   UNL     1      -2.487  12.182  22.453  0.00  0.00    +0.000 A 
ATOM     18  C   UNL     1      -3.360  12.765  21.533  0.00  0.00    +0.000 A 
ATOM     19  C   UNL     1      -4.501  13.437  21.975  0.00  0.00    +0.000 A 
ATOM     20  C   UNL     1      -4.796  13.524  23.342  0.00  0.00    +0.000 A 
ATOM     21  C   UNL     1      -3.911  12.943  24.261  0.00  0.00    +0.000 A 
ATOM     22  C   UNL     1      -2.773  12.271  23.819  0.00  0.00    +0.000 A 
BRANCH  20  23
ATOM     23  C   UNL     1      -6.079  14.193  23.795  0.00  0.00    +0.000 C 
ATOM     24  C   UNL     1      -6.583  15.175  22.735  0.00  0.00    +0.000 C 
ATOM     25  C   UNL     1      -7.157  13.172  24.156  0.00  0.00    +0.000 C 
ENDBRANCH  20  23
ENDBRANCH  16  17
ENDBRANCH  12  15
ENDBRANCH   6  11
BRANCH   3  26
ATOM     26  N   UNL     1       2.524   4.630  21.197  0.00  0.00    +0.000 N 
ATOM     27  H   UNL     1       1.786   5.116  21.692  0.00  0.00    +0.000 HD
ATOM     28  H   UNL     1       2.264   3.666  21.005  0.00  0.00    +0.000 HD
ENDBRANCH   3  26
BRANCH   1  29
ATOM     29  C   UNL     1       5.367   4.585  17.213  0.00  0.00    +0.000 C 
BRANCH  29  31
ATOM     30  C   UNL     1       6.426   4.799  14.948  0.00  0.00    +0.000 C 
ATOM     31  C   UNL     1       5.135   4.915  15.741  0.00  0.00    +0.000 C 
ENDBRANCH  29  31
ENDBRANCH   1  29
TORSDOF 7
ENDMDL
MODEL 4
REMARK VINA RESULT:      -7.6      1.975     11.315
REMARK  Name = 
REMARK  10 active torsions:
REMARK  status: ('A' for Active; 'I' for Inactive)
REMARK    1  A    between atoms: C_1  and  C_2
REMARK    2  A    between atoms: C_2  and  C_3
REMARK    3  A    between atoms: C_3  and  C_4
REMARK    4  A    between atoms: C_6  and  N_7
REMARK    5  A    between atoms: C_10  and  N_11
REMARK    6  A    between atoms: C_12  and  C_14
REMARK    7  A    between atoms: C_15  and  C_16
REMARK    8  A    between atoms: C_19  and  C_20
REMARK    9  A    between atoms: C_20  and  C_21
REMARK   10  A    between atoms: C_20  and  C_22
REMARK                            x       y       z     vdW  Elec       q    Type
REMARK                         _______ _______ _______ _____ _____    ______ ____
ROOT
ATOM      1  C   UNL     1       3.931   5.285  18.000  0.00  0.00    +0.000 A 
ATOM      2  C   UNL     1       3.588   4.731  19.226  0.00  0.00    +0.000 A 
ATOM      3  C   UNL     1       2.821   5.470  20.114  0.00  0.00    +0.000 A 
ATOM      4  C   UNL     1       2.344   6.730  19.693  0.00  0.00    +0.000 A 
ATOM      5  C   UNL     1       1.512   7.520  20.503  0.00  0.00    +0.000 A 
ATOM      6  C   UNL     1       1.055   8.778  20.127  0.00  0.00    +0.000 A 
ATOM      7  C   UNL     1       1.419   9.254  18.872  0.00  0.00    +0.000 A 
ATOM      8  C   UNL     1       2.243   8.471  18.042  0.00  0.00    +0.000 A 
ATOM      9  C   UNL     1       2.720   7.219  18.429  0.00  0.00    +0.000 A 
ATOM     10  N   UNL     1       3.507   6.510  17.600  0.00  0.00    +0.000 NA
ENDROOT
BRANCH   6  11
ATOM     11  N   UNL     1       0.240   9.568  20.978  0.00  0.00    +0.000 N 
ATOM     12  C   UNL     1       0.488   9.795  22.318  0.00  0.00    +0.000 C 
ATOM     13  O   UNL     1       1.448   9.395  22.970  0.00  0.00    +0.000 OA
ATOM     14  H   UNL     1      -0.568  10.002  20.555  0.00  0.00    +0.000 HD
BRANCH  12  15
ATOM     15  C   UNL     1      -0.548  10.616  22.995  0.00  0.00    +0.000 C 
ATOM     16  C   UNL     1      -0.914  11.749  22.373  0.00  0.00    +0.000 C 
BRANCH  16  17
ATOM     17  C   UNL     1      -1.917  12.697  22.849  0.00  0.00    +0.000 A 
ATOM     18  C   UNL     1      -1.579  13.819  23.608  0.00  0.00    +0.000 A 
ATOM     19  C   UNL     1      -2.560  14.744  23.970  0.00  0.00    +0.000 A 
ATOM     20  C   UNL     1      -3.890  14.572  23.567  0.00  0.00    +0.000 A 
ATOM     21  C   UNL     1      -4.225  13.439  22.811  0.00  0.00    +0.000 A 
ATOM     22  C   UNL     1      -3.245  12.516  22.449  0.00  0.00    +0.000 A 
BRANCH  20  23
ATOM     23  C   UNL     1      -4.924  15.627  23.907  0.00  0.00    +0.000 C 
ATOM     24  C   UNL     1      -4.360  16.635  24.912  0.00  0.00    +0.000 C 
ATOM     25  C   UNL     1      -5.451  16.333  22.657  0.00  0.00    +0.000 C 
ENDBRANCH  20  23
ENDBRANCH  16  17
ENDBRANCH  12  15
ENDBRANCH   6  11
BRANCH   3  26
ATOM     26  N   UNL     1       2.367   4.833  21.286  0.00  0.00    +0.000 N 
ATOM     27  H   UNL     1       1.364   4.694  21.328  0.00  0.00    +0.000 HD
ATOM     28  H   UNL     1       2.865   3.983  21.536  0.00  0.00    +0.000 HD
ENDBRANCH   3  26
BRANCH   1  29
ATOM     29  C   UNL     1       4.771   4.488  17.038  0.00  0.00    +0.000 C 
BRANCH  29  31
ATOM     30  C   UNL     1       5.859   5.303  14.928  0.00  0.00    +0.000 C 
ATOM     31  C   UNL     1       5.903   5.323  16.446  0.00  0.00    +0.000 C 
ENDBRANCH  29  31
ENDBRANCH   1  29
TORSDOF 7
ENDMDL
MODEL 5
REMARK VINA RESULT:      -7.5      2.035     11.220
REMARK  Name = 
REMARK  10 active torsions:
REMARK  status: ('A' for Active; 'I' for Inactive)
REMARK    1  A    between atoms: C_1  and  C_2
REMARK    2  A    between atoms: C_2  and  C_3
REMARK    3  A    between atoms: C_3  and  C_4
REMARK    4  A    between atoms: C_6  and  N_7
REMARK    5  A    between atoms: C_10  and  N_11
REMARK    6  A    between atoms: C_12  and  C_14
REMARK    7  A    between atoms: C_15  and  C_16
REMARK    8  A    between atoms: C_19  and  C_20
REMARK    9  A    between atoms: C_20  and  C_21
REMARK   10  A    between atoms: C_20  and  C_22
REMARK                            x       y       z     vdW  Elec       q    Type
REMARK                         _______ _______ _______ _____ _____    ______ ____
ROOT
ATOM      1  C   UNL     1       3.637   4.621  17.867  0.00  0.00    +0.000 A 
ATOM      2  C   UNL     1       3.349   4.110  19.125  0.00  0.00    +0.000 A 
ATOM      3  C   UNL     1       2.787   4.940  20.082  0.00  0.00    +0.000 A 
ATOM      4  C   UNL     1       2.447   6.258  19.704  0.00  0.00    +0.000 A 
ATOM      5  C   UNL     1       1.820   7.147  20.591  0.00  0.00    +0.000 A 
ATOM      6  C   UNL     1       1.504   8.460  20.257  0.00  0.00    +0.000 A 
ATOM      7  C   UNL     1       1.800   8.892  18.968  0.00  0.00    +0.000 A 
ATOM      8  C   UNL     1       2.419   8.009  18.062  0.00  0.00    +0.000 A 
ATOM      9  C   UNL     1       2.756   6.700  18.405  0.00  0.00    +0.000 A 
ATOM     10  N   UNL     1       3.348   5.896  17.505  0.00  0.00    +0.000 NA
ENDROOT
BRANCH   6  11
ATOM     11  N   UNL     1       0.897   9.347  21.182  0.00  0.00    +0.000 N 
ATOM     12  C   UNL     1      -0.257   9.076  21.892  0.00  0.00    +0.000 C 
ATOM     13  O   UNL     1      -0.911   8.038  21.870  0.00  0.00    +0.000 OA
ATOM     14  H   UNL     1       1.364  10.230  21.335  0.00  0.00    +0.000 HD
BRANCH  12  15
ATOM     15  C   UNL     1      -0.711  10.194  22.758  0.00  0.00    +0.000 C 
ATOM     16  C   UNL     1      -1.016  11.346  22.137  0.00  0.00    +0.000 C 
BRANCH  16  17
ATOM     17  C   UNL     1      -1.491  12.565  22.785  0.00  0.00    +0.000 A 
ATOM     18  C   UNL     1      -2.697  12.614  23.485  0.00  0.00    +0.000 A 
ATOM     19  C   UNL     1      -3.071  13.777  24.160  0.00  0.00    +0.000 A 
ATOM     20  C   UNL     1      -2.239  14.904  24.159  0.00  0.00    +0.000 A 
ATOM     21  C   UNL     1      -1.033  14.851  23.447  0.00  0.00    +0.000 A 
ATOM     22  C   UNL     1      -0.659  13.689  22.774  0.00  0.00    +0.000 A 
BRANCH  20  23
ATOM     23  C   UNL     1      -2.630  16.130  24.962  0.00  0.00    +0.000 C 
ATOM     24  C   UNL     1      -1.591  16.420  26.049  0.00  0.00    +0.000 C 
ATOM     25  C   UNL     1      -2.848  17.351  24.069  0.00  0.00    +0.000 C 
ENDBRANCH  20  23
ENDBRANCH  16  17
ENDBRANCH  12  15
ENDBRANCH   6  11
BRANCH   3  26
ATOM     26  N   UNL     1       2.371   4.362  21.298  0.00  0.00    +0.000 N 
ATOM     27  H   UNL     1       1.470   4.684  21.631  0.00  0.00    +0.000 HD
ATOM     28  H   UNL     1       2.436   3.348  21.339  0.00  0.00    +0.000 HD
ENDBRANCH   3  26
BRANCH   1  29
ATOM     29  C   UNL     1       4.257   3.724  16.828  0.00  0.00    +0.000 C 
BRANCH  29  31
ATOM     30  C   UNL     1       5.582   4.490  14.839  0.00  0.00    +0.000 C 
ATOM     31  C   UNL     1       5.599   4.262  16.341  0.00  0.00    +0.000 C 
ENDBRANCH  29  31
ENDBRANCH   1  29
TORSDOF 7
ENDMDL
MODEL 6
REMARK VINA RESULT:      -7.5      3.199      4.392
REMARK  Name = 
REMARK  10 active torsions:
REMARK  status: ('A' for Active; 'I' for Inactive)
REMARK    1  A    between atoms: C_1  and  C_2
REMARK    2  A    between atoms: C_2  and  C_3
REMARK    3  A    between atoms: C_3  and  C_4
REMARK    4  A    between atoms: C_6  and  N_7
REMARK    5  A    between atoms: C_10  and  N_11
REMARK    6  A    between atoms: C_12  and  C_14
REMARK    7  A    between atoms: C_15  and  C_16
REMARK    8  A    between atoms: C_19  and  C_20
REMARK    9  A    between atoms: C_20  and  C_21
REMARK   10  A    between atoms: C_20  and  C_22
REMARK                            x       y       z     vdW  Elec       q    Type
REMARK                         _______ _______ _______ _____ _____    ______ ____
ROOT
ATOM      1  C   UNL     1      -5.505  13.011  19.657  0.00  0.00    +0.000 A 
ATOM      2  C   UNL     1      -4.437  13.410  20.450  0.00  0.00    +0.000 A 
ATOM      3  C   UNL     1      -3.194  12.829  20.255  0.00  0.00    +0.000 A 
ATOM      4  C   UNL     1      -3.044  11.914  19.190  0.00  0.00    +0.000 A 
ATOM      5  C   UNL     1      -1.808  11.325  18.884  0.00  0.00    +0.000 A 
ATOM      6  C   UNL     1      -1.639  10.396  17.862  0.00  0.00    +0.000 A 
ATOM      7  C   UNL     1      -2.750  10.067  17.093  0.00  0.00    +0.000 A 
ATOM      8  C   UNL     1      -3.996  10.658  17.380  0.00  0.00    +0.000 A 
ATOM      9  C   UNL     1      -4.169  11.571  18.419  0.00  0.00    +0.000 A 
ATOM     10  N   UNL     1      -5.380  12.106  18.654  0.00  0.00    +0.000 NA
ENDROOT
BRANCH   6  11
ATOM     11  N   UNL     1      -0.384   9.793  17.593  0.00  0.00    +0.000 N 
ATOM     12  C   UNL     1       0.701   9.817  18.449  0.00  0.00    +0.000 C 
ATOM     13  O   UNL     1       0.748  10.317  19.568  0.00  0.00    +0.000 OA
ATOM     14  H   UNL     1      -0.298   9.300  16.716  0.00  0.00    +0.000 HD
BRANCH  12  15
ATOM     15  C   UNL     1       1.914   9.154  17.906  0.00  0.00    +0.000 C 
ATOM     16  C   UNL     1       2.010   7.829  18.103  0.00  0.00    +0.000 C 
BRANCH  16  17
ATOM     17  C   UNL     1       3.105   6.976  17.649  0.00  0.00    +0.000 A 
ATOM     18  C   UNL     1       4.233   7.491  17.009  0.00  0.00    +0.000 A 
ATOM     19  C   UNL     1       5.293   6.650  16.667  0.00  0.00    +0.000 A 
ATOM     20  C   UNL     1       5.250   5.284  16.973  0.00  0.00    +0.000 A 
ATOM     21  C   UNL     1       4.111   4.771  17.609  0.00  0.00    +0.000 A 
ATOM     22  C   UNL     1       3.053   5.611  17.951  0.00  0.00    +0.000 A 
BRANCH  20  23
ATOM     23  C   UNL     1       6.444   4.403  16.662  0.00  0.00    +0.000 C 
ATOM     24  C   UNL     1       6.882   4.578  15.205  0.00  0.00    +0.000 C 
ATOM     25  C   UNL     1       7.607   4.658  17.621  0.00  0.00    +0.000 C 
ENDBRANCH  20  23
ENDBRANCH  16  17
ENDBRANCH  12  15
ENDBRANCH   6  11
BRANCH   3  26
ATOM     26  N   UNL     1      -2.099  13.354  20.972  0.00  0.00    +0.000 N 
ATOM     27  H   UNL     1      -2.157  13.232  21.977  0.00  0.00    +0.000 HD
ATOM     28  H   UNL     1      -1.184  13.082  20.623  0.00  0.00    +0.000 HD
ENDBRANCH   3  26
BRANCH   1  29
ATOM     29  C   UNL     1      -6.859  13.633  19.872  0.00  0.00    +0.000 C 
BRANCH  29  31
ATOM     30  C   UNL     1      -6.609  15.649  18.397  0.00  0.00    +0.000 C 
ATOM     31  C   UNL     1      -6.799  15.158  19.822  0.00  0.00    +0.000 C 
ENDBRANCH  29  31
ENDBRANCH   1  29
TORSDOF 7
ENDMDL
MODEL 7
REMARK VINA RESULT:      -7.5      1.954     11.181
REMARK  Name = 
REMARK  10 active torsions:
REMARK  status: ('A' for Active; 'I' for Inactive)
REMARK    1  A    between atoms: C_1  and  C_2
REMARK    2  A    between atoms: C_2  and  C_3
REMARK    3  A    between atoms: C_3  and  C_4
REMARK    4  A    between atoms: C_6  and  N_7
REMARK    5  A    between atoms: C_10  and  N_11
REMARK    6  A    between atoms: C_12  and  C_14
REMARK    7  A    between atoms: C_15  and  C_16
REMARK    8  A    between atoms: C_19  and  C_20
REMARK    9  A    between atoms: C_20  and  C_21
REMARK   10  A    between atoms: C_20  and  C_22
REMARK                            x       y       z     vdW  Elec       q    Type
REMARK                         _______ _______ _______ _____ _____    ______ ____
ROOT
ATOM      1  C   UNL     1       5.716   4.465  15.650  0.00  0.00    +0.000 A 
ATOM      2  C   UNL     1       6.352   5.674  15.894  0.00  0.00    +0.000 A 
ATOM      3  C   UNL     1       5.741   6.609  16.715  0.00  0.00    +0.000 A 
ATOM      4  C   UNL     1       4.528   6.251  17.344  0.00  0.00    +0.000 A 
ATOM      5  C   UNL     1       3.871   7.112  18.238  0.00  0.00    +0.000 A 
ATOM      6  C   UNL     1       2.660   6.800  18.845  0.00  0.00    +0.000 A 
ATOM      7  C   UNL     1       2.097   5.558  18.572  0.00  0.00    +0.000 A 
ATOM      8  C   UNL     1       2.749   4.677  17.687  0.00  0.00    +0.000 A 
ATOM      9  C   UNL     1       3.951   5.000  17.060  0.00  0.00    +0.000 A 
ATOM     10  N   UNL     1       4.533   4.126  16.221  0.00  0.00    +0.000 NA
ENDROOT
BRANCH   6  11
ATOM     11  N   UNL     1       2.003   7.701  19.721  0.00  0.00    +0.000 N 
ATOM     12  C   UNL     1       1.381   8.870  19.327  0.00  0.00    +0.000 C 
ATOM     13  O   UNL     1       1.264   9.294  18.182  0.00  0.00    +0.000 OA
ATOM     14  H   UNL     1       1.982   7.447  20.699  0.00  0.00    +0.000 HD
BRANCH  12  15
ATOM     15  C   UNL     1       0.812   9.661  20.448  0.00  0.00    +0.000 C 
ATOM     16  C   UNL     1      -0.115  10.577  20.124  0.00  0.00    +0.000 C 
BRANCH  16  17
ATOM     17  C   UNL     1      -0.812  11.454  21.060  0.00  0.00    +0.000 A 
ATOM     18  C   UNL     1      -1.384  12.663  20.662  0.00  0.00    +0.000 A 
ATOM     19  C   UNL     1      -2.113  13.430  21.573  0.00  0.00    +0.000 A 
ATOM     20  C   UNL     1      -2.295  12.993  22.891  0.00  0.00    +0.000 A 
ATOM     21  C   UNL     1      -1.711  11.782  23.288  0.00  0.00    +0.000 A 
ATOM     22  C   UNL     1      -0.984  11.017  22.377  0.00  0.00    +0.000 A 
BRANCH  20  23
ATOM     23  C   UNL     1      -3.154  13.804  23.842  0.00  0.00    +0.000 C 
ATOM     24  C   UNL     1      -4.000  12.884  24.727  0.00  0.00    +0.000 C 
ATOM     25  C   UNL     1      -2.319  14.765  24.687  0.00  0.00    +0.000 C 
ENDBRANCH  20  23
ENDBRANCH  16  17
ENDBRANCH  12  15
ENDBRANCH   6  11
BRANCH   3  26
ATOM     26  N   UNL     1       6.471   7.763  17.062  0.00  0.00    +0.000 N 
ATOM     27  H   UNL     1       7.465   7.704  16.876  0.00  0.00    +0.000 HD
ATOM     28  H   UNL     1       6.085   8.638  16.718  0.00  0.00    +0.000 HD
ENDBRANCH   3  26
BRANCH   1  29
ATOM     29  C   UNL     1       6.374   3.451  14.751  0.00  0.00    +0.000 C 
BRANCH  29  31
ATOM     30  C   UNL     1       5.697   3.317  12.337  0.00  0.00    +0.000 C 
ATOM     31  C   UNL     1       6.603   4.003  13.346  0.00  0.00    +0.000 C 
ENDBRANCH  29  31
ENDBRANCH   1  29
TORSDOF 7
ENDMDL
MODEL 8
REMARK VINA RESULT:      -7.5      1.922     10.832
REMARK  Name = 
REMARK  10 active torsions:
REMARK  status: ('A' for Active; 'I' for Inactive)
REMARK    1  A    between atoms: C_1  and  C_2
REMARK    2  A    between atoms: C_2  and  C_3
REMARK    3  A    between atoms: C_3  and  C_4
REMARK    4  A    between atoms: C_6  and  N_7
REMARK    5  A    between atoms: C_10  and  N_11
REMARK    6  A    between atoms: C_12  and  C_14
REMARK    7  A    between atoms: C_15  and  C_16
REMARK    8  A    between atoms: C_19  and  C_20
REMARK    9  A    between atoms: C_20  and  C_21
REMARK   10  A    between atoms: C_20  and  C_22
REMARK                            x       y       z     vdW  Elec       q    Type
REMARK                         _______ _______ _______ _____ _____    ______ ____
ROOT
ATOM      1  C   UNL     1       6.053   4.313  14.926  0.00  0.00    +0.000 A 
ATOM      2  C   UNL     1       6.664   5.494  15.327  0.00  0.00    +0.000 A 
ATOM      3  C   UNL     1       6.033   6.300  16.261  0.00  0.00    +0.000 A 
ATOM      4  C   UNL     1       4.828   5.839  16.835  0.00  0.00    +0.000 A 
ATOM      5  C   UNL     1       4.153   6.563  17.831  0.00  0.00    +0.000 A 
ATOM      6  C   UNL     1       2.948   6.148  18.389  0.00  0.00    +0.000 A 
ATOM      7  C   UNL     1       2.412   4.941  17.955  0.00  0.00    +0.000 A 
ATOM      8  C   UNL     1       3.082   4.197  16.965  0.00  0.00    +0.000 A 
ATOM      9  C   UNL     1       4.277   4.624  16.389  0.00  0.00    +0.000 A 
ATOM     10  N   UNL     1       4.877   3.878  15.444  0.00  0.00    +0.000 NA
ENDROOT
BRANCH   6  11
ATOM     11  N   UNL     1       2.273   6.914  19.373  0.00  0.00    +0.000 N 
ATOM     12  C   UNL     1       1.805   6.416  20.575  0.00  0.00    +0.000 C 
ATOM     13  O   UNL     1       1.925   5.269  20.996  0.00  0.00    +0.000 OA
ATOM     14  H   UNL     1       2.147   7.896  19.175  0.00  0.00    +0.000 HD
BRANCH  12  15
ATOM     15  C   UNL     1       1.086   7.415  21.406  0.00  0.00    +0.000 C 
ATOM     16  C   UNL     1       1.036   8.668  20.923  0.00  0.00    +0.000 C 
BRANCH  16  17
ATOM     17  C   UNL     1       0.377   9.803  21.564  0.00  0.00    +0.000 A 
ATOM     18  C   UNL     1       0.452  11.097  21.046  0.00  0.00    +0.000 A 
ATOM     19  C   UNL     1      -0.262  12.136  21.644  0.00  0.00    +0.000 A 
ATOM     20  C   UNL     1      -1.076  11.897  22.759  0.00  0.00    +0.000 A 
ATOM     21  C   UNL     1      -1.141  10.596  23.280  0.00  0.00    +0.000 A 
ATOM     22  C   UNL     1      -0.428   9.559  22.681  0.00  0.00    +0.000 A 
BRANCH  20  23
ATOM     23  C   UNL     1      -1.902  13.024  23.346  0.00  0.00    +0.000 C 
ATOM     24  C   UNL     1      -1.094  14.324  23.385  0.00  0.00    +0.000 C 
ATOM     25  C   UNL     1      -3.219  13.216  22.596  0.00  0.00    +0.000 C 
ENDBRANCH  20  23
ENDBRANCH  16  17
ENDBRANCH  12  15
ENDBRANCH   6  11
BRANCH   3  26
ATOM     26  N   UNL     1       6.738   7.415  16.758  0.00  0.00    +0.000 N 
ATOM     27  H   UNL     1       6.233   8.292  16.703  0.00  0.00    +0.000 HD
ATOM     28  H   UNL     1       7.155   7.288  17.676  0.00  0.00    +0.000 HD
ENDBRANCH   3  26
BRANCH   1  29
ATOM     29  C   UNL     1       6.732   3.439  13.904  0.00  0.00    +0.000 C 
BRANCH  29  31
ATOM     30  C   UNL     1       5.232   3.155  11.911  0.00  0.00    +0.000 C 
ATOM     31  C   UNL     1       6.432   3.895  12.478  0.00  0.00    +0.000 C 
ENDBRANCH  29  31
ENDBRANCH   1  29
TORSDOF 7
ENDMDL
MODEL 9
REMARK VINA RESULT:      -7.4      2.000     11.409
REMARK  Name = 
REMARK  10 active torsions:
REMARK  status: ('A' for Active; 'I' for Inactive)
REMARK    1  A    between atoms: C_1  and  C_2
REMARK    2  A    between atoms: C_2  and  C_3
REMARK    3  A    between atoms: C_3  and  C_4
REMARK    4  A    between atoms: C_6  and  N_7
REMARK    5  A    between atoms: C_10  and  N_11
REMARK    6  A    between atoms: C_12  and  C_14
REMARK    7  A    between atoms: C_15  and  C_16
REMARK    8  A    between atoms: C_19  and  C_20
REMARK    9  A    between atoms: C_20  and  C_21
REMARK   10  A    between atoms: C_20  and  C_22
REMARK                            x       y       z     vdW  Elec       q    Type
REMARK                         _______ _______ _______ _____ _____    ______ ____
ROOT
ATOM      1  C   UNL     1       4.929   4.429  16.875  0.00  0.00    +0.000 A 
ATOM      2  C   UNL     1       4.488   3.735  17.993  0.00  0.00    +0.000 A 
ATOM      3  C   UNL     1       3.726   4.395  18.944  0.00  0.00    +0.000 A 
ATOM      4  C   UNL     1       3.352   5.732  18.689  0.00  0.00    +0.000 A 
ATOM      5  C   UNL     1       2.532   6.457  19.568  0.00  0.00    +0.000 A 
ATOM      6  C   UNL     1       2.177   7.785  19.358  0.00  0.00    +0.000 A 
ATOM      7  C   UNL     1       2.635   8.405  18.200  0.00  0.00    +0.000 A 
ATOM      8  C   UNL     1       3.449   7.689  17.302  0.00  0.00    +0.000 A 
ATOM      9  C   UNL     1       3.825   6.365  17.525  0.00  0.00    +0.000 A 
ATOM     10  N   UNL     1       4.606   5.726  16.637  0.00  0.00    +0.000 NA
ENDROOT
BRANCH   6  11
ATOM     11  N   UNL     1       1.371   8.503  20.277  0.00  0.00    +0.000 N 
ATOM     12  C   UNL     1       0.616   9.616  19.962  0.00  0.00    +0.000 C 
ATOM     13  O   UNL     1       0.490  10.134  18.856  0.00  0.00    +0.000 OA
ATOM     14  H   UNL     1       1.344   8.152  21.225  0.00  0.00    +0.000 HD
BRANCH  12  15
ATOM     15  C   UNL     1      -0.098  10.212  21.120  0.00  0.00    +0.000 C 
ATOM     16  C   UNL     1      -0.295  11.540  21.082  0.00  0.00    +0.000 C 
BRANCH  16  17
ATOM     17  C   UNL     1      -0.979  12.330  22.101  0.00  0.00    +0.000 A 
ATOM     18  C   UNL     1      -0.514  13.581  22.510  0.00  0.00    +0.000 A 
ATOM     19  C   UNL     1      -1.245  14.339  23.427  0.00  0.00    +0.000 A 
ATOM     20  C   UNL     1      -2.461  13.866  23.937  0.00  0.00    +0.000 A 
ATOM     21  C   UNL     1      -2.920  12.605  23.528  0.00  0.00    +0.000 A 
ATOM     22  C   UNL     1      -2.190  11.850  22.613  0.00  0.00    +0.000 A 
BRANCH  20  23
ATOM     23  C   UNL     1      -3.276  14.738  24.872  0.00  0.00    +0.000 C 
ATOM     24  C   UNL     1      -2.398  15.819  25.509  0.00  0.00    +0.000 C 
ATOM     25  C   UNL     1      -4.485  15.354  24.169  0.00  0.00    +0.000 C 
ENDBRANCH  20  23
ENDBRANCH  16  17
ENDBRANCH  12  15
ENDBRANCH   6  11
BRANCH   3  26
ATOM     26  N   UNL     1       3.171   3.633  19.993  0.00  0.00    +0.000 N 
ATOM     27  H   UNL     1       2.198   3.382  19.861  0.00  0.00    +0.000 HD
ATOM     28  H   UNL     1       3.722   2.828  20.280  0.00  0.00    +0.000 HD
ENDBRANCH   3  26
BRANCH   1  29
ATOM     29  C   UNL     1       5.766   3.718  15.844  0.00  0.00    +0.000 C 
BRANCH  29  31
ATOM     30  C   UNL     1       5.999   3.810  13.347  0.00  0.00    +0.000 C 
ATOM     31  C   UNL     1       6.059   4.607  14.639  0.00  0.00    +0.000 C 
ENDBRANCH  29  31
ENDBRANCH   1  29
TORSDOF 7
ENDMDL
