MODEL 1
REMARK VINA RESULT:      -8.0      0.000      0.000
REMARK  Name = 
REMARK  10 active torsions:
REMARK  status: ('A' for Active; 'I' for Inactive)
REMARK    1  A    between atoms: C_1  and  C_2
REMARK    2  A    between atoms: C_2  and  N_3
REMARK    3  A    between atoms: N_3  and  C_4
REMARK    4  A    between atoms: N_3  and  C_6
REMARK    5  A    between atoms: C_4  and  C_5
REMARK    6  A    between atoms: C_6  and  C_7
REMARK    7  A    between atoms: C_7  and  N_8
REMARK    8  A    between atoms: N_8  and  C_9
REMARK    9  A    between atoms: N_12  and  C_13
REMARK   10  A    between atoms: C_25  and  N_26
REMARK                            x       y       z     vdW  Elec       q    Type
REMARK                         _______ _______ _______ _____ _____    ______ ____
ROOT
ATOM      1  C   UNL     1       0.542   9.851  18.667  0.00  0.00    +0.000 A 
ATOM      2  N   UNL     1       1.411   9.030  18.047  0.00  0.00    +0.000 NA
ATOM      3  C   UNL     1       2.032   8.104  18.782  0.00  0.00    +0.000 A 
ATOM      4  N   UNL     1       2.860   7.197  18.129  0.00  0.00    +0.000 N 
ATOM      5  N   UNL     1       1.920   8.015  20.113  0.00  0.00    +0.000 NA
ATOM      6  C   UNL     1       1.154   8.893  20.740  0.00  0.00    +0.000 A 
ATOM      7  C   UNL     1       1.116   8.822  22.131  0.00  0.00    +0.000 A 
ATOM      8  C   UNL     1       0.314   9.683  22.897  0.00  0.00    +0.000 A 
ATOM      9  C   UNL     1      -0.476  10.618  22.240  0.00  0.00    +0.000 A 
ATOM     10  C   UNL     1      -0.469  10.692  20.839  0.00  0.00    +0.000 A 
ATOM     11  C   UNL     1       0.385   9.854  20.070  0.00  0.00    +0.000 A 
ATOM     12  H   UNL     1       3.361   7.635  17.366  0.00  0.00    +0.000 HD
ENDROOT
BRANCH   4  13
ATOM     13  C   UNL     1       3.160   5.878  18.480  0.00  0.00    +0.000 A 
ATOM     14  C   UNL     1       4.467   5.489  18.815  0.00  0.00    +0.000 A 
ATOM     15  C   UNL     1       4.773   4.160  19.123  0.00  0.00    +0.000 A 
ATOM     16  C   UNL     1       3.778   3.187  19.069  0.00  0.00    +0.000 A 
ATOM     17 CL   UNL     1       4.220   1.562  19.450  0.00  0.00    +0.000 Cl
ATOM     18  C   UNL     1       2.476   3.552  18.710  0.00  0.00    +0.000 A 
ATOM     19 CL   UNL     1       1.201   2.392  18.572  0.00  0.00    +0.000 Cl
ATOM     20  C   UNL     1       2.172   4.892  18.428  0.00  0.00    +0.000 A 
ENDBRANCH   4  13
BRANCH   9  21
ATOM     21  N   UNL     1      -1.311  11.539  23.021  0.00  0.00    +0.000 N 
ATOM     22  O   UNL     1      -0.870  12.675  23.244  0.00  0.00    +0.000 OA
ATOM     23  O   UNL     1      -2.401  11.118  23.440  0.00  0.00    +0.000 OA
ENDBRANCH   9  21
BRANCH   1  24
ATOM     24  N   UNL     1      -0.173  10.782  17.873  0.00  0.00    +0.000 N 
ATOM     25  H   UNL     1      -0.255  11.669  18.360  0.00  0.00    +0.000 HD
BRANCH  24  26
ATOM     26  C   UNL     1      -1.536  10.341  17.519  0.00  0.00    +0.000 C 
BRANCH  26  27
ATOM     27  C   UNL     1      -2.531  11.533  17.363  0.00  0.00    +0.000 C 
BRANCH  27  28
ATOM     28  N   UNL     1      -3.434  11.472  16.177  0.00  0.00    +0.000 NA
BRANCH  28  30
ATOM     29  C   UNL     1      -3.855  10.044  14.107  0.00  0.00    +0.000 C 
ATOM     30  C   UNL     1      -2.889  10.530  15.182  0.00  0.00    +0.000 C 
ENDBRANCH  28  30
BRANCH  28  31
ATOM     31  C   UNL     1      -4.819  11.141  16.585  0.00  0.00    +0.000 C 
ATOM     32  C   UNL     1      -5.627  12.257  17.248  0.00  0.00    +0.000 C 
ENDBRANCH  28  31
ENDBRANCH  27  28
ENDBRANCH  26  27
ENDBRANCH  24  26
ENDBRANCH   1  24
TORSDOF 8
ENDMDL
MODEL 2
REMARK VINA RESULT:      -8.0      5.739      9.114
REMARK  Name = 
REMARK  10 active torsions:
REMARK  status: ('A' for Active; 'I' for Inactive)
REMARK    1  A    between atoms: C_1  and  C_2
REMARK    2  A    between atoms: C_2  and  N_3
REMARK    3  A    between atoms: N_3  and  C_4
REMARK    4  A    between atoms: N_3  and  C_6
REMARK    5  A    between atoms: C_4  and  C_5
REMARK    6  A    between atoms: C_6  and  C_7
REMARK    7  A    between atoms: C_7  and  N_8
REMARK    8  A    between atoms: N_8  and  C_9
REMARK    9  A    between atoms: N_12  and  C_13
REMARK   10  A    between atoms: C_25  and  N_26
REMARK                            x       y       z     vdW  Elec       q    Type
REMARK                         _______ _______ _______ _____ _____    ______ ____
ROOT
ATOM      1  C   UNL     1       4.666   4.357  18.556  0.00  0.00    +0.000 A 
ATOM      2  N   UNL     1       4.040   5.004  19.557  0.00  0.00    +0.000 NA
ATOM      3  C   UNL     1       3.591   6.240  19.320  0.00  0.00    +0.000 A 
ATOM      4  N   UNL     1       2.864   6.875  20.321  0.00  0.00    +0.000 N 
ATOM      5  N   UNL     1       3.822   6.908  18.184  0.00  0.00    +0.000 NA
ATOM      6  C   UNL     1       4.536   6.317  17.240  0.00  0.00    +0.000 A 
ATOM      7  C   UNL     1       4.824   7.064  16.100  0.00  0.00    +0.000 A 
ATOM      8  C   UNL     1       5.548   6.528  15.023  0.00  0.00    +0.000 A 
ATOM      9  C   UNL     1       5.970   5.206  15.096  0.00  0.00    +0.000 A 
ATOM     10  C   UNL     1       5.672   4.429  16.226  0.00  0.00    +0.000 A 
ATOM     11  C   UNL     1       4.986   4.992  17.337  0.00  0.00    +0.000 A 
ATOM     12  H   UNL     1       3.224   6.651  21.240  0.00  0.00    +0.000 HD
ENDROOT
BRANCH   4  13
ATOM     13  C   UNL     1       1.854   7.832  20.194  0.00  0.00    +0.000 A 
ATOM     14  C   UNL     1       1.634   8.509  18.984  0.00  0.00    +0.000 A 
ATOM     15  C   UNL     1       0.653   9.497  18.871  0.00  0.00    +0.000 A 
ATOM     16  C   UNL     1      -0.108   9.851  19.983  0.00  0.00    +0.000 A 
ATOM     17 CL   UNL     1      -1.298  11.087  19.784  0.00  0.00    +0.000 Cl
ATOM     18  C   UNL     1       0.116   9.207  21.205  0.00  0.00    +0.000 A 
ATOM     19 CL   UNL     1      -0.753   9.628  22.639  0.00  0.00    +0.000 Cl
ATOM     20  C   UNL     1       1.085   8.198  21.302  0.00  0.00    +0.000 A 
ENDBRANCH   4  13
BRANCH   9  21
ATOM     21  N   UNL     1       6.741   4.629  13.989  0.00  0.00    +0.000 N 
ATOM     22  O   UNL     1       6.320   3.587  13.468  0.00  0.00    +0.000 OA
ATOM     23  O   UNL     1       7.792   5.201  13.655  0.00  0.00    +0.000 OA
ENDBRANCH   9  21
BRANCH   1  24
ATOM     24  N   UNL     1       5.074   3.018  18.784  0.00  0.00    +0.000 N 
ATOM     25  H   UNL     1       5.223   2.541  17.901  0.00  0.00    +0.000 HD
BRANCH  24  26
ATOM     26  C   UNL     1       4.102   2.224  19.560  0.00  0.00    +0.000 C 
BRANCH  26  27
ATOM     27  C   UNL     1       2.804   1.909  18.753  0.00  0.00    +0.000 C 
BRANCH  27  28
ATOM     28  N   UNL     1       1.520   2.252  19.430  0.00  0.00    +0.000 NA
BRANCH  28  30
ATOM     29  C   UNL     1       1.549   3.686  21.537  0.00  0.00    +0.000 C 
ATOM     30  C   UNL     1       1.727   2.318  20.889  0.00  0.00    +0.000 C 
ENDBRANCH  28  30
BRANCH  28  31
ATOM     31  C   UNL     1       0.946   3.499  18.873  0.00  0.00    +0.000 C 
ATOM     32  C   UNL     1       1.399   3.897  17.467  0.00  0.00    +0.000 C 
ENDBRANCH  28  31
ENDBRANCH  27  28
ENDBRANCH  26  27
ENDBRANCH  24  26
ENDBRANCH   1  24
TORSDOF 8
ENDMDL
MODEL 3
REMARK VINA RESULT:      -7.8      0.571      1.481
REMARK  Name = 
REMARK  10 active torsions:
REMARK  status: ('A' for Active; 'I' for Inactive)
REMARK    1  A    between atoms: C_1  and  C_2
REMARK    2  A    between atoms: C_2  and  N_3
REMARK    3  A    between atoms: N_3  and  C_4
REMARK    4  A    between atoms: N_3  and  C_6
REMARK    5  A    between atoms: C_4  and  C_5
REMARK    6  A    between atoms: C_6  and  C_7
REMARK    7  A    between atoms: C_7  and  N_8
REMARK    8  A    between atoms: N_8  and  C_9
REMARK    9  A    between atoms: N_12  and  C_13
REMARK   10  A    between atoms: C_25  and  N_26
REMARK                            x       y       z     vdW  Elec       q    Type
REMARK                         _______ _______ _______ _____ _____    ______ ____
ROOT
ATOM      1  C   UNL     1       0.506   9.995  18.757  0.00  0.00    +0.000 A 
ATOM      2  N   UNL     1       1.379   9.180  18.133  0.00  0.00    +0.000 NA
ATOM      3  C   UNL     1       1.972   8.227  18.857  0.00  0.00    +0.000 A 
ATOM      4  N   UNL     1       2.802   7.326  18.198  0.00  0.00    +0.000 N 
ATOM      5  N   UNL     1       1.829   8.104  20.182  0.00  0.00    +0.000 NA
ATOM      6  C   UNL     1       1.062   8.975  20.816  0.00  0.00    +0.000 A 
ATOM      7  C   UNL     1       0.993   8.869  22.204  0.00  0.00    +0.000 A 
ATOM      8  C   UNL     1       0.186   9.721  22.975  0.00  0.00    +0.000 A 
ATOM      9  C   UNL     1      -0.579  10.683  22.326  0.00  0.00    +0.000 A 
ATOM     10  C   UNL     1      -0.540  10.793  20.928  0.00  0.00    +0.000 A 
ATOM     11  C   UNL     1       0.320   9.964  20.155  0.00  0.00    +0.000 A 
ATOM     12  H   UNL     1       3.325   7.777  17.458  0.00  0.00    +0.000 HD
ENDROOT
BRANCH   4  13
ATOM     13  C   UNL     1       3.078   5.995  18.521  0.00  0.00    +0.000 A 
ATOM     14  C   UNL     1       4.375   5.576  18.855  0.00  0.00    +0.000 A 
ATOM     15  C   UNL     1       4.658   4.235  19.134  0.00  0.00    +0.000 A 
ATOM     16  C   UNL     1       3.646   3.281  19.051  0.00  0.00    +0.000 A 
ATOM     17 CL   UNL     1       4.059   1.640  19.397  0.00  0.00    +0.000 Cl
ATOM     18  C   UNL     1       2.353   3.676  18.692  0.00  0.00    +0.000 A 
ATOM     19 CL   UNL     1       1.060   2.541  18.518  0.00  0.00    +0.000 Cl
ATOM     20  C   UNL     1       2.074   5.026  18.439  0.00  0.00    +0.000 A 
ENDBRANCH   4  13
BRANCH   9  21
ATOM     21  N   UNL     1      -1.418  11.594  23.113  0.00  0.00    +0.000 N 
ATOM     22  O   UNL     1      -2.529  11.189  23.481  0.00  0.00    +0.000 OA
ATOM     23  O   UNL     1      -0.979  12.733  23.341  0.00  0.00    +0.000 OA
ENDBRANCH   9  21
BRANCH   1  24
ATOM     24  N   UNL     1      -0.179  10.957  17.972  0.00  0.00    +0.000 N 
ATOM     25  H   UNL     1      -0.352  11.795  18.517  0.00  0.00    +0.000 HD
BRANCH  24  26
ATOM     26  C   UNL     1      -1.479  10.486  17.455  0.00  0.00    +0.000 C 
BRANCH  26  27
ATOM     27  C   UNL     1      -2.678  11.329  17.990  0.00  0.00    +0.000 C 
BRANCH  27  28
ATOM     28  N   UNL     1      -4.032  10.880  17.552  0.00  0.00    +0.000 NA
BRANCH  28  30
ATOM     29  C   UNL     1      -6.492  11.391  17.983  0.00  0.00    +0.000 C 
ATOM     30  C   UNL     1      -5.053  11.391  18.486  0.00  0.00    +0.000 C 
ENDBRANCH  28  30
BRANCH  28  31
ATOM     31  C   UNL     1      -4.289  11.272  16.147  0.00  0.00    +0.000 C 
ATOM     32  C   UNL     1      -3.825  10.297  15.064  0.00  0.00    +0.000 C 
ENDBRANCH  28  31
ENDBRANCH  27  28
ENDBRANCH  26  27
ENDBRANCH  24  26
ENDBRANCH   1  24
TORSDOF 8
ENDMDL
MODEL 4
REMARK VINA RESULT:      -7.7      0.959      1.511
REMARK  Name = 
REMARK  10 active torsions:
REMARK  status: ('A' for Active; 'I' for Inactive)
REMARK    1  A    between atoms: C_1  and  C_2
REMARK    2  A    between atoms: C_2  and  N_3
REMARK    3  A    between atoms: N_3  and  C_4
REMARK    4  A    between atoms: N_3  and  C_6
REMARK    5  A    between atoms: C_4  and  C_5
REMARK    6  A    between atoms: C_6  and  C_7
REMARK    7  A    between atoms: C_7  and  N_8
REMARK    8  A    between atoms: N_8  and  C_9
REMARK    9  A    between atoms: N_12  and  C_13
REMARK   10  A    between atoms: C_25  and  N_26
REMARK                            x       y       z     vdW  Elec       q    Type
REMARK                         _______ _______ _______ _____ _____    ______ ____
ROOT
ATOM      1  C   UNL     1       0.411   9.849  18.511  0.00  0.00    +0.000 A 
ATOM      2  N   UNL     1       1.216   9.013  17.825  0.00  0.00    +0.000 NA
ATOM      3  C   UNL     1       1.863   8.066  18.509  0.00  0.00    +0.000 A 
ATOM      4  N   UNL     1       2.622   7.146  17.794  0.00  0.00    +0.000 N 
ATOM      5  N   UNL     1       1.842   7.969  19.844  0.00  0.00    +0.000 NA
ATOM      6  C   UNL     1       1.143   8.859  20.529  0.00  0.00    +0.000 A 
ATOM      7  C   UNL     1       1.201   8.778  21.919  0.00  0.00    +0.000 A 
ATOM      8  C   UNL     1       0.475   9.652  22.745  0.00  0.00    +0.000 A 
ATOM      9  C   UNL     1      -0.336  10.611  22.151  0.00  0.00    +0.000 A 
ATOM     10  C   UNL     1      -0.425  10.696  20.753  0.00  0.00    +0.000 A 
ATOM     11  C   UNL     1       0.353   9.845  19.921  0.00  0.00    +0.000 A 
ATOM     12  H   UNL     1       3.078   7.578  17.001  0.00  0.00    +0.000 HD
ENDROOT
BRANCH   4  13
ATOM     13  C   UNL     1       2.913   5.817  18.114  0.00  0.00    +0.000 A 
ATOM     14  C   UNL     1       4.214   5.303  17.991  0.00  0.00    +0.000 A 
ATOM     15  C   UNL     1       4.495   3.962  18.270  0.00  0.00    +0.000 A 
ATOM     16  C   UNL     1       3.467   3.101  18.647  0.00  0.00    +0.000 A 
ATOM     17 CL   UNL     1       3.875   1.453  18.968  0.00  0.00    +0.000 Cl
ATOM     18  C   UNL     1       2.160   3.590  18.748  0.00  0.00    +0.000 A 
ATOM     19 CL   UNL     1       0.826   2.569  19.161  0.00  0.00    +0.000 Cl
ATOM     20  C   UNL     1       1.892   4.942  18.492  0.00  0.00    +0.000 A 
ENDBRANCH   4  13
BRANCH   9  21
ATOM     21  N   UNL     1      -1.092  11.545  22.994  0.00  0.00    +0.000 N 
ATOM     22  O   UNL     1      -2.187  11.173  23.436  0.00  0.00    +0.000 OA
ATOM     23  O   UNL     1      -0.603  12.669  23.193  0.00  0.00    +0.000 OA
ENDBRANCH   9  21
BRANCH   1  24
ATOM     24  N   UNL     1      -0.334  10.804  17.774  0.00  0.00    +0.000 N 
ATOM     25  H   UNL     1      -0.601  11.579  18.373  0.00  0.00    +0.000 HD
BRANCH  24  26
ATOM     26  C   UNL     1      -1.568  10.262  17.174  0.00  0.00    +0.000 C 
BRANCH  26  27
ATOM     27  C   UNL     1      -2.804  10.396  18.117  0.00  0.00    +0.000 C 
BRANCH  27  28
ATOM     28  N   UNL     1      -3.554  11.683  18.024  0.00  0.00    +0.000 NA
BRANCH  28  30
ATOM     29  C   UNL     1      -5.825  12.421  17.132  0.00  0.00    +0.000 C 
ATOM     30  C   UNL     1      -4.554  11.600  16.943  0.00  0.00    +0.000 C 
ENDBRANCH  28  30
BRANCH  28  31
ATOM     31  C   UNL     1      -4.148  12.043  19.332  0.00  0.00    +0.000 C 
ATOM     32  C   UNL     1      -3.313  12.942  20.244  0.00  0.00    +0.000 C 
ENDBRANCH  28  31
ENDBRANCH  27  28
ENDBRANCH  26  27
ENDBRANCH  24  26
ENDBRANCH   1  24
TORSDOF 8
ENDMDL
MODEL 5
REMARK VINA RESULT:      -7.6      1.186      1.853
REMARK  Name = 
REMARK  10 active torsions:
REMARK  status: ('A' for Active; 'I' for Inactive)
REMARK    1  A    between atoms: C_1  and  C_2
REMARK    2  A    between atoms: C_2  and  N_3
REMARK    3  A    between atoms: N_3  and  C_4
REMARK    4  A    between atoms: N_3  and  C_6
REMARK    5  A    between atoms: C_4  and  C_5
REMARK    6  A    between atoms: C_6  and  C_7
REMARK    7  A    between atoms: C_7  and  N_8
REMARK    8  A    between atoms: N_8  and  C_9
REMARK    9  A    between atoms: N_12  and  C_13
REMARK   10  A    between atoms: C_25  and  N_26
REMARK                            x       y       z     vdW  Elec       q    Type
REMARK                         _______ _______ _______ _____ _____    ______ ____
ROOT
ATOM      1  C   UNL     1       0.305  10.767  19.069  0.00  0.00    +0.000 A 
ATOM      2  N   UNL     1       1.193   9.929  18.499  0.00  0.00    +0.000 NA
ATOM      3  C   UNL     1       1.605   8.876  19.211  0.00  0.00    +0.000 A 
ATOM      4  N   UNL     1       2.450   7.960  18.593  0.00  0.00    +0.000 N 
ATOM      5  N   UNL     1       1.268   8.666  20.489  0.00  0.00    +0.000 NA
ATOM      6  C   UNL     1       0.486   9.550  21.087  0.00  0.00    +0.000 A 
ATOM      7  C   UNL     1       0.214   9.345  22.439  0.00  0.00    +0.000 A 
ATOM      8  C   UNL     1      -0.627  10.203  23.165  0.00  0.00    +0.000 A 
ATOM      9  C   UNL     1      -1.218  11.274  22.506  0.00  0.00    +0.000 A 
ATOM     10  C   UNL     1      -0.975  11.486  21.140  0.00  0.00    +0.000 A 
ATOM     11  C   UNL     1      -0.079  10.647  20.421  0.00  0.00    +0.000 A 
ATOM     12  H   UNL     1       3.104   8.419  17.972  0.00  0.00    +0.000 HD
ENDROOT
BRANCH   4  13
ATOM     13  C   UNL     1       2.576   6.589  18.833  0.00  0.00    +0.000 A 
ATOM     14  C   UNL     1       2.126   6.010  20.030  0.00  0.00    +0.000 A 
ATOM     15  C   UNL     1       2.293   4.646  20.286  0.00  0.00    +0.000 A 
ATOM     16  C   UNL     1       2.947   3.840  19.357  0.00  0.00    +0.000 A 
ATOM     17 CL   UNL     1       3.133   2.165  19.735  0.00  0.00    +0.000 Cl
ATOM     18  C   UNL     1       3.428   4.405  18.171  0.00  0.00    +0.000 A 
ATOM     19 CL   UNL     1       4.294   3.479  16.996  0.00  0.00    +0.000 Cl
ATOM     20  C   UNL     1       3.233   5.769  17.911  0.00  0.00    +0.000 A 
ENDBRANCH   4  13
BRANCH   9  21
ATOM     21  N   UNL     1      -2.089  12.192  23.249  0.00  0.00    +0.000 N 
ATOM     22  O   UNL     1      -1.679  13.342  23.456  0.00  0.00    +0.000 OA
ATOM     23  O   UNL     1      -3.178  11.755  23.655  0.00  0.00    +0.000 OA
ENDBRANCH   9  21
BRANCH   1  24
ATOM     24  N   UNL     1      -0.189  11.842  18.285  0.00  0.00    +0.000 N 
ATOM     25  H   UNL     1      -0.028  12.724  18.759  0.00  0.00    +0.000 HD
BRANCH  24  26
ATOM     26  C   UNL     1      -1.632  11.750  17.993  0.00  0.00    +0.000 C 
BRANCH  26  27
ATOM     27  C   UNL     1      -2.062  10.325  17.527  0.00  0.00    +0.000 C 
BRANCH  27  28
ATOM     28  N   UNL     1      -3.351  10.247  16.781  0.00  0.00    +0.000 NA
BRANCH  28  30
ATOM     29  C   UNL     1      -5.243  11.937  17.037  0.00  0.00    +0.000 C 
ATOM     30  C   UNL     1      -4.445  10.775  17.618  0.00  0.00    +0.000 C 
ENDBRANCH  28  30
BRANCH  28  31
ATOM     31  C   UNL     1      -3.245  10.933  15.472  0.00  0.00    +0.000 C 
ATOM     32  C   UNL     1      -3.418  10.066  14.224  0.00  0.00    +0.000 C 
ENDBRANCH  28  31
ENDBRANCH  27  28
ENDBRANCH  26  27
ENDBRANCH  24  26
ENDBRANCH   1  24
TORSDOF 8
ENDMDL
MODEL 6
REMARK VINA RESULT:      -7.5      5.183      8.981
REMARK  Name = 
REMARK  10 active torsions:
REMARK  status: ('A' for Active; 'I' for Inactive)
REMARK    1  A    between atoms: C_1  and  C_2
REMARK    2  A    between atoms: C_2  and  N_3
REMARK    3  A    between atoms: N_3  and  C_4
REMARK    4  A    between atoms: N_3  and  C_6
REMARK    5  A    between atoms: C_4  and  C_5
REMARK    6  A    between atoms: C_6  and  C_7
REMARK    7  A    between atoms: C_7  and  N_8
REMARK    8  A    between atoms: N_8  and  C_9
REMARK    9  A    between atoms: N_12  and  C_13
REMARK   10  A    between atoms: C_25  and  N_26
REMARK                            x       y       z     vdW  Elec       q    Type
REMARK                         _______ _______ _______ _____ _____    ______ ____
ROOT
ATOM      1  C   UNL     1       4.332   6.421  17.649  0.00  0.00    +0.000 A 
ATOM      2  N   UNL     1       3.665   7.578  17.468  0.00  0.00    +0.000 NA
ATOM      3  C   UNL     1       2.598   7.812  18.237  0.00  0.00    +0.000 A 
ATOM      4  N   UNL     1       1.963   9.043  18.117  0.00  0.00    +0.000 N 
ATOM      5  N   UNL     1       2.094   6.920  19.098  0.00  0.00    +0.000 NA
ATOM      6  C   UNL     1       2.679   5.738  19.195  0.00  0.00    +0.000 A 
ATOM      7  C   UNL     1       2.087   4.804  20.044  0.00  0.00    +0.000 A 
ATOM      8  C   UNL     1       2.640   3.530  20.247  0.00  0.00    +0.000 A 
ATOM      9  C   UNL     1       3.823   3.204  19.594  0.00  0.00    +0.000 A 
ATOM     10  C   UNL     1       4.446   4.137  18.752  0.00  0.00    +0.000 A 
ATOM     11  C   UNL     1       3.855   5.407  18.507  0.00  0.00    +0.000 A 
ATOM     12  H   UNL     1       1.957   9.366  17.157  0.00  0.00    +0.000 HD
ENDROOT
BRANCH   4  13
ATOM     13  C   UNL     1       1.258   9.761  19.087  0.00  0.00    +0.000 A 
ATOM     14  C   UNL     1       0.769  11.052  18.831  0.00  0.00    +0.000 A 
ATOM     15  C   UNL     1       0.102  11.786  19.816  0.00  0.00    +0.000 A 
ATOM     16  C   UNL     1      -0.059  11.249  21.092  0.00  0.00    +0.000 A 
ATOM     17 CL   UNL     1      -0.881  12.208  22.270  0.00  0.00    +0.000 Cl
ATOM     18  C   UNL     1       0.447   9.976  21.373  0.00  0.00    +0.000 A 
ATOM     19 CL   UNL     1       0.331   9.267  22.946  0.00  0.00    +0.000 Cl
ATOM     20  C   UNL     1       1.091   9.236  20.371  0.00  0.00    +0.000 A 
ENDBRANCH   4  13
BRANCH   9  21
ATOM     21  N   UNL     1       4.411   1.872  19.779  0.00  0.00    +0.000 N 
ATOM     22  O   UNL     1       5.179   1.704  20.735  0.00  0.00    +0.000 OA
ATOM     23  O   UNL     1       4.128   0.995  18.947  0.00  0.00    +0.000 OA
ENDBRANCH   9  21
BRANCH   1  24
ATOM     24  N   UNL     1       5.508   6.208  16.886  0.00  0.00    +0.000 N 
ATOM     25  H   UNL     1       6.089   7.039  16.897  0.00  0.00    +0.000 HD
BRANCH  24  26
ATOM     26  C   UNL     1       5.248   5.867  15.474  0.00  0.00    +0.000 C 
BRANCH  26  27
ATOM     27  C   UNL     1       5.391   4.339  15.189  0.00  0.00    +0.000 C 
BRANCH  27  28
ATOM     28  N   UNL     1       6.321   3.971  14.082  0.00  0.00    +0.000 NA
BRANCH  28  30
ATOM     29  C   UNL     1       5.815   2.632  11.973  0.00  0.00    +0.000 C 
ATOM     30  C   UNL     1       5.576   3.881  12.813  0.00  0.00    +0.000 C 
ENDBRANCH  28  30
BRANCH  28  31
ATOM     31  C   UNL     1       7.461   4.914  14.015  0.00  0.00    +0.000 C 
ATOM     32  C   UNL     1       7.881   5.389  12.624  0.00  0.00    +0.000 C 
ENDBRANCH  28  31
ENDBRANCH  27  28
ENDBRANCH  26  27
ENDBRANCH  24  26
ENDBRANCH   1  24
TORSDOF 8
ENDMDL
MODEL 7
REMARK VINA RESULT:      -7.4      1.109      1.924
REMARK  Name = 
REMARK  10 active torsions:
REMARK  status: ('A' for Active; 'I' for Inactive)
REMARK    1  A    between atoms: C_1  and  C_2
REMARK    2  A    between atoms: C_2  and  N_3
REMARK    3  A    between atoms: N_3  and  C_4
REMARK    4  A    between atoms: N_3  and  C_6
REMARK    5  A    between atoms: C_4  and  C_5
REMARK    6  A    between atoms: C_6  and  C_7
REMARK    7  A    between atoms: C_7  and  N_8
REMARK    8  A    between atoms: N_8  and  C_9
REMARK    9  A    between atoms: N_12  and  C_13
REMARK   10  A    between atoms: C_25  and  N_26
REMARK                            x       y       z     vdW  Elec       q    Type
REMARK                         _______ _______ _______ _____ _____    ______ ____
ROOT
ATOM      1  C   UNL     1       0.629   9.906  18.620  0.00  0.00    +0.000 A 
ATOM      2  N   UNL     1       1.440   9.070  17.943  0.00  0.00    +0.000 NA
ATOM      3  C   UNL     1       2.025   8.079  18.621  0.00  0.00    +0.000 A 
ATOM      4  N   UNL     1       2.789   7.161  17.909  0.00  0.00    +0.000 N 
ATOM      5  N   UNL     1       1.936   7.935  19.949  0.00  0.00    +0.000 NA
ATOM      6  C   UNL     1       1.232   8.823  20.632  0.00  0.00    +0.000 A 
ATOM      7  C   UNL     1       1.220   8.691  22.020  0.00  0.00    +0.000 A 
ATOM      8  C   UNL     1       0.482   9.557  22.842  0.00  0.00    +0.000 A 
ATOM      9  C   UNL     1      -0.271  10.562  22.246  0.00  0.00    +0.000 A 
ATOM     10  C   UNL     1      -0.289  10.699  20.850  0.00  0.00    +0.000 A 
ATOM     11  C   UNL     1       0.502   9.853  20.024  0.00  0.00    +0.000 A 
ATOM     12  H   UNL     1       3.296   7.605  17.155  0.00  0.00    +0.000 HD
ENDROOT
BRANCH   4  13
ATOM     13  C   UNL     1       3.025   5.813  18.194  0.00  0.00    +0.000 A 
ATOM     14  C   UNL     1       4.329   5.306  18.312  0.00  0.00    +0.000 A 
ATOM     15  C   UNL     1       4.563   3.950  18.553  0.00  0.00    +0.000 A 
ATOM     16  C   UNL     1       3.491   3.066  18.648  0.00  0.00    +0.000 A 
ATOM     17 CL   UNL     1       3.844   1.400  18.937  0.00  0.00    +0.000 Cl
ATOM     18  C   UNL     1       2.185   3.548  18.506  0.00  0.00    +0.000 A 
ATOM     19 CL   UNL     1       0.808   2.503  18.561  0.00  0.00    +0.000 Cl
ATOM     20  C   UNL     1       1.958   4.915  18.290  0.00  0.00    +0.000 A 
ENDBRANCH   4  13
BRANCH   9  21
ATOM     21  N   UNL     1      -1.038  11.489  23.086  0.00  0.00    +0.000 N 
ATOM     22  O   UNL     1      -2.141  11.116  23.505  0.00  0.00    +0.000 OA
ATOM     23  O   UNL     1      -0.550  12.610  23.305  0.00  0.00    +0.000 OA
ENDBRANCH   9  21
BRANCH   1  24
ATOM     24  N   UNL     1      -0.051  10.909  17.884  0.00  0.00    +0.000 N 
ATOM     25  H   UNL     1       0.070  11.813  18.329  0.00  0.00    +0.000 HD
BRANCH  24  26
ATOM     26  C   UNL     1      -1.501  10.670  17.751  0.00  0.00    +0.000 C 
BRANCH  26  27
ATOM     27  C   UNL     1      -2.349  11.949  18.032  0.00  0.00    +0.000 C 
BRANCH  27  28
ATOM     28  N   UNL     1      -3.356  11.833  19.126  0.00  0.00    +0.000 NA
BRANCH  28  30
ATOM     29  C   UNL     1      -1.738  13.560  20.074  0.00  0.00    +0.000 C 
ATOM     30  C   UNL     1      -3.075  12.834  20.172  0.00  0.00    +0.000 C 
ENDBRANCH  28  30
BRANCH  28  31
ATOM     31  C   UNL     1      -4.733  11.933  18.589  0.00  0.00    +0.000 C 
ATOM     32  C   UNL     1      -5.090  10.999  17.431  0.00  0.00    +0.000 C 
ENDBRANCH  28  31
ENDBRANCH  27  28
ENDBRANCH  26  27
ENDBRANCH  24  26
ENDBRANCH   1  24
TORSDOF 8
ENDMDL
MODEL 8
REMARK VINA RESULT:      -7.4      5.296      8.993
REMARK  Name = 
REMARK  10 active torsions:
REMARK  status: ('A' for Active; 'I' for Inactive)
REMARK    1  A    between atoms: C_1  and  C_2
REMARK    2  A    between atoms: C_2  and  N_3
REMARK    3  A    between atoms: N_3  and  C_4
REMARK    4  A    between atoms: N_3  and  C_6
REMARK    5  A    between atoms: C_4  and  C_5
REMARK    6  A    between atoms: C_6  and  C_7
REMARK    7  A    between atoms: C_7  and  N_8
REMARK    8  A    between atoms: N_8  and  C_9
REMARK    9  A    between atoms: N_12  and  C_13
REMARK   10  A    between atoms: C_25  and  N_26
REMARK                            x       y       z     vdW  Elec       q    Type
REMARK                         _______ _______ _______ _____ _____    ______ ____
ROOT
ATOM      1  C   UNL     1       4.267   6.110  18.176  0.00  0.00    +0.000 A 
ATOM      2  N   UNL     1       3.517   7.220  18.038  0.00  0.00    +0.000 NA
ATOM      3  C   UNL     1       2.481   7.383  18.864  0.00  0.00    +0.000 A 
ATOM      4  N   UNL     1       1.761   8.570  18.785  0.00  0.00    +0.000 N 
ATOM      5  N   UNL     1       2.084   6.459  19.747  0.00  0.00    +0.000 NA
ATOM      6  C   UNL     1       2.750   5.317  19.806  0.00  0.00    +0.000 A 
ATOM      7  C   UNL     1       2.268   4.345  20.681  0.00  0.00    +0.000 A 
ATOM      8  C   UNL     1       2.913   3.110  20.848  0.00  0.00    +0.000 A 
ATOM      9  C   UNL     1       4.077   2.863  20.130  0.00  0.00    +0.000 A 
ATOM     10  C   UNL     1       4.592   3.837  19.260  0.00  0.00    +0.000 A 
ATOM     11  C   UNL     1       3.905   5.066  19.053  0.00  0.00    +0.000 A 
ATOM     12  H   UNL     1       1.681   8.893  17.829  0.00  0.00    +0.000 HD
ENDROOT
BRANCH   4  13
ATOM     13  C   UNL     1       1.064   9.239  19.795  0.00  0.00    +0.000 A 
ATOM     14  C   UNL     1       1.255   8.922  21.150  0.00  0.00    +0.000 A 
ATOM     15  C   UNL     1       0.524   9.561  22.156  0.00  0.00    +0.000 A 
ATOM     16  C   UNL     1      -0.438  10.510  21.819  0.00  0.00    +0.000 A 
ATOM     17 CL   UNL     1      -1.316  11.257  23.106  0.00  0.00    +0.000 Cl
ATOM     18  C   UNL     1      -0.662  10.818  20.473  0.00  0.00    +0.000 A 
ATOM     19 CL   UNL     1      -1.875  11.946  19.977  0.00  0.00    +0.000 Cl
ATOM     20  C   UNL     1       0.093  10.191  19.472  0.00  0.00    +0.000 A 
ENDBRANCH   4  13
BRANCH   9  21
ATOM     21  N   UNL     1       4.760   1.573  20.276  0.00  0.00    +0.000 N 
ATOM     22  O   UNL     1       5.396   1.367  21.318  0.00  0.00    +0.000 OA
ATOM     23  O   UNL     1       4.687   0.769  19.332  0.00  0.00    +0.000 OA
ENDBRANCH   9  21
BRANCH   1  24
ATOM     24  N   UNL     1       5.412   5.975  17.349  0.00  0.00    +0.000 N 
ATOM     25  H   UNL     1       6.070   6.724  17.537  0.00  0.00    +0.000 HD
BRANCH  24  26
ATOM     26  C   UNL     1       5.109   6.001  15.905  0.00  0.00    +0.000 C 
BRANCH  26  27
ATOM     27  C   UNL     1       5.369   4.627  15.213  0.00  0.00    +0.000 C 
BRANCH  27  28
ATOM     28  N   UNL     1       6.030   4.689  13.877  0.00  0.00    +0.000 NA
BRANCH  28  30
ATOM     29  C   UNL     1       8.180   5.501  12.772  0.00  0.00    +0.000 C 
ATOM     30  C   UNL     1       7.445   5.075  14.038  0.00  0.00    +0.000 C 
ENDBRANCH  28  30
BRANCH  28  31
ATOM     31  C   UNL     1       5.862   3.412  13.145  0.00  0.00    +0.000 C 
ATOM     32  C   UNL     1       4.908   3.424  11.950  0.00  0.00    +0.000 C 
ENDBRANCH  28  31
ENDBRANCH  27  28
ENDBRANCH  26  27
ENDBRANCH  24  26
ENDBRANCH   1  24
TORSDOF 8
ENDMDL
MODEL 9
REMARK VINA RESULT:      -7.4      0.984      1.598
REMARK  Name = 
REMARK  10 active torsions:
REMARK  status: ('A' for Active; 'I' for Inactive)
REMARK    1  A    between atoms: C_1  and  C_2
REMARK    2  A    between atoms: C_2  and  N_3
REMARK    3  A    between atoms: N_3  and  C_4
REMARK    4  A    between atoms: N_3  and  C_6
REMARK    5  A    between atoms: C_4  and  C_5
REMARK    6  A    between atoms: C_6  and  C_7
REMARK    7  A    between atoms: C_7  and  N_8
REMARK    8  A    between atoms: N_8  and  C_9
REMARK    9  A    between atoms: N_12  and  C_13
REMARK   10  A    between atoms: C_25  and  N_26
REMARK                            x       y       z     vdW  Elec       q    Type
REMARK                         _______ _______ _______ _____ _____    ______ ____
ROOT
ATOM      1  C   UNL     1       0.383  10.551  18.908  0.00  0.00    +0.000 A 
ATOM      2  N   UNL     1       1.249   9.747  18.262  0.00  0.00    +0.000 NA
ATOM      3  C   UNL     1       1.745   8.699  18.925  0.00  0.00    +0.000 A 
ATOM      4  N   UNL     1       2.567   7.817  18.234  0.00  0.00    +0.000 N 
ATOM      5  N   UNL     1       1.514   8.465  20.223  0.00  0.00    +0.000 NA
ATOM      6  C   UNL     1       0.754   9.318  20.890  0.00  0.00    +0.000 A 
ATOM      7  C   UNL     1       0.593   9.090  22.256  0.00  0.00    +0.000 A 
ATOM      8  C   UNL     1      -0.216   9.912  23.056  0.00  0.00    +0.000 A 
ATOM      9  C   UNL     1      -0.887  10.972  22.458  0.00  0.00    +0.000 A 
ATOM     10  C   UNL     1      -0.755  11.207  21.081  0.00  0.00    +0.000 A 
ATOM     11  C   UNL     1       0.107  10.404  20.284  0.00  0.00    +0.000 A 
ATOM     12  H   UNL     1       3.158   8.302  17.571  0.00  0.00    +0.000 HD
ENDROOT
BRANCH   4  13
ATOM     13  C   UNL     1       2.753   6.447  18.444  0.00  0.00    +0.000 A 
ATOM     14  C   UNL     1       3.640   5.699  17.655  0.00  0.00    +0.000 A 
ATOM     15  C   UNL     1       3.791   4.321  17.839  0.00  0.00    +0.000 A 
ATOM     16  C   UNL     1       3.028   3.661  18.798  0.00  0.00    +0.000 A 
ATOM     17 CL   UNL     1       3.251   1.956  18.970  0.00  0.00    +0.000 Cl
ATOM     18  C   UNL     1       2.118   4.386  19.575  0.00  0.00    +0.000 A 
ATOM     19 CL   UNL     1       1.100   3.626  20.748  0.00  0.00    +0.000 Cl
ATOM     20  C   UNL     1       1.992   5.772  19.402  0.00  0.00    +0.000 A 
ENDBRANCH   4  13
BRANCH   9  21
ATOM     21  N   UNL     1      -1.726  11.855  23.277  0.00  0.00    +0.000 N 
ATOM     22  O   UNL     1      -1.243  12.932  23.652  0.00  0.00    +0.000 OA
ATOM     23  O   UNL     1      -2.864  11.458  23.575  0.00  0.00    +0.000 OA
ENDBRANCH   9  21
BRANCH   1  24
ATOM     24  N   UNL     1      -0.201  11.619  18.179  0.00  0.00    +0.000 N 
ATOM     25  H   UNL     1      -0.574  12.315  18.816  0.00  0.00    +0.000 HD
BRANCH  24  26
ATOM     26  C   UNL     1      -1.299  11.199  17.287  0.00  0.00    +0.000 C 
BRANCH  26  27
ATOM     27  C   UNL     1      -2.705  11.375  17.941  0.00  0.00    +0.000 C 
BRANCH  27  28
ATOM     28  N   UNL     1      -3.839  10.723  17.225  0.00  0.00    +0.000 NA
BRANCH  28  30
ATOM     29  C   UNL     1      -5.827  12.303  17.458  0.00  0.00    +0.000 C 
ATOM     30  C   UNL     1      -5.108  11.037  17.910  0.00  0.00    +0.000 C 
ENDBRANCH  28  30
BRANCH  28  31
ATOM     31  C   UNL     1      -3.849  11.104  15.794  0.00  0.00    +0.000 C 
ATOM     32  C   UNL     1      -3.513  10.004  14.786  0.00  0.00    +0.000 C 
ENDBRANCH  28  31
ENDBRANCH  27  28
ENDBRANCH  26  27
ENDBRANCH  24  26
ENDBRANCH   1  24
TORSDOF 8
ENDMDL
