MODEL 1
REMARK VINA RESULT:      -9.3      0.000      0.000
REMARK  Name = 
REMARK  6 active torsions:
REMARK  status: ('A' for Active; 'I' for Inactive)
REMARK    1  A    between atoms: C_1  and  C_2
REMARK    2  A    between atoms: C_5  and  C_6
REMARK    3  A    between atoms: C_12  and  C_13
REMARK    4  A    between atoms: C_15  and  C_16
REMARK    5  A    between atoms: C_16  and  C_17
REMARK    6  A    between atoms: N_26  and  C_27
REMARK                            x       y       z     vdW  Elec       q    Type
REMARK                         _______ _______ _______ _____ _____    ______ ____
ROOT
ATOM      1  C   UNL     1       2.236   4.363  17.910  0.00  0.00    +0.000 C 
ATOM      2  C   UNL     1       1.727   2.888  18.258  0.00  0.00    +0.000 C 
ATOM      3  C   UNL     1       2.193   2.277  19.636  0.00  0.00    +0.000 C 
ATOM      4  C   UNL     1       1.395   2.503  20.916  0.00  0.00    +0.000 C 
ATOM      5  C   UNL     1       1.774   3.919  21.399  0.00  0.00    +0.000 C 
ATOM      6  C   UNL     1       2.830   4.380  20.366  0.00  0.00    +0.000 C 
ATOM      7  C   UNL     1       1.990   5.106  19.225  0.00  0.00    +0.000 C 
ATOM      8  N   UNL     1       3.347   3.006  20.108  0.00  0.00    +0.000 NA
ATOM      9  C   UNL     1       4.570   2.619  19.447  0.00  0.00    +0.000 C 
ENDROOT
BRANCH   1  14
ATOM     10  C   UNL     1       7.187   5.334  14.943  0.00  0.00    +0.000 C 
ATOM     11  C   UNL     1       6.061   5.062  15.892  0.00  0.00    +0.000 A 
ATOM     12  C   UNL     1       5.541   6.019  16.774  0.00  0.00    +0.000 A 
ATOM     13  C   UNL     1       4.360   5.772  17.510  0.00  0.00    +0.000 A 
ATOM     14  C   UNL     1       3.668   4.565  17.356  0.00  0.00    +0.000 A 
ATOM     15  C   UNL     1       4.318   3.569  16.590  0.00  0.00    +0.000 A 
ATOM     16  C   UNL     1       5.470   3.813  15.855  0.00  0.00    +0.000 A 
ENDBRANCH   1  14
BRANCH   7  17
ATOM     17  C   UNL     1       2.022   6.615  19.130  0.00  0.00    +0.000 A 
ATOM     18  C   UNL     1       2.018   7.496  18.064  0.00  0.00    +0.000 A 
ATOM     19  C   UNL     1       1.867   8.782  18.649  0.00  0.00    +0.000 A 
ATOM     20  N   UNL     1       1.878   8.688  19.987  0.00  0.00    +0.000 NA
ATOM     21  O   UNL     1       1.967   7.338  20.281  0.00  0.00    +0.000 OA
BRANCH  19  22
ATOM     22  C   UNL     1       1.469  10.062  17.987  0.00  0.00    +0.000 C 
BRANCH  22  23
ATOM     23  C   UNL     1       0.039  10.437  18.300  0.00  0.00    +0.000 A 
ATOM     24  C   UNL     1      -0.226  11.545  19.130  0.00  0.00    +0.000 A 
ATOM     25  C   UNL     1      -1.525  12.033  19.302  0.00  0.00    +0.000 A 
ATOM     26  C   UNL     1      -2.574  11.419  18.628  0.00  0.00    +0.000 A 
ATOM     27  F   UNL     1      -3.821  11.885  18.791  0.00  0.00    +0.000 F 
ATOM     28  C   UNL     1      -2.345  10.324  17.805  0.00  0.00    +0.000 A 
ATOM     29  C   UNL     1      -1.041   9.838  17.635  0.00  0.00    +0.000 A 
ENDBRANCH  22  23
ENDBRANCH  19  22
ENDBRANCH   7  17
TORSDOF 4
ENDMDL
MODEL 2
REMARK VINA RESULT:      -9.3      1.150      1.457
REMARK  Name = 
REMARK  6 active torsions:
REMARK  status: ('A' for Active; 'I' for Inactive)
REMARK    1  A    between atoms: C_1  and  C_2
REMARK    2  A    between atoms: C_5  and  C_6
REMARK    3  A    between atoms: C_12  and  C_13
REMARK    4  A    between atoms: C_15  and  C_16
REMARK    5  A    between atoms: C_16  and  C_17
REMARK    6  A    between atoms: N_26  and  C_27
REMARK                            x       y       z     vdW  Elec       q    Type
REMARK                         _______ _______ _______ _____ _____    ______ ____
ROOT
ATOM      1  C   UNL     1       2.783   4.649  17.567  0.00  0.00    +0.000 C 
ATOM      2  C   UNL     1       2.244   3.148  17.440  0.00  0.00    +0.000 C 
ATOM      3  C   UNL     1       2.140   2.310  18.772  0.00  0.00    +0.000 C 
ATOM      4  C   UNL     1       0.883   2.342  19.635  0.00  0.00    +0.000 C 
ATOM      5  C   UNL     1       0.970   3.651  20.448  0.00  0.00    +0.000 C 
ATOM      6  C   UNL     1       2.331   4.249  20.022  0.00  0.00    +0.000 C 
ATOM      7  C   UNL     1       1.993   5.171  18.769  0.00  0.00    +0.000 C 
ATOM      8  N   UNL     1       2.970   2.924  19.782  0.00  0.00    +0.000 NA
ATOM      9  C   UNL     1       4.372   2.622  19.622  0.00  0.00    +0.000 C 
ENDROOT
BRANCH   1  14
ATOM     10  C   UNL     1       8.523   4.873  18.692  0.00  0.00    +0.000 C 
ATOM     11  C   UNL     1       7.099   4.977  18.236  0.00  0.00    +0.000 A 
ATOM     12  C   UNL     1       6.608   4.358  17.079  0.00  0.00    +0.000 A 
ATOM     13  C   UNL     1       5.224   4.328  16.796  0.00  0.00    +0.000 A 
ATOM     14  C   UNL     1       4.307   4.904  17.683  0.00  0.00    +0.000 A 
ATOM     15  C   UNL     1       4.857   5.661  18.743  0.00  0.00    +0.000 A 
ATOM     16  C   UNL     1       6.215   5.680  19.032  0.00  0.00    +0.000 A 
ENDBRANCH   1  14
BRANCH   7  17
ATOM     17  C   UNL     1       1.992   6.675  18.936  0.00  0.00    +0.000 A 
ATOM     18  C   UNL     1       2.074   7.726  18.041  0.00  0.00    +0.000 A 
ATOM     19  C   UNL     1       1.827   8.891  18.818  0.00  0.00    +0.000 A 
ATOM     20  N   UNL     1       1.703   8.567  20.114  0.00  0.00    +0.000 NA
ATOM     21  O   UNL     1       1.798   7.188  20.181  0.00  0.00    +0.000 OA
BRANCH  19  22
ATOM     22  C   UNL     1       1.464  10.262  18.345  0.00  0.00    +0.000 C 
BRANCH  22  23
ATOM     23  C   UNL     1      -0.015  10.535  18.490  0.00  0.00    +0.000 A 
ATOM     24  C   UNL     1      -0.451  11.600  19.303  0.00  0.00    +0.000 A 
ATOM     25  C   UNL     1      -1.792  11.999  19.327  0.00  0.00    +0.000 A 
ATOM     26  C   UNL     1      -2.709  11.336  18.521  0.00  0.00    +0.000 A 
ATOM     27  F   UNL     1      -3.995  11.715  18.541  0.00  0.00    +0.000 F 
ATOM     28  C   UNL     1      -2.310  10.280  17.711  0.00  0.00    +0.000 A 
ATOM     29  C   UNL     1      -0.966   9.884  17.690  0.00  0.00    +0.000 A 
ENDBRANCH  22  23
ENDBRANCH  19  22
ENDBRANCH   7  17
TORSDOF 4
ENDMDL
MODEL 3
REMARK VINA RESULT:      -8.8      0.506      1.341
REMARK  Name = 
REMARK  6 active torsions:
REMARK  status: ('A' for Active; 'I' for Inactive)
REMARK    1  A    between atoms: C_1  and  C_2
REMARK    2  A    between atoms: C_5  and  C_6
REMARK    3  A    between atoms: C_12  and  C_13
REMARK    4  A    between atoms: C_15  and  C_16
REMARK    5  A    between atoms: C_16  and  C_17
REMARK    6  A    between atoms: N_26  and  C_27
REMARK                            x       y       z     vdW  Elec       q    Type
REMARK                         _______ _______ _______ _____ _____    ______ ____
ROOT
ATOM      1  C   UNL     1       2.025   4.521  18.138  0.00  0.00    +0.000 C 
ATOM      2  C   UNL     1       1.520   3.041  18.471  0.00  0.00    +0.000 C 
ATOM      3  C   UNL     1       2.068   2.378  19.793  0.00  0.00    +0.000 C 
ATOM      4  C   UNL     1       1.360   2.570  21.130  0.00  0.00    +0.000 C 
ATOM      5  C   UNL     1       1.790   3.964  21.634  0.00  0.00    +0.000 C 
ATOM      6  C   UNL     1       2.782   4.448  20.549  0.00  0.00    +0.000 C 
ATOM      7  C   UNL     1       1.878   5.221  19.491  0.00  0.00    +0.000 C 
ATOM      8  N   UNL     1       3.262   3.077  20.211  0.00  0.00    +0.000 NA
ATOM      9  C   UNL     1       4.432   2.699  19.457  0.00  0.00    +0.000 C 
ENDROOT
BRANCH   1  14
ATOM     10  C   UNL     1       7.640   4.757  16.502  0.00  0.00    +0.000 C 
ATOM     11  C   UNL     1       6.158   4.806  16.714  0.00  0.00    +0.000 A 
ATOM     12  C   UNL     1       5.257   3.929  16.097  0.00  0.00    +0.000 A 
ATOM     13  C   UNL     1       3.895   3.892  16.475  0.00  0.00    +0.000 A 
ATOM     14  C   UNL     1       3.421   4.724  17.496  0.00  0.00    +0.000 A 
ATOM     15  C   UNL     1       4.322   5.706  17.968  0.00  0.00    +0.000 A 
ATOM     16  C   UNL     1       5.663   5.736  17.610  0.00  0.00    +0.000 A 
ENDBRANCH   1  14
BRANCH   7  17
ATOM     17  C   UNL     1       1.925   6.733  19.443  0.00  0.00    +0.000 A 
ATOM     18  C   UNL     1       2.196   7.640  18.435  0.00  0.00    +0.000 A 
ATOM     19  C   UNL     1       1.887   8.911  18.991  0.00  0.00    +0.000 A 
ATOM     20  N   UNL     1       1.547   8.783  20.282  0.00  0.00    +0.000 NA
ATOM     21  O   UNL     1       1.563   7.426  20.557  0.00  0.00    +0.000 OA
BRANCH  19  22
ATOM     22  C   UNL     1       1.670  10.207  18.279  0.00  0.00    +0.000 C 
BRANCH  22  23
ATOM     23  C   UNL     1       0.224  10.643  18.332  0.00  0.00    +0.000 A 
ATOM     24  C   UNL     1      -0.765   9.858  17.708  0.00  0.00    +0.000 A 
ATOM     25  C   UNL     1      -2.127  10.125  17.880  0.00  0.00    +0.000 A 
ATOM     26  C   UNL     1      -2.510  11.182  18.697  0.00  0.00    +0.000 A 
ATOM     27  F   UNL     1      -3.815  11.442  18.866  0.00  0.00    +0.000 F 
ATOM     28  C   UNL     1      -1.559  11.976  19.325  0.00  0.00    +0.000 A 
ATOM     29  C   UNL     1      -0.195  11.704  19.149  0.00  0.00    +0.000 A 
ENDBRANCH  22  23
ENDBRANCH  19  22
ENDBRANCH   7  17
TORSDOF 4
ENDMDL
MODEL 4
REMARK VINA RESULT:      -8.7      1.319      1.748
REMARK  Name = 
REMARK  6 active torsions:
REMARK  status: ('A' for Active; 'I' for Inactive)
REMARK    1  A    between atoms: C_1  and  C_2
REMARK    2  A    between atoms: C_5  and  C_6
REMARK    3  A    between atoms: C_12  and  C_13
REMARK    4  A    between atoms: C_15  and  C_16
REMARK    5  A    between atoms: C_16  and  C_17
REMARK    6  A    between atoms: N_26  and  C_27
REMARK                            x       y       z     vdW  Elec       q    Type
REMARK                         _______ _______ _______ _____ _____    ______ ____
ROOT
ATOM      1  C   UNL     1       3.087   4.496  17.495  0.00  0.00    +0.000 C 
ATOM      2  C   UNL     1       2.526   3.035  17.168  0.00  0.00    +0.000 C 
ATOM      3  C   UNL     1       2.076   2.149  18.393  0.00  0.00    +0.000 C 
ATOM      4  C   UNL     1       0.655   2.216  18.941  0.00  0.00    +0.000 C 
ATOM      5  C   UNL     1       0.606   3.484  19.821  0.00  0.00    +0.000 C 
ATOM      6  C   UNL     1       2.055   4.023  19.754  0.00  0.00    +0.000 C 
ATOM      7  C   UNL     1       2.061   5.013  18.507  0.00  0.00    +0.000 C 
ATOM      8  N   UNL     1       2.673   2.675  19.599  0.00  0.00    +0.000 NA
ATOM      9  C   UNL     1       4.059   2.303  19.752  0.00  0.00    +0.000 C 
ENDROOT
BRANCH   1  14
ATOM     10  C   UNL     1       8.596   5.990  18.789  0.00  0.00    +0.000 C 
ATOM     11  C   UNL     1       7.222   5.423  18.604  0.00  0.00    +0.000 A 
ATOM     12  C   UNL     1       6.189   5.574  19.538  0.00  0.00    +0.000 A 
ATOM     13  C   UNL     1       4.863   5.188  19.233  0.00  0.00    +0.000 A 
ATOM     14  C   UNL     1       4.551   4.662  17.974  0.00  0.00    +0.000 A 
ATOM     15  C   UNL     1       5.648   4.371  17.131  0.00  0.00    +0.000 A 
ATOM     16  C   UNL     1       6.948   4.762  17.421  0.00  0.00    +0.000 A 
ENDBRANCH   1  14
BRANCH   7  17
ATOM     17  C   UNL     1       2.088   6.506  18.748  0.00  0.00    +0.000 A 
ATOM     18  C   UNL     1       2.392   7.589  17.943  0.00  0.00    +0.000 A 
ATOM     19  C   UNL     1       2.041   8.730  18.714  0.00  0.00    +0.000 A 
ATOM     20  N   UNL     1       1.644   8.359  19.940  0.00  0.00    +0.000 NA
ATOM     21  O   UNL     1       1.667   6.974  19.954  0.00  0.00    +0.000 OA
BRANCH  19  22
ATOM     22  C   UNL     1       1.839  10.137  18.250  0.00  0.00    +0.000 C 
BRANCH  22  23
ATOM     23  C   UNL     1       0.384  10.544  18.307  0.00  0.00    +0.000 A 
ATOM     24  C   UNL     1      -0.578   9.795  17.601  0.00  0.00    +0.000 A 
ATOM     25  C   UNL     1      -1.948  10.027  17.765  0.00  0.00    +0.000 A 
ATOM     26  C   UNL     1      -2.366  11.008  18.655  0.00  0.00    +0.000 A 
ATOM     27  F   UNL     1      -3.678  11.233  18.816  0.00  0.00    +0.000 F 
ATOM     28  C   UNL     1      -1.441  11.765  19.364  0.00  0.00    +0.000 A 
ATOM     29  C   UNL     1      -0.069  11.530  19.196  0.00  0.00    +0.000 A 
ENDBRANCH  22  23
ENDBRANCH  19  22
ENDBRANCH   7  17
TORSDOF 4
ENDMDL
MODEL 5
REMARK VINA RESULT:      -8.6      1.324      1.862
REMARK  Name = 
REMARK  6 active torsions:
REMARK  status: ('A' for Active; 'I' for Inactive)
REMARK    1  A    between atoms: C_1  and  C_2
REMARK    2  A    between atoms: C_5  and  C_6
REMARK    3  A    between atoms: C_12  and  C_13
REMARK    4  A    between atoms: C_15  and  C_16
REMARK    5  A    between atoms: C_16  and  C_17
REMARK    6  A    between atoms: N_26  and  C_27
REMARK                            x       y       z     vdW  Elec       q    Type
REMARK                         _______ _______ _______ _____ _____    ______ ____
ROOT
ATOM      1  C   UNL     1       2.816   4.614  17.509  0.00  0.00    +0.000 C 
ATOM      2  C   UNL     1       2.239   3.124  17.434  0.00  0.00    +0.000 C 
ATOM      3  C   UNL     1       2.132   2.329  18.792  0.00  0.00    +0.000 C 
ATOM      4  C   UNL     1       0.887   2.419  19.668  0.00  0.00    +0.000 C 
ATOM      5  C   UNL     1       1.015   3.749  20.440  0.00  0.00    +0.000 C 
ATOM      6  C   UNL     1       2.386   4.301  19.980  0.00  0.00    +0.000 C 
ATOM      7  C   UNL     1       2.054   5.192  18.703  0.00  0.00    +0.000 C 
ATOM      8  N   UNL     1       2.989   2.953  19.773  0.00  0.00    +0.000 NA
ATOM      9  C   UNL     1       4.381   2.613  19.606  0.00  0.00    +0.000 C 
ENDROOT
BRANCH   1  14
ATOM     10  C   UNL     1       8.574   4.726  18.553  0.00  0.00    +0.000 C 
ATOM     11  C   UNL     1       7.148   4.854  18.113  0.00  0.00    +0.000 A 
ATOM     12  C   UNL     1       6.626   4.222  16.977  0.00  0.00    +0.000 A 
ATOM     13  C   UNL     1       5.238   4.219  16.712  0.00  0.00    +0.000 A 
ATOM     14  C   UNL     1       4.347   4.835  17.599  0.00  0.00    +0.000 A 
ATOM     15  C   UNL     1       4.929   5.602  18.634  0.00  0.00    +0.000 A 
ATOM     16  C   UNL     1       6.291   5.595  18.905  0.00  0.00    +0.000 A 
ENDBRANCH   1  14
BRANCH   7  17
ATOM     17  C   UNL     1       2.091   6.700  18.824  0.00  0.00    +0.000 A 
ATOM     18  C   UNL     1       2.302   7.717  17.911  0.00  0.00    +0.000 A 
ATOM     19  C   UNL     1       2.020   8.915  18.623  0.00  0.00    +0.000 A 
ATOM     20  N   UNL     1       1.754   8.639  19.908  0.00  0.00    +0.000 NA
ATOM     21  O   UNL     1       1.791   7.260  20.027  0.00  0.00    +0.000 OA
BRANCH  19  22
ATOM     22  C   UNL     1       1.758  10.280  18.074  0.00  0.00    +0.000 C 
BRANCH  22  23
ATOM     23  C   UNL     1       0.599  10.954  18.772  0.00  0.00    +0.000 A 
ATOM     24  C   UNL     1      -0.721  10.657  18.377  0.00  0.00    +0.000 A 
ATOM     25  C   UNL     1      -1.822  11.118  19.105  0.00  0.00    +0.000 A 
ATOM     26  C   UNL     1      -1.607  11.873  20.251  0.00  0.00    +0.000 A 
ATOM     27  F   UNL     1      -2.660  12.317  20.953  0.00  0.00    +0.000 F 
ATOM     28  C   UNL     1      -0.318  12.185  20.665  0.00  0.00    +0.000 A 
ATOM     29  C   UNL     1       0.783  11.721  19.932  0.00  0.00    +0.000 A 
ENDBRANCH  22  23
ENDBRANCH  19  22
ENDBRANCH   7  17
TORSDOF 4
ENDMDL
MODEL 6
REMARK VINA RESULT:      -8.5      1.592      2.025
REMARK  Name = 
REMARK  6 active torsions:
REMARK  status: ('A' for Active; 'I' for Inactive)
REMARK    1  A    between atoms: C_1  and  C_2
REMARK    2  A    between atoms: C_5  and  C_6
REMARK    3  A    between atoms: C_12  and  C_13
REMARK    4  A    between atoms: C_15  and  C_16
REMARK    5  A    between atoms: C_16  and  C_17
REMARK    6  A    between atoms: N_26  and  C_27
REMARK                            x       y       z     vdW  Elec       q    Type
REMARK                         _______ _______ _______ _____ _____    ______ ____
ROOT
ATOM      1  C   UNL     1       3.022   4.703  17.449  0.00  0.00    +0.000 C 
ATOM      2  C   UNL     1       2.525   3.200  17.223  0.00  0.00    +0.000 C 
ATOM      3  C   UNL     1       2.313   2.314  18.511  0.00  0.00    +0.000 C 
ATOM      4  C   UNL     1       0.981   2.298  19.253  0.00  0.00    +0.000 C 
ATOM      5  C   UNL     1       0.967   3.579  20.113  0.00  0.00    +0.000 C 
ATOM      6  C   UNL     1       2.351   4.213  19.836  0.00  0.00    +0.000 C 
ATOM      7  C   UNL     1       2.114   5.172  18.588  0.00  0.00    +0.000 C 
ATOM      8  N   UNL     1       3.034   2.907  19.613  0.00  0.00    +0.000 NA
ATOM      9  C   UNL     1       4.450   2.632  19.576  0.00  0.00    +0.000 C 
ENDROOT
BRANCH   1  14
ATOM     10  C   UNL     1       8.621   4.993  19.131  0.00  0.00    +0.000 C 
ATOM     11  C   UNL     1       7.248   5.083  18.539  0.00  0.00    +0.000 A 
ATOM     12  C   UNL     1       6.881   4.470  17.334  0.00  0.00    +0.000 A 
ATOM     13  C   UNL     1       5.531   4.424  16.917  0.00  0.00    +0.000 A 
ATOM     14  C   UNL     1       4.523   4.978  17.715  0.00  0.00    +0.000 A 
ATOM     15  C   UNL     1       4.957   5.731  18.831  0.00  0.00    +0.000 A 
ATOM     16  C   UNL     1       6.279   5.765  19.252  0.00  0.00    +0.000 A 
ENDBRANCH   1  14
BRANCH   7  17
ATOM     17  C   UNL     1       2.070   6.669  18.803  0.00  0.00    +0.000 A 
ATOM     18  C   UNL     1       2.146   7.751  17.945  0.00  0.00    +0.000 A 
ATOM     19  C   UNL     1       1.850   8.883  18.752  0.00  0.00    +0.000 A 
ATOM     20  N   UNL     1       1.702   8.513  20.033  0.00  0.00    +0.000 NA
ATOM     21  O   UNL     1       1.832   7.135  20.059  0.00  0.00    +0.000 OA
BRANCH  19  22
ATOM     22  C   UNL     1       1.463  10.259  18.315  0.00  0.00    +0.000 C 
BRANCH  22  23
ATOM     23  C   UNL     1       0.545  10.929  19.310  0.00  0.00    +0.000 A 
ATOM     24  C   UNL     1       1.077  11.834  20.250  0.00  0.00    +0.000 A 
ATOM     25  C   UNL     1       0.248  12.608  21.069  0.00  0.00    +0.000 A 
ATOM     26  C   UNL     1      -1.130  12.488  20.942  0.00  0.00    +0.000 A 
ATOM     27  F   UNL     1      -1.929  13.229  21.725  0.00  0.00    +0.000 F 
ATOM     28  C   UNL     1      -1.685  11.603  20.027  0.00  0.00    +0.000 A 
ATOM     29  C   UNL     1      -0.850  10.830  19.207  0.00  0.00    +0.000 A 
ENDBRANCH  22  23
ENDBRANCH  19  22
ENDBRANCH   7  17
TORSDOF 4
ENDMDL
MODEL 7
REMARK VINA RESULT:      -8.5      3.187      8.324
REMARK  Name = 
REMARK  6 active torsions:
REMARK  status: ('A' for Active; 'I' for Inactive)
REMARK    1  A    between atoms: C_1  and  C_2
REMARK    2  A    between atoms: C_5  and  C_6
REMARK    3  A    between atoms: C_12  and  C_13
REMARK    4  A    between atoms: C_15  and  C_16
REMARK    5  A    between atoms: C_16  and  C_17
REMARK    6  A    between atoms: N_26  and  C_27
REMARK                            x       y       z     vdW  Elec       q    Type
REMARK                         _______ _______ _______ _____ _____    ______ ____
ROOT
ATOM      1  C   UNL     1       0.107  11.351  20.424  0.00  0.00    +0.000 C 
ATOM      2  C   UNL     1      -1.356  11.942  20.687  0.00  0.00    +0.000 C 
ATOM      3  C   UNL     1      -2.228  12.285  19.418  0.00  0.00    +0.000 C 
ATOM      4  C   UNL     1      -3.124  11.238  18.764  0.00  0.00    +0.000 C 
ATOM      5  C   UNL     1      -2.186  10.367  17.902  0.00  0.00    +0.000 C 
ATOM      6  C   UNL     1      -0.803  11.036  18.087  0.00  0.00    +0.000 C 
ATOM      7  C   UNL     1      -0.163  10.300  19.345  0.00  0.00    +0.000 C 
ATOM      8  N   UNL     1      -1.361  12.406  18.269  0.00  0.00    +0.000 NA
ATOM      9  C   UNL     1      -0.666  13.670  18.216  0.00  0.00    +0.000 C 
ENDROOT
BRANCH   1  14
ATOM     10  C   UNL     1       3.825  15.389  18.393  0.00  0.00    +0.000 C 
ATOM     11  C   UNL     1       3.046  14.302  19.068  0.00  0.00    +0.000 A 
ATOM     12  C   UNL     1       2.406  14.458  20.303  0.00  0.00    +0.000 A 
ATOM     13  C   UNL     1       1.528  13.470  20.805  0.00  0.00    +0.000 A 
ATOM     14  C   UNL     1       1.264  12.314  20.060  0.00  0.00    +0.000 A 
ATOM     15  C   UNL     1       2.059  12.121  18.907  0.00  0.00    +0.000 A 
ATOM     16  C   UNL     1       2.910  13.096  18.404  0.00  0.00    +0.000 A 
ENDBRANCH   1  14
BRANCH   7  17
ATOM     17  C   UNL     1       0.950   9.298  19.128  0.00  0.00    +0.000 A 
ATOM     18  C   UNL     1       1.667   8.481  19.983  0.00  0.00    +0.000 A 
ATOM     19  C   UNL     1       2.437   7.642  19.131  0.00  0.00    +0.000 A 
ATOM     20  N   UNL     1       2.267   8.000  17.850  0.00  0.00    +0.000 NA
ATOM     21  O   UNL     1       1.335   9.025  17.852  0.00  0.00    +0.000 OA
BRANCH  19  22
ATOM     22  C   UNL     1       3.135   6.365  19.471  0.00  0.00    +0.000 C 
BRANCH  22  23
ATOM     23  C   UNL     1       2.259   5.160  19.215  0.00  0.00    +0.000 A 
ATOM     24  C   UNL     1       2.341   4.488  17.978  0.00  0.00    +0.000 A 
ATOM     25  C   UNL     1       1.685   3.272  17.763  0.00  0.00    +0.000 A 
ATOM     26  C   UNL     1       0.947   2.709  18.797  0.00  0.00    +0.000 A 
ATOM     27  F   UNL     1       0.316   1.543  18.595  0.00  0.00    +0.000 F 
ATOM     28  C   UNL     1       0.845   3.348  20.026  0.00  0.00    +0.000 A 
ATOM     29  C   UNL     1       1.505   4.567  20.238  0.00  0.00    +0.000 A 
ENDBRANCH  22  23
ENDBRANCH  19  22
ENDBRANCH   7  17
TORSDOF 4
ENDMDL
MODEL 8
REMARK VINA RESULT:      -8.3      1.776      2.278
REMARK  Name = 
REMARK  6 active torsions:
REMARK  status: ('A' for Active; 'I' for Inactive)
REMARK    1  A    between atoms: C_1  and  C_2
REMARK    2  A    between atoms: C_5  and  C_6
REMARK    3  A    between atoms: C_12  and  C_13
REMARK    4  A    between atoms: C_15  and  C_16
REMARK    5  A    between atoms: C_16  and  C_17
REMARK    6  A    between atoms: N_26  and  C_27
REMARK                            x       y       z     vdW  Elec       q    Type
REMARK                         _______ _______ _______ _____ _____    ______ ____
ROOT
ATOM      1  C   UNL     1       2.254   4.384  17.822  0.00  0.00    +0.000 C 
ATOM      2  C   UNL     1       1.777   2.913  18.229  0.00  0.00    +0.000 C 
ATOM      3  C   UNL     1       2.256   2.367  19.630  0.00  0.00    +0.000 C 
ATOM      4  C   UNL     1       1.453   2.627  20.900  0.00  0.00    +0.000 C 
ATOM      5  C   UNL     1       1.801   4.069  21.326  0.00  0.00    +0.000 C 
ATOM      6  C   UNL     1       2.848   4.511  20.276  0.00  0.00    +0.000 C 
ATOM      7  C   UNL     1       1.993   5.173  19.107  0.00  0.00    +0.000 C 
ATOM      8  N   UNL     1       3.394   3.139  20.072  0.00  0.00    +0.000 NA
ATOM      9  C   UNL     1       4.625   2.752  19.425  0.00  0.00    +0.000 C 
ENDROOT
BRANCH   1  14
ATOM     10  C   UNL     1       7.188   5.294  14.806  0.00  0.00    +0.000 C 
ATOM     11  C   UNL     1       6.065   5.059  15.770  0.00  0.00    +0.000 A 
ATOM     12  C   UNL     1       5.504   6.065  16.567  0.00  0.00    +0.000 A 
ATOM     13  C   UNL     1       4.327   5.835  17.316  0.00  0.00    +0.000 A 
ATOM     14  C   UNL     1       3.683   4.593  17.259  0.00  0.00    +0.000 A 
ATOM     15  C   UNL     1       4.375   3.563  16.582  0.00  0.00    +0.000 A 
ATOM     16  C   UNL     1       5.523   3.789  15.834  0.00  0.00    +0.000 A 
ENDBRANCH   1  14
BRANCH   7  17
ATOM     17  C   UNL     1       1.993   6.677  18.951  0.00  0.00    +0.000 A 
ATOM     18  C   UNL     1       1.755   7.518  17.879  0.00  0.00    +0.000 A 
ATOM     19  C   UNL     1       1.723   8.825  18.436  0.00  0.00    +0.000 A 
ATOM     20  N   UNL     1       2.020   8.780  19.743  0.00  0.00    +0.000 NA
ATOM     21  O   UNL     1       2.179   7.443  20.061  0.00  0.00    +0.000 OA
BRANCH  19  22
ATOM     22  C   UNL     1       1.184  10.080  17.827  0.00  0.00    +0.000 C 
BRANCH  22  23
ATOM     23  C   UNL     1       1.579  11.304  18.620  0.00  0.00    +0.000 A 
ATOM     24  C   UNL     1       2.530  12.200  18.091  0.00  0.00    +0.000 A 
ATOM     25  C   UNL     1       2.794  13.430  18.703  0.00  0.00    +0.000 A 
ATOM     26  C   UNL     1       2.092  13.779  19.850  0.00  0.00    +0.000 A 
ATOM     27  F   UNL     1       2.341  14.958  20.440  0.00  0.00    +0.000 F 
ATOM     28  C   UNL     1       1.150  12.916  20.397  0.00  0.00    +0.000 A 
ATOM     29  C   UNL     1       0.889  11.685  19.780  0.00  0.00    +0.000 A 
ENDBRANCH  22  23
ENDBRANCH  19  22
ENDBRANCH   7  17
TORSDOF 4
ENDMDL
MODEL 9
REMARK VINA RESULT:      -8.3      3.358      8.498
REMARK  Name = 
REMARK  6 active torsions:
REMARK  status: ('A' for Active; 'I' for Inactive)
REMARK    1  A    between atoms: C_1  and  C_2
REMARK    2  A    between atoms: C_5  and  C_6
REMARK    3  A    between atoms: C_12  and  C_13
REMARK    4  A    between atoms: C_15  and  C_16
REMARK    5  A    between atoms: C_16  and  C_17
REMARK    6  A    between atoms: N_26  and  C_27
REMARK                            x       y       z     vdW  Elec       q    Type
REMARK                         _______ _______ _______ _____ _____    ______ ____
ROOT
ATOM      1  C   UNL     1       0.491  11.867  20.709  0.00  0.00    +0.000 C 
ATOM      2  C   UNL     1      -0.775  12.707  21.209  0.00  0.00    +0.000 C 
ATOM      3  C   UNL     1      -1.803  13.175  20.108  0.00  0.00    +0.000 C 
ATOM      4  C   UNL     1      -2.970  12.289  19.683  0.00  0.00    +0.000 C 
ATOM      5  C   UNL     1      -2.372  11.254  18.706  0.00  0.00    +0.000 C 
ATOM      6  C   UNL     1      -0.887  11.677  18.599  0.00  0.00    +0.000 C 
ATOM      7  C   UNL     1      -0.152  10.861  19.751  0.00  0.00    +0.000 C 
ATOM      8  N   UNL     1      -1.164  13.126  18.814  0.00  0.00    +0.000 NA
ATOM      9  C   UNL     1      -0.290  14.248  18.571  0.00  0.00    +0.000 C 
ENDROOT
BRANCH   1  14
ATOM     10  C   UNL     1       4.373  15.205  17.873  0.00  0.00    +0.000 C 
ATOM     11  C   UNL     1       3.568  14.261  18.712  0.00  0.00    +0.000 A 
ATOM     12  C   UNL     1       3.254  14.493  20.057  0.00  0.00    +0.000 A 
ATOM     13  C   UNL     1       2.336  13.670  20.748  0.00  0.00    +0.000 A 
ATOM     14  C   UNL     1       1.702  12.608  20.091  0.00  0.00    +0.000 A 
ATOM     15  C   UNL     1       2.176  12.309  18.792  0.00  0.00    +0.000 A 
ATOM     16  C   UNL     1       3.065  13.124  18.106  0.00  0.00    +0.000 A 
ENDBRANCH   1  14
BRANCH   7  17
ATOM     17  C   UNL     1       0.716   9.678  19.382  0.00  0.00    +0.000 A 
ATOM     18  C   UNL     1       1.239   9.225  18.184  0.00  0.00    +0.000 A 
ATOM     19  C   UNL     1       2.123   8.172  18.543  0.00  0.00    +0.000 A 
ATOM     20  N   UNL     1       2.061   7.943  19.863  0.00  0.00    +0.000 NA
ATOM     21  O   UNL     1       1.191   8.887  20.382  0.00  0.00    +0.000 OA
BRANCH  19  22
ATOM     22  C   UNL     1       3.200   7.543  17.719  0.00  0.00    +0.000 C 
BRANCH  22  23
ATOM     23  C   UNL     1       3.148   6.034  17.781  0.00  0.00    +0.000 A 
ATOM     24  C   UNL     1       1.904   5.384  17.911  0.00  0.00    +0.000 A 
ATOM     25  C   UNL     1       1.791   3.995  17.795  0.00  0.00    +0.000 A 
ATOM     26  C   UNL     1       2.930   3.243  17.532  0.00  0.00    +0.000 A 
ATOM     27  F   UNL     1       2.826   1.910  17.420  0.00  0.00    +0.000 F 
ATOM     28  C   UNL     1       4.170   3.854  17.402  0.00  0.00    +0.000 A 
ATOM     29  C   UNL     1       4.279   5.247  17.518  0.00  0.00    +0.000 A 
ENDBRANCH  22  23
ENDBRANCH  19  22
ENDBRANCH   7  17
TORSDOF 4
ENDMDL
