MODEL 1
REMARK VINA RESULT:      -6.3      0.000      0.000
REMARK  Name = 
REMARK  8 active torsions:
REMARK  status: ('A' for Active; 'I' for Inactive)
REMARK    1  A    between atoms: C_1  and  C_2
REMARK    2  A    between atoms: N_4  and  C_5
REMARK    3  A    between atoms: N_4  and  C_6
REMARK    4  A    between atoms: C_6  and  C_7
REMARK    5  A    between atoms: C_8  and  C_9
REMARK    6  A    between atoms: C_9  and  N_10
REMARK    7  A    between atoms: C_14  and  C_15
REMARK    8  A    between atoms: C_15  and  O_16
REMARK                            x       y       z     vdW  Elec       q    Type
REMARK                         _______ _______ _______ _____ _____    ______ ____
ROOT
ATOM      1  C   UNL     1       2.478   2.601  18.586  0.00  0.00    +0.000 C 
ENDROOT
BRANCH   1   2
ATOM      2  N   UNL     1       1.504   3.665  18.870  0.00  0.00    +0.000 NA
ATOM      3  C   UNL     1       2.014   4.990  18.477  0.00  0.00    +0.000 C 
ATOM      4  C   UNL     1       2.568   5.584  19.751  0.00  0.00    +0.000 C 
ATOM      5  C   UNL     1       1.524   5.175  20.763  0.00  0.00    +0.000 C 
ATOM      6  C   UNL     1       1.051   3.791  20.285  0.00  0.00    +0.000 C 
BRANCH   6   7
ATOM      7  C   UNL     1       1.385   2.682  21.310  0.00  0.00    +0.000 C 
BRANCH   7   8
ATOM      8  O   UNL     1       2.381   3.072  22.249  0.00  0.00    +0.000 OA
ATOM      9  H   UNL     1       3.054   2.369  22.273  0.00  0.00    +0.000 HD
ENDBRANCH   7   8
ENDBRANCH   6   7
ENDBRANCH   1   2
BRANCH   1  11
ATOM     10  C   UNL     1       4.486   3.587  16.862  0.00  0.00    +0.000 C 
ATOM     11  C   UNL     1       3.559   3.132  17.658  0.00  0.00    +0.000 C 
BRANCH  10  12
ATOM     12  C   UNL     1       5.566   4.117  15.935  0.00  0.00    +0.000 C 
BRANCH  12  16
ATOM     13  C   UNL     1       7.567   6.994  17.489  0.00  0.00    +0.000 C 
ATOM     14  C   UNL     1       7.161   5.607  17.060  0.00  0.00    +0.000 C 
ATOM     15  O   UNL     1       7.886   4.647  17.341  0.00  0.00    +0.000 OA
ATOM     16  N   UNL     1       5.985   5.468  16.339  0.00  0.00    +0.000 N 
ATOM     17  C   UNL     1       5.108   6.580  15.988  0.00  0.00    +0.000 C 
ENDBRANCH  12  16
ENDBRANCH  10  12
ENDBRANCH   1  11
TORSDOF 6
ENDMDL
MODEL 2
REMARK VINA RESULT:      -6.2      1.042      1.347
REMARK  Name = 
REMARK  8 active torsions:
REMARK  status: ('A' for Active; 'I' for Inactive)
REMARK    1  A    between atoms: C_1  and  C_2
REMARK    2  A    between atoms: N_4  and  C_5
REMARK    3  A    between atoms: N_4  and  C_6
REMARK    4  A    between atoms: C_6  and  C_7
REMARK    5  A    between atoms: C_8  and  C_9
REMARK    6  A    between atoms: C_9  and  N_10
REMARK    7  A    between atoms: C_14  and  C_15
REMARK    8  A    between atoms: C_15  and  O_16
REMARK                            x       y       z     vdW  Elec       q    Type
REMARK                         _______ _______ _______ _____ _____    ______ ____
ROOT
ATOM      1  C   UNL     1       2.533   2.733  18.534  0.00  0.00    +0.000 C 
ENDROOT
BRANCH   1   2
ATOM      2  N   UNL     1       1.622   3.845  18.840  0.00  0.00    +0.000 NA
ATOM      3  C   UNL     1       2.227   5.149  18.522  0.00  0.00    +0.000 C 
ATOM      4  C   UNL     1       2.780   5.649  19.837  0.00  0.00    +0.000 C 
ATOM      5  C   UNL     1       1.683   5.266  20.800  0.00  0.00    +0.000 C 
ATOM      6  C   UNL     1       1.135   3.938  20.247  0.00  0.00    +0.000 C 
BRANCH   6   7
ATOM      7  C   UNL     1       1.367   2.766  21.229  0.00  0.00    +0.000 C 
BRANCH   7   8
ATOM      8  O   UNL     1       2.430   3.006  22.145  0.00  0.00    +0.000 OA
ATOM      9  H   UNL     1       3.123   2.346  21.969  0.00  0.00    +0.000 HD
ENDBRANCH   7   8
ENDBRANCH   6   7
ENDBRANCH   1   2
BRANCH   1  11
ATOM     10  C   UNL     1       4.663   3.662  16.931  0.00  0.00    +0.000 C 
ATOM     11  C   UNL     1       3.679   3.233  17.671  0.00  0.00    +0.000 C 
BRANCH  10  12
ATOM     12  C   UNL     1       5.809   4.162  16.067  0.00  0.00    +0.000 C 
BRANCH  12  16
ATOM     13  C   UNL     1       7.415   7.349  17.465  0.00  0.00    +0.000 C 
ATOM     14  C   UNL     1       6.498   6.433  16.696  0.00  0.00    +0.000 C 
ATOM     15  O   UNL     1       5.605   6.918  15.991  0.00  0.00    +0.000 OA
ATOM     16  N   UNL     1       6.683   5.066  16.830  0.00  0.00    +0.000 N 
ATOM     17  C   UNL     1       7.723   4.461  17.655  0.00  0.00    +0.000 C 
ENDBRANCH  12  16
ENDBRANCH  10  12
ENDBRANCH   1  11
TORSDOF 6
ENDMDL
MODEL 3
REMARK VINA RESULT:      -5.8      4.655      8.728
REMARK  Name = 
REMARK  8 active torsions:
REMARK  status: ('A' for Active; 'I' for Inactive)
REMARK    1  A    between atoms: C_1  and  C_2
REMARK    2  A    between atoms: N_4  and  C_5
REMARK    3  A    between atoms: N_4  and  C_6
REMARK    4  A    between atoms: C_6  and  C_7
REMARK    5  A    between atoms: C_8  and  C_9
REMARK    6  A    between atoms: C_9  and  N_10
REMARK    7  A    between atoms: C_14  and  C_15
REMARK    8  A    between atoms: C_15  and  O_16
REMARK                            x       y       z     vdW  Elec       q    Type
REMARK                         _______ _______ _______ _____ _____    ______ ____
ROOT
ATOM      1  C   UNL     1       8.674  10.298  18.338  0.00  0.00    +0.000 C 
ENDROOT
BRANCH   1   2
ATOM      2  N   UNL     1       9.776  10.367  19.310  0.00  0.00    +0.000 NA
ATOM      3  C   UNL     1       9.291  10.699  20.660  0.00  0.00    +0.000 C 
ATOM      4  C   UNL     1       9.495  12.190  20.789  0.00  0.00    +0.000 C 
ATOM      5  C   UNL     1      10.846  12.376  20.139  0.00  0.00    +0.000 C 
ATOM      6  C   UNL     1      10.869  11.334  19.005  0.00  0.00    +0.000 C 
BRANCH   6   7
ATOM      7  C   UNL     1      10.953  12.001  17.613  0.00  0.00    +0.000 C 
BRANCH   7   8
ATOM      8  O   UNL     1      12.290  12.231  17.182  0.00  0.00    +0.000 OA
ATOM      9  H   UNL     1      12.623  11.399  16.802  0.00  0.00    +0.000 HD
ENDBRANCH   7   8
ENDBRANCH   6   7
ENDBRANCH   1   2
BRANCH   1  11
ATOM     10  C   UNL     1       7.899   7.607  17.972  0.00  0.00    +0.000 C 
ATOM     11  C   UNL     1       8.257   8.849  18.141  0.00  0.00    +0.000 C 
BRANCH  10  12
ATOM     12  C   UNL     1       7.483   6.159  17.774  0.00  0.00    +0.000 C 
BRANCH  12  16
ATOM     13  C   UNL     1       3.979   4.931  18.728  0.00  0.00    +0.000 C 
ATOM     14  C   UNL     1       5.479   5.077  18.692  0.00  0.00    +0.000 C 
ATOM     15  O   UNL     1       6.176   4.373  19.431  0.00  0.00    +0.000 OA
ATOM     16  N   UNL     1       6.020   6.023  17.835  0.00  0.00    +0.000 N 
ATOM     17  C   UNL     1       5.226   6.872  16.953  0.00  0.00    +0.000 C 
ENDBRANCH  12  16
ENDBRANCH  10  12
ENDBRANCH   1  11
TORSDOF 6
ENDMDL
MODEL 4
REMARK VINA RESULT:      -5.8      1.539      2.101
REMARK  Name = 
REMARK  8 active torsions:
REMARK  status: ('A' for Active; 'I' for Inactive)
REMARK    1  A    between atoms: C_1  and  C_2
REMARK    2  A    between atoms: N_4  and  C_5
REMARK    3  A    between atoms: N_4  and  C_6
REMARK    4  A    between atoms: C_6  and  C_7
REMARK    5  A    between atoms: C_8  and  C_9
REMARK    6  A    between atoms: C_9  and  N_10
REMARK    7  A    between atoms: C_14  and  C_15
REMARK    8  A    between atoms: C_15  and  O_16
REMARK                            x       y       z     vdW  Elec       q    Type
REMARK                         _______ _______ _______ _____ _____    ______ ____
ROOT
ATOM      1  C   UNL     1       4.127   2.349  19.978  0.00  0.00    +0.000 C 
ENDROOT
BRANCH   1   2
ATOM      2  N   UNL     1       2.913   2.024  19.216  0.00  0.00    +0.000 NA
ATOM      3  C   UNL     1       3.043   2.397  17.797  0.00  0.00    +0.000 C 
ATOM      4  C   UNL     1       2.375   3.747  17.690  0.00  0.00    +0.000 C 
ATOM      5  C   UNL     1       1.159   3.562  18.566  0.00  0.00    +0.000 C 
ATOM      6  C   UNL     1       1.642   2.637  19.697  0.00  0.00    +0.000 C 
BRANCH   6   7
ATOM      7  C   UNL     1       1.589   3.337  21.075  0.00  0.00    +0.000 C 
BRANCH   7   8
ATOM      8  O   UNL     1       1.468   2.424  22.161  0.00  0.00    +0.000 OA
ATOM      9  H   UNL     1       2.325   1.975  22.263  0.00  0.00    +0.000 HD
ENDBRANCH   7   8
ENDBRANCH   6   7
ENDBRANCH   1   2
BRANCH   1  11
ATOM     10  C   UNL     1       5.413   4.577  18.812  0.00  0.00    +0.000 C 
ATOM     11  C   UNL     1       4.819   3.549  19.350  0.00  0.00    +0.000 C 
BRANCH  10  12
ATOM     12  C   UNL     1       6.104   5.775  18.184  0.00  0.00    +0.000 C 
BRANCH  12  16
ATOM     13  C   UNL     1       7.023   4.879  14.572  0.00  0.00    +0.000 C 
ATOM     14  C   UNL     1       7.053   4.943  16.078  0.00  0.00    +0.000 C 
ATOM     15  O   UNL     1       7.926   4.323  16.696  0.00  0.00    +0.000 OA
ATOM     16  N   UNL     1       6.073   5.687  16.717  0.00  0.00    +0.000 N 
ATOM     17  C   UNL     1       5.027   6.426  16.018  0.00  0.00    +0.000 C 
ENDBRANCH  12  16
ENDBRANCH  10  12
ENDBRANCH   1  11
TORSDOF 6
ENDMDL
MODEL 5
REMARK VINA RESULT:      -5.8      1.076      1.252
REMARK  Name = 
REMARK  8 active torsions:
REMARK  status: ('A' for Active; 'I' for Inactive)
REMARK    1  A    between atoms: C_1  and  C_2
REMARK    2  A    between atoms: N_4  and  C_5
REMARK    3  A    between atoms: N_4  and  C_6
REMARK    4  A    between atoms: C_6  and  C_7
REMARK    5  A    between atoms: C_8  and  C_9
REMARK    6  A    between atoms: C_9  and  N_10
REMARK    7  A    between atoms: C_14  and  C_15
REMARK    8  A    between atoms: C_15  and  O_16
REMARK                            x       y       z     vdW  Elec       q    Type
REMARK                         _______ _______ _______ _____ _____    ______ ____
ROOT
ATOM      1  C   UNL     1       2.251   2.284  18.109  0.00  0.00    +0.000 C 
ENDROOT
BRANCH   1   2
ATOM      2  N   UNL     1       1.294   3.301  18.567  0.00  0.00    +0.000 NA
ATOM      3  C   UNL     1       1.496   4.588  17.882  0.00  0.00    +0.000 C 
ATOM      4  C   UNL     1       2.342   5.403  18.833  0.00  0.00    +0.000 C 
ATOM      5  C   UNL     1       1.719   5.068  20.167  0.00  0.00    +0.000 C 
ATOM      6  C   UNL     1       1.289   3.597  20.029  0.00  0.00    +0.000 C 
BRANCH   6   7
ATOM      7  C   UNL     1       2.053   2.679  21.011  0.00  0.00    +0.000 C 
BRANCH   7   8
ATOM      8  O   UNL     1       1.374   2.498  22.249  0.00  0.00    +0.000 OA
ATOM      9  H   UNL     1       0.811   1.710  22.162  0.00  0.00    +0.000 HD
ENDBRANCH   7   8
ENDBRANCH   6   7
ENDBRANCH   1   2
BRANCH   1  11
ATOM     10  C   UNL     1       4.578   3.545  17.125  0.00  0.00    +0.000 C 
ATOM     11  C   UNL     1       3.504   2.963  17.579  0.00  0.00    +0.000 C 
BRANCH  10  12
ATOM     12  C   UNL     1       5.830   4.224  16.594  0.00  0.00    +0.000 C 
BRANCH  12  16
ATOM     13  C   UNL     1       7.815   7.095  18.179  0.00  0.00    +0.000 C 
ATOM     14  C   UNL     1       7.247   6.150  17.150  0.00  0.00    +0.000 C 
ATOM     15  O   UNL     1       7.556   6.289  15.962  0.00  0.00    +0.000 OA
ATOM     16  N   UNL     1       6.374   5.166  17.585  0.00  0.00    +0.000 N 
ATOM     17  C   UNL     1       5.986   4.977  18.979  0.00  0.00    +0.000 C 
ENDBRANCH  12  16
ENDBRANCH  10  12
ENDBRANCH   1  11
TORSDOF 6
ENDMDL
MODEL 6
REMARK VINA RESULT:      -5.8      4.550      7.280
REMARK  Name = 
REMARK  8 active torsions:
REMARK  status: ('A' for Active; 'I' for Inactive)
REMARK    1  A    between atoms: C_1  and  C_2
REMARK    2  A    between atoms: N_4  and  C_5
REMARK    3  A    between atoms: N_4  and  C_6
REMARK    4  A    between atoms: C_6  and  C_7
REMARK    5  A    between atoms: C_8  and  C_9
REMARK    6  A    between atoms: C_9  and  N_10
REMARK    7  A    between atoms: C_14  and  C_15
REMARK    8  A    between atoms: C_15  and  O_16
REMARK                            x       y       z     vdW  Elec       q    Type
REMARK                         _______ _______ _______ _____ _____    ______ ____
ROOT
ATOM      1  C   UNL     1       7.547   7.766  17.179  0.00  0.00    +0.000 C 
ENDROOT
BRANCH   1   2
ATOM      2  N   UNL     1       6.855   6.848  18.095  0.00  0.00    +0.000 NA
ATOM      3  C   UNL     1       7.774   5.845  18.658  0.00  0.00    +0.000 C 
ATOM      4  C   UNL     1       7.591   4.622  17.790  0.00  0.00    +0.000 C 
ATOM      5  C   UNL     1       6.094   4.605  17.590  0.00  0.00    +0.000 C 
ATOM      6  C   UNL     1       5.701   6.091  17.530  0.00  0.00    +0.000 C 
BRANCH   6   7
ATOM      7  C   UNL     1       5.118   6.477  16.150  0.00  0.00    +0.000 C 
BRANCH   7   8
ATOM      8  O   UNL     1       5.778   5.835  15.065  0.00  0.00    +0.000 OA
ATOM      9  H   UNL     1       6.113   4.981  15.390  0.00  0.00    +0.000 HD
ENDBRANCH   7   8
ENDBRANCH   6   7
ENDBRANCH   1   2
BRANCH   1  11
ATOM     10  C   UNL     1       8.877   9.766  18.664  0.00  0.00    +0.000 C 
ATOM     11  C   UNL     1       8.263   8.843  17.979  0.00  0.00    +0.000 C 
BRANCH  10  12
ATOM     12  C   UNL     1       9.592  10.843  19.464  0.00  0.00    +0.000 C 
BRANCH  12  16
ATOM     13  C   UNL     1      12.087  13.120  17.652  0.00  0.00    +0.000 C 
ATOM     14  C   UNL     1      11.527  12.047  18.552  0.00  0.00    +0.000 C 
ATOM     15  O   UNL     1      12.298  11.351  19.221  0.00  0.00    +0.000 OA
ATOM     16  N   UNL     1      10.152  11.870  18.573  0.00  0.00    +0.000 N 
ATOM     17  C   UNL     1       9.214  12.671  17.793  0.00  0.00    +0.000 C 
ENDBRANCH  12  16
ENDBRANCH  10  12
ENDBRANCH   1  11
TORSDOF 6
ENDMDL
MODEL 7
REMARK VINA RESULT:      -5.7      4.253      6.866
REMARK  Name = 
REMARK  8 active torsions:
REMARK  status: ('A' for Active; 'I' for Inactive)
REMARK    1  A    between atoms: C_1  and  C_2
REMARK    2  A    between atoms: N_4  and  C_5
REMARK    3  A    between atoms: N_4  and  C_6
REMARK    4  A    between atoms: C_6  and  C_7
REMARK    5  A    between atoms: C_8  and  C_9
REMARK    6  A    between atoms: C_9  and  N_10
REMARK    7  A    between atoms: C_14  and  C_15
REMARK    8  A    between atoms: C_15  and  O_16
REMARK                            x       y       z     vdW  Elec       q    Type
REMARK                         _______ _______ _______ _____ _____    ______ ____
ROOT
ATOM      1  C   UNL     1       6.725   7.577  17.155  0.00  0.00    +0.000 C 
ENDROOT
BRANCH   1   2
ATOM      2  N   UNL     1       7.430   6.327  16.839  0.00  0.00    +0.000 NA
ATOM      3  C   UNL     1       6.952   5.735  15.579  0.00  0.00    +0.000 C 
ATOM      4  C   UNL     1       5.940   4.695  16.000  0.00  0.00    +0.000 C 
ATOM      5  C   UNL     1       6.612   4.076  17.202  0.00  0.00    +0.000 C 
ATOM      6  C   UNL     1       7.359   5.247  17.866  0.00  0.00    +0.000 C 
BRANCH   6   7
ATOM      7  C   UNL     1       6.811   5.552  19.279  0.00  0.00    +0.000 C 
BRANCH   7   8
ATOM      8  O   UNL     1       7.806   5.470  20.294  0.00  0.00    +0.000 OA
ATOM      9  H   UNL     1       8.591   5.049  19.902  0.00  0.00    +0.000 HD
ENDBRANCH   7   8
ENDBRANCH   6   7
ENDBRANCH   1   2
BRANCH   1  11
ATOM     10  C   UNL     1       8.532   9.424  18.295  0.00  0.00    +0.000 C 
ATOM     11  C   UNL     1       7.698   8.572  17.769  0.00  0.00    +0.000 C 
BRANCH  10  12
ATOM     12  C   UNL     1       9.504  10.418  18.908  0.00  0.00    +0.000 C 
BRANCH  12  16
ATOM     13  C   UNL     1      11.041  13.291  16.888  0.00  0.00    +0.000 C 
ATOM     14  C   UNL     1      10.915  12.056  17.743  0.00  0.00    +0.000 C 
ATOM     15  O   UNL     1      11.936  11.471  18.121  0.00  0.00    +0.000 OA
ATOM     16  N   UNL     1       9.640  11.609  18.056  0.00  0.00    +0.000 N 
ATOM     17  C   UNL     1       8.415  12.273  17.623  0.00  0.00    +0.000 C 
ENDBRANCH  12  16
ENDBRANCH  10  12
ENDBRANCH   1  11
TORSDOF 6
ENDMDL
MODEL 8
REMARK VINA RESULT:      -5.7      2.083      2.879
REMARK  Name = 
REMARK  8 active torsions:
REMARK  status: ('A' for Active; 'I' for Inactive)
REMARK    1  A    between atoms: C_1  and  C_2
REMARK    2  A    between atoms: N_4  and  C_5
REMARK    3  A    between atoms: N_4  and  C_6
REMARK    4  A    between atoms: C_6  and  C_7
REMARK    5  A    between atoms: C_8  and  C_9
REMARK    6  A    between atoms: C_9  and  N_10
REMARK    7  A    between atoms: C_14  and  C_15
REMARK    8  A    between atoms: C_15  and  O_16
REMARK                            x       y       z     vdW  Elec       q    Type
REMARK                         _______ _______ _______ _____ _____    ______ ____
ROOT
ATOM      1  C   UNL     1       3.760   5.089  19.467  0.00  0.00    +0.000 C 
ENDROOT
BRANCH   1   2
ATOM      2  N   UNL     1       2.770   4.066  19.100  0.00  0.00    +0.000 NA
ATOM      3  C   UNL     1       1.395   4.513  19.379  0.00  0.00    +0.000 C 
ATOM      4  C   UNL     1       1.058   3.912  20.723  0.00  0.00    +0.000 C 
ATOM      5  C   UNL     1       1.654   2.529  20.603  0.00  0.00    +0.000 C 
ATOM      6  C   UNL     1       2.920   2.733  19.750  0.00  0.00    +0.000 C 
BRANCH   6   7
ATOM      7  C   UNL     1       4.206   2.392  20.539  0.00  0.00    +0.000 C 
BRANCH   7   8
ATOM      8  O   UNL     1       5.123   1.597  19.796  0.00  0.00    +0.000 OA
ATOM      9  H   UNL     1       6.000   1.702  20.205  0.00  0.00    +0.000 HD
ENDBRANCH   7   8
ENDBRANCH   6   7
ENDBRANCH   1   2
BRANCH   1  11
ATOM     10  C   UNL     1       5.876   5.079  17.597  0.00  0.00    +0.000 C 
ATOM     11  C   UNL     1       4.899   5.083  18.460  0.00  0.00    +0.000 C 
BRANCH  10  12
ATOM     12  C   UNL     1       7.014   5.073  16.590  0.00  0.00    +0.000 C 
BRANCH  12  16
ATOM     13  C   UNL     1       6.762   4.105  12.890  0.00  0.00    +0.000 C 
ATOM     14  C   UNL     1       7.202   4.791  14.159  0.00  0.00    +0.000 C 
ATOM     15  O   UNL     1       8.079   5.659  14.108  0.00  0.00    +0.000 OA
ATOM     16  N   UNL     1       6.611   4.396  15.349  0.00  0.00    +0.000 N 
ATOM     17  C   UNL     1       5.576   3.372  15.444  0.00  0.00    +0.000 C 
ENDBRANCH  12  16
ENDBRANCH  10  12
ENDBRANCH   1  11
TORSDOF 6
ENDMDL
MODEL 9
REMARK VINA RESULT:      -5.7      2.001      2.756
REMARK  Name = 
REMARK  8 active torsions:
REMARK  status: ('A' for Active; 'I' for Inactive)
REMARK    1  A    between atoms: C_1  and  C_2
REMARK    2  A    between atoms: N_4  and  C_5
REMARK    3  A    between atoms: N_4  and  C_6
REMARK    4  A    between atoms: C_6  and  C_7
REMARK    5  A    between atoms: C_8  and  C_9
REMARK    6  A    between atoms: C_9  and  N_10
REMARK    7  A    between atoms: C_14  and  C_15
REMARK    8  A    between atoms: C_15  and  O_16
REMARK                            x       y       z     vdW  Elec       q    Type
REMARK                         _______ _______ _______ _____ _____    ______ ____
ROOT
ATOM      1  C   UNL     1       4.113   4.446  19.269  0.00  0.00    +0.000 C 
ENDROOT
BRANCH   1   2
ATOM      2  N   UNL     1       3.377   3.214  18.952  0.00  0.00    +0.000 NA
ATOM      3  C   UNL     1       2.727   3.290  17.633  0.00  0.00    +0.000 C 
ATOM      4  C   UNL     1       1.302   3.697  17.928  0.00  0.00    +0.000 C 
ATOM      5  C   UNL     1       0.988   2.866  19.149  0.00  0.00    +0.000 C 
ATOM      6  C   UNL     1       2.319   2.805  19.920  0.00  0.00    +0.000 C 
BRANCH   6   7
ATOM      7  C   UNL     1       2.218   3.496  21.300  0.00  0.00    +0.000 C 
BRANCH   7   8
ATOM      8  O   UNL     1       1.694   2.646  22.314  0.00  0.00    +0.000 OA
ATOM      9  H   UNL     1       2.208   2.806  23.125  0.00  0.00    +0.000 HD
ENDBRANCH   7   8
ENDBRANCH   6   7
ENDBRANCH   1   2
BRANCH   1  11
ATOM     10  C   UNL     1       6.067   4.922  17.286  0.00  0.00    +0.000 C 
ATOM     11  C   UNL     1       5.165   4.702  18.201  0.00  0.00    +0.000 C 
BRANCH  10  12
ATOM     12  C   UNL     1       7.118   5.178  16.219  0.00  0.00    +0.000 C 
BRANCH  12  16
ATOM     13  C   UNL     1       7.017   4.214  12.511  0.00  0.00    +0.000 C 
ATOM     14  C   UNL     1       7.410   4.893  13.798  0.00  0.00    +0.000 C 
ATOM     15  O   UNL     1       8.301   5.749  13.787  0.00  0.00    +0.000 OA
ATOM     16  N   UNL     1       6.760   4.508  14.961  0.00  0.00    +0.000 N 
ATOM     17  C   UNL     1       5.707   3.498  15.009  0.00  0.00    +0.000 C 
ENDBRANCH  12  16
ENDBRANCH  10  12
ENDBRANCH   1  11
TORSDOF 6
ENDMDL
