MODEL 1
REMARK VINA RESULT:      -7.9      0.000      0.000
REMARK  Name = 
REMARK  6 active torsions:
REMARK  status: ('A' for Active; 'I' for Inactive)
REMARK    1  A    between atoms: C_1  and  C_2
REMARK    2  A    between atoms: C_2  and  C_15
REMARK    3  A    between atoms: N_3  and  N_4
REMARK    4  A    between atoms: N_4  and  S_5
REMARK    5  A    between atoms: S_5  and  C_8
REMARK    6  A    between atoms: C_11  and  C_12
REMARK                            x       y       z     vdW  Elec       q    Type
REMARK                         _______ _______ _______ _____ _____    ______ ____
ROOT
ATOM      1  C   UNL     1       5.345   5.023  19.657  0.00  0.00    +0.000 C 
ATOM      2  C   UNL     1       5.475   4.597  18.216  0.00  0.00    +0.000 C 
ATOM      3  N   UNL     1       4.869   3.597  17.648  0.00  0.00    +0.000 NA
ENDROOT
BRANCH   2   4
ATOM      4  C   UNL     1       6.397   5.428  17.337  0.00  0.00    +0.000 C 
ATOM      5  C   UNL     1       5.618   6.114  16.255  0.00  0.00    +0.000 C 
ATOM      6  O   UNL     1       4.729   6.928  16.507  0.00  0.00    +0.000 OA
ATOM      7  N   UNL     1       5.923   5.801  14.961  0.00  0.00    +0.000 N 
ATOM      8  C   UNL     1       6.914   4.969  14.547  0.00  0.00    +0.000 C 
ATOM      9  O   UNL     1       7.100   4.735  13.357  0.00  0.00    +0.000 OA
ATOM     10  N   UNL     1       7.702   4.433  15.516  0.00  0.00    +0.000 N 
ATOM     11  C   UNL     1       7.568   4.620  16.862  0.00  0.00    +0.000 C 
ATOM     12  O   UNL     1       8.386   4.142  17.647  0.00  0.00    +0.000 OA
ATOM     13  H   UNL     1       5.364   6.235  14.238  0.00  0.00    +0.000 HD
ATOM     14  H   UNL     1       8.466   3.850  15.205  0.00  0.00    +0.000 HD
ENDBRANCH   2   4
BRANCH   3  15
ATOM     15  N   UNL     1       3.982   2.781  18.410  0.00  0.00    +0.000 N 
ATOM     16  H   UNL     1       4.246   1.976  18.975  0.00  0.00    +0.000 HD
BRANCH  15  17
ATOM     17  S   UNL     1       2.295   2.941  18.211  0.00  0.00    +0.000 S 
ATOM     18  O   UNL     1       1.986   3.063  16.801  0.00  0.00    +0.000 OA
ATOM     19  O   UNL     1       1.690   1.917  19.035  0.00  0.00    +0.000 OA
BRANCH  17  20
ATOM     20  C   UNL     1       2.005   4.514  18.984  0.00  0.00    +0.000 A 
ATOM     21  C   UNL     1       1.710   4.569  20.348  0.00  0.00    +0.000 A 
ATOM     22  C   UNL     1       1.541   5.810  20.967  0.00  0.00    +0.000 A 
ATOM     23  C   UNL     1       1.673   6.997  20.232  0.00  0.00    +0.000 A 
ATOM     24  C   UNL     1       1.511   8.334  20.892  0.00  0.00    +0.000 C 
ATOM     25  C   UNL     1       1.973   6.925  18.863  0.00  0.00    +0.000 A 
ATOM     26  C   UNL     1       2.144   5.688  18.238  0.00  0.00    +0.000 A 
ENDBRANCH  17  20
ENDBRANCH  15  17
ENDBRANCH   3  15
TORSDOF 4
ENDMDL
MODEL 2
REMARK VINA RESULT:      -7.7      0.183      1.026
REMARK  Name = 
REMARK  6 active torsions:
REMARK  status: ('A' for Active; 'I' for Inactive)
REMARK    1  A    between atoms: C_1  and  C_2
REMARK    2  A    between atoms: C_2  and  C_15
REMARK    3  A    between atoms: N_3  and  N_4
REMARK    4  A    between atoms: N_4  and  S_5
REMARK    5  A    between atoms: S_5  and  C_8
REMARK    6  A    between atoms: C_11  and  C_12
REMARK                            x       y       z     vdW  Elec       q    Type
REMARK                         _______ _______ _______ _____ _____    ______ ____
ROOT
ATOM      1  C   UNL     1       5.459   4.911  19.712  0.00  0.00    +0.000 C 
ATOM      2  C   UNL     1       5.476   4.597  18.237  0.00  0.00    +0.000 C 
ATOM      3  N   UNL     1       4.762   3.694  17.632  0.00  0.00    +0.000 NA
ENDROOT
BRANCH   2   4
ATOM      4  C   UNL     1       6.409   5.427  17.370  0.00  0.00    +0.000 C 
ATOM      5  C   UNL     1       5.641   6.130  16.291  0.00  0.00    +0.000 C 
ATOM      6  O   UNL     1       4.759   6.950  16.546  0.00  0.00    +0.000 OA
ATOM      7  N   UNL     1       5.949   5.826  14.996  0.00  0.00    +0.000 N 
ATOM      8  C   UNL     1       6.935   4.989  14.579  0.00  0.00    +0.000 C 
ATOM      9  O   UNL     1       7.124   4.764  13.388  0.00  0.00    +0.000 OA
ATOM     10  N   UNL     1       7.713   4.436  15.547  0.00  0.00    +0.000 N 
ATOM     11  C   UNL     1       7.575   4.612  16.894  0.00  0.00    +0.000 C 
ATOM     12  O   UNL     1       8.384   4.119  17.677  0.00  0.00    +0.000 OA
ATOM     13  H   UNL     1       5.398   6.272  14.274  0.00  0.00    +0.000 HD
ATOM     14  H   UNL     1       8.473   3.849  15.233  0.00  0.00    +0.000 HD
ENDBRANCH   2   4
BRANCH   3  15
ATOM     15  N   UNL     1       3.858   2.885  18.382  0.00  0.00    +0.000 N 
ATOM     16  H   UNL     1       4.093   2.031  18.884  0.00  0.00    +0.000 HD
BRANCH  15  17
ATOM     17  S   UNL     1       2.178   3.158  18.269  0.00  0.00    +0.000 S 
ATOM     18  O   UNL     1       1.810   3.330  16.878  0.00  0.00    +0.000 OA
ATOM     19  O   UNL     1       1.547   2.159  19.103  0.00  0.00    +0.000 OA
BRANCH  17  20
ATOM     20  C   UNL     1       2.030   4.730  19.082  0.00  0.00    +0.000 A 
ATOM     21  C   UNL     1       2.242   5.905  18.358  0.00  0.00    +0.000 A 
ATOM     22  C   UNL     1       2.067   7.142  18.983  0.00  0.00    +0.000 A 
ATOM     23  C   UNL     1       1.672   7.212  20.327  0.00  0.00    +0.000 A 
ATOM     24  C   UNL     1       1.464   8.536  21.001  0.00  0.00    +0.000 C 
ATOM     25  C   UNL     1       1.459   6.023  21.041  0.00  0.00    +0.000 A 
ATOM     26  C   UNL     1       1.631   4.783  20.421  0.00  0.00    +0.000 A 
ENDBRANCH  17  20
ENDBRANCH  15  17
ENDBRANCH   3  15
TORSDOF 4
ENDMDL
MODEL 3
REMARK VINA RESULT:      -7.7      2.473      6.644
REMARK  Name = 
REMARK  6 active torsions:
REMARK  status: ('A' for Active; 'I' for Inactive)
REMARK    1  A    between atoms: C_1  and  C_2
REMARK    2  A    between atoms: C_2  and  C_15
REMARK    3  A    between atoms: N_3  and  N_4
REMARK    4  A    between atoms: N_4  and  S_5
REMARK    5  A    between atoms: S_5  and  C_8
REMARK    6  A    between atoms: C_11  and  C_12
REMARK                            x       y       z     vdW  Elec       q    Type
REMARK                         _______ _______ _______ _____ _____    ______ ____
ROOT
ATOM      1  C   UNL     1       2.723   7.224  17.521  0.00  0.00    +0.000 C 
ATOM      2  C   UNL     1       3.119   6.033  18.356  0.00  0.00    +0.000 C 
ATOM      3  N   UNL     1       4.331   5.629  18.601  0.00  0.00    +0.000 NA
ENDROOT
BRANCH   2   4
ATOM      4  C   UNL     1       1.991   5.232  18.987  0.00  0.00    +0.000 C 
ATOM      5  C   UNL     1       1.868   5.550  20.447  0.00  0.00    +0.000 C 
ATOM      6  O   UNL     1       1.609   6.685  20.847  0.00  0.00    +0.000 OA
ATOM      7  N   UNL     1       2.061   4.531  21.334  0.00  0.00    +0.000 N 
ATOM      8  C   UNL     1       2.293   3.228  21.024  0.00  0.00    +0.000 C 
ATOM      9  O   UNL     1       2.472   2.384  21.896  0.00  0.00    +0.000 OA
ATOM     10  N   UNL     1       2.289   2.907  19.703  0.00  0.00    +0.000 N 
ATOM     11  C   UNL     1       2.114   3.772  18.662  0.00  0.00    +0.000 C 
ATOM     12  O   UNL     1       2.057   3.359  17.505  0.00  0.00    +0.000 OA
ATOM     13  H   UNL     1       2.020   4.762  22.318  0.00  0.00    +0.000 HD
ATOM     14  H   UNL     1       2.418   1.931  19.476  0.00  0.00    +0.000 HD
ENDBRANCH   2   4
BRANCH   3  15
ATOM     15  N   UNL     1       5.439   6.339  18.050  0.00  0.00    +0.000 N 
ATOM     16  H   UNL     1       5.421   7.290  17.688  0.00  0.00    +0.000 HD
BRANCH  15  17
ATOM     17  S   UNL     1       6.888   5.511  17.696  0.00  0.00    +0.000 S 
ATOM     18  O   UNL     1       7.978   6.462  17.613  0.00  0.00    +0.000 OA
ATOM     19  O   UNL     1       6.937   4.377  18.593  0.00  0.00    +0.000 OA
BRANCH  17  20
ATOM     20  C   UNL     1       6.550   4.908  16.060  0.00  0.00    +0.000 A 
ATOM     21  C   UNL     1       7.402   5.250  15.008  0.00  0.00    +0.000 A 
ATOM     22  C   UNL     1       7.169   4.728  13.734  0.00  0.00    +0.000 A 
ATOM     23  C   UNL     1       6.093   3.857  13.506  0.00  0.00    +0.000 A 
ATOM     24  C   UNL     1       5.846   3.277  12.145  0.00  0.00    +0.000 C 
ATOM     25  C   UNL     1       5.248   3.520  14.574  0.00  0.00    +0.000 A 
ATOM     26  C   UNL     1       5.476   4.038  15.850  0.00  0.00    +0.000 A 
ENDBRANCH  17  20
ENDBRANCH  15  17
ENDBRANCH   3  15
TORSDOF 4
ENDMDL
MODEL 4
REMARK VINA RESULT:      -7.6      2.572      6.821
REMARK  Name = 
REMARK  6 active torsions:
REMARK  status: ('A' for Active; 'I' for Inactive)
REMARK    1  A    between atoms: C_1  and  C_2
REMARK    2  A    between atoms: C_2  and  C_15
REMARK    3  A    between atoms: N_3  and  N_4
REMARK    4  A    between atoms: N_4  and  S_5
REMARK    5  A    between atoms: S_5  and  C_8
REMARK    6  A    between atoms: C_11  and  C_12
REMARK                            x       y       z     vdW  Elec       q    Type
REMARK                         _______ _______ _______ _____ _____    ______ ____
ROOT
ATOM      1  C   UNL     1       2.972   5.597  18.722  0.00  0.00    +0.000 C 
ATOM      2  C   UNL     1       3.821   4.368  18.512  0.00  0.00    +0.000 C 
ATOM      3  N   UNL     1       5.016   4.332  18.002  0.00  0.00    +0.000 NA
ENDROOT
BRANCH   2   4
ATOM      4  C   UNL     1       3.225   3.040  18.954  0.00  0.00    +0.000 C 
ATOM      5  C   UNL     1       1.728   3.109  18.961  0.00  0.00    +0.000 C 
ATOM      6  O   UNL     1       1.080   3.334  17.938  0.00  0.00    +0.000 OA
ATOM      7  N   UNL     1       1.092   2.919  20.154  0.00  0.00    +0.000 N 
ATOM      8  C   UNL     1       1.681   2.607  21.338  0.00  0.00    +0.000 C 
ATOM      9  O   UNL     1       1.024   2.474  22.366  0.00  0.00    +0.000 OA
ATOM     10  N   UNL     1       3.028   2.427  21.319  0.00  0.00    +0.000 N 
ATOM     11  C   UNL     1       3.847   2.566  20.234  0.00  0.00    +0.000 C 
ATOM     12  O   UNL     1       5.046   2.307  20.316  0.00  0.00    +0.000 OA
ATOM     13  H   UNL     1       0.085   3.011  20.160  0.00  0.00    +0.000 HD
ATOM     14  H   UNL     1       3.459   2.152  22.190  0.00  0.00    +0.000 HD
ENDBRANCH   2   4
BRANCH   3  15
ATOM     15  N   UNL     1       5.640   5.541  17.575  0.00  0.00    +0.000 N 
ATOM     16  H   UNL     1       5.217   6.467  17.575  0.00  0.00    +0.000 HD
BRANCH  15  17
ATOM     17  S   UNL     1       7.128   5.482  16.741  0.00  0.00    +0.000 S 
ATOM     18  O   UNL     1       7.579   6.831  16.465  0.00  0.00    +0.000 OA
ATOM     19  O   UNL     1       7.957   4.536  17.456  0.00  0.00    +0.000 OA
BRANCH  17  20
ATOM     20  C   UNL     1       6.634   4.735  15.208  0.00  0.00    +0.000 A 
ATOM     21  C   UNL     1       5.429   4.032  15.139  0.00  0.00    +0.000 A 
ATOM     22  C   UNL     1       5.012   3.495  13.919  0.00  0.00    +0.000 A 
ATOM     23  C   UNL     1       5.789   3.665  12.763  0.00  0.00    +0.000 A 
ATOM     24  C   UNL     1       5.340   3.108  11.444  0.00  0.00    +0.000 C 
ATOM     25  C   UNL     1       6.995   4.377  12.847  0.00  0.00    +0.000 A 
ATOM     26  C   UNL     1       7.417   4.916  14.064  0.00  0.00    +0.000 A 
ENDBRANCH  17  20
ENDBRANCH  15  17
ENDBRANCH   3  15
TORSDOF 4
ENDMDL
MODEL 5
REMARK VINA RESULT:      -7.6      2.517      6.642
REMARK  Name = 
REMARK  6 active torsions:
REMARK  status: ('A' for Active; 'I' for Inactive)
REMARK    1  A    between atoms: C_1  and  C_2
REMARK    2  A    between atoms: C_2  and  C_15
REMARK    3  A    between atoms: N_3  and  N_4
REMARK    4  A    between atoms: N_4  and  S_5
REMARK    5  A    between atoms: S_5  and  C_8
REMARK    6  A    between atoms: C_11  and  C_12
REMARK                            x       y       z     vdW  Elec       q    Type
REMARK                         _______ _______ _______ _____ _____    ______ ____
ROOT
ATOM      1  C   UNL     1       2.391   7.683  17.862  0.00  0.00    +0.000 C 
ATOM      2  C   UNL     1       2.898   6.338  18.318  0.00  0.00    +0.000 C 
ATOM      3  N   UNL     1       4.105   5.877  18.172  0.00  0.00    +0.000 NA
ENDROOT
BRANCH   2   4
ATOM      4  C   UNL     1       1.903   5.436  19.031  0.00  0.00    +0.000 C 
ATOM      5  C   UNL     1       1.903   5.710  20.505  0.00  0.00    +0.000 C 
ATOM      6  O   UNL     1       1.601   6.811  20.965  0.00  0.00    +0.000 OA
ATOM      7  N   UNL     1       2.261   4.688  21.337  0.00  0.00    +0.000 N 
ATOM      8  C   UNL     1       2.559   3.415  20.966  0.00  0.00    +0.000 C 
ATOM      9  O   UNL     1       2.889   2.567  21.789  0.00  0.00    +0.000 OA
ATOM     10  N   UNL     1       2.447   3.126  19.642  0.00  0.00    +0.000 N 
ATOM     11  C   UNL     1       2.103   3.999  18.650  0.00  0.00    +0.000 C 
ATOM     12  O   UNL     1       1.962   3.609  17.492  0.00  0.00    +0.000 OA
ATOM     13  H   UNL     1       2.303   4.892  22.327  0.00  0.00    +0.000 HD
ATOM     14  H   UNL     1       2.626   2.169  19.373  0.00  0.00    +0.000 HD
ENDBRANCH   2   4
BRANCH   3  15
ATOM     15  N   UNL     1       5.093   6.673  17.521  0.00  0.00    +0.000 N 
ATOM     16  H   UNL     1       4.926   7.542  17.016  0.00  0.00    +0.000 HD
BRANCH  15  17
ATOM     17  S   UNL     1       6.670   6.061  17.303  0.00  0.00    +0.000 S 
ATOM     18  O   UNL     1       7.584   7.159  17.060  0.00  0.00    +0.000 OA
ATOM     19  O   UNL     1       6.890   5.114  18.375  0.00  0.00    +0.000 OA
BRANCH  17  20
ATOM     20  C   UNL     1       6.480   5.150  15.791  0.00  0.00    +0.000 A 
ATOM     21  C   UNL     1       5.396   4.283  15.638  0.00  0.00    +0.000 A 
ATOM     22  C   UNL     1       5.214   3.612  14.427  0.00  0.00    +0.000 A 
ATOM     23  C   UNL     1       6.106   3.809  13.363  0.00  0.00    +0.000 A 
ATOM     24  C   UNL     1       5.908   3.106  12.052  0.00  0.00    +0.000 C 
ATOM     25  C   UNL     1       7.188   4.685  13.529  0.00  0.00    +0.000 A 
ATOM     26  C   UNL     1       7.375   5.360  14.738  0.00  0.00    +0.000 A 
ENDBRANCH  17  20
ENDBRANCH  15  17
ENDBRANCH   3  15
TORSDOF 4
ENDMDL
MODEL 6
REMARK VINA RESULT:      -7.5      2.548      7.054
REMARK  Name = 
REMARK  6 active torsions:
REMARK  status: ('A' for Active; 'I' for Inactive)
REMARK    1  A    between atoms: C_1  and  C_2
REMARK    2  A    between atoms: C_2  and  C_15
REMARK    3  A    between atoms: N_3  and  N_4
REMARK    4  A    between atoms: N_4  and  S_5
REMARK    5  A    between atoms: S_5  and  C_8
REMARK    6  A    between atoms: C_11  and  C_12
REMARK                            x       y       z     vdW  Elec       q    Type
REMARK                         _______ _______ _______ _____ _____    ______ ____
ROOT
ATOM      1  C   UNL     1       3.814   5.520  19.523  0.00  0.00    +0.000 C 
ATOM      2  C   UNL     1       3.872   4.387  18.530  0.00  0.00    +0.000 C 
ATOM      3  N   UNL     1       4.431   4.416  17.356  0.00  0.00    +0.000 NA
ENDROOT
BRANCH   2   4
ATOM      4  C   UNL     1       3.226   3.076  18.948  0.00  0.00    +0.000 C 
ATOM      5  C   UNL     1       1.734   3.215  19.000  0.00  0.00    +0.000 C 
ATOM      6  O   UNL     1       1.070   3.503  18.004  0.00  0.00    +0.000 OA
ATOM      7  N   UNL     1       1.123   3.017  20.205  0.00  0.00    +0.000 N 
ATOM      8  C   UNL     1       1.729   2.640  21.361  0.00  0.00    +0.000 C 
ATOM      9  O   UNL     1       1.095   2.504  22.403  0.00  0.00    +0.000 OA
ATOM     10  N   UNL     1       3.065   2.396  21.297  0.00  0.00    +0.000 N 
ATOM     11  C   UNL     1       3.859   2.532  20.194  0.00  0.00    +0.000 C 
ATOM     12  O   UNL     1       5.046   2.213  20.233  0.00  0.00    +0.000 OA
ATOM     13  H   UNL     1       0.122   3.156  20.243  0.00  0.00    +0.000 HD
ATOM     14  H   UNL     1       3.506   2.073  22.147  0.00  0.00    +0.000 HD
ENDBRANCH   2   4
BRANCH   3  15
ATOM     15  N   UNL     1       5.065   5.611  16.903  0.00  0.00    +0.000 N 
ATOM     16  H   UNL     1       4.594   6.463  16.603  0.00  0.00    +0.000 HD
BRANCH  15  17
ATOM     17  S   UNL     1       6.737   5.610  16.562  0.00  0.00    +0.000 S 
ATOM     18  O   UNL     1       7.220   6.976  16.518  0.00  0.00    +0.000 OA
ATOM     19  O   UNL     1       7.330   4.624  17.439  0.00  0.00    +0.000 OA
BRANCH  17  20
ATOM     20  C   UNL     1       6.751   4.961  14.910  0.00  0.00    +0.000 A 
ATOM     21  C   UNL     1       7.681   5.443  13.986  0.00  0.00    +0.000 A 
ATOM     22  C   UNL     1       7.731   4.890  12.705  0.00  0.00    +0.000 A 
ATOM     23  C   UNL     1       6.861   3.851  12.342  0.00  0.00    +0.000 A 
ATOM     24  C   UNL     1       6.920   3.239  10.974  0.00  0.00    +0.000 C 
ATOM     25  C   UNL     1       5.934   3.375  13.282  0.00  0.00    +0.000 A 
ATOM     26  C   UNL     1       5.880   3.923  14.565  0.00  0.00    +0.000 A 
ENDBRANCH  17  20
ENDBRANCH  15  17
ENDBRANCH   3  15
TORSDOF 4
ENDMDL
MODEL 7
REMARK VINA RESULT:      -7.5      2.518      3.543
REMARK  Name = 
REMARK  6 active torsions:
REMARK  status: ('A' for Active; 'I' for Inactive)
REMARK    1  A    between atoms: C_1  and  C_2
REMARK    2  A    between atoms: C_2  and  C_15
REMARK    3  A    between atoms: N_3  and  N_4
REMARK    4  A    between atoms: N_4  and  S_5
REMARK    5  A    between atoms: S_5  and  C_8
REMARK    6  A    between atoms: C_11  and  C_12
REMARK                            x       y       z     vdW  Elec       q    Type
REMARK                         _______ _______ _______ _____ _____    ______ ____
ROOT
ATOM      1  C   UNL     1       5.224   3.373  18.862  0.00  0.00    +0.000 C 
ATOM      2  C   UNL     1       5.555   4.845  18.824  0.00  0.00    +0.000 C 
ATOM      3  N   UNL     1       4.883   5.802  19.392  0.00  0.00    +0.000 NA
ENDROOT
BRANCH   2   4
ATOM      4  C   UNL     1       6.805   5.247  18.058  0.00  0.00    +0.000 C 
ATOM      5  C   UNL     1       7.850   5.779  18.993  0.00  0.00    +0.000 C 
ATOM      6  O   UNL     1       8.331   5.091  19.893  0.00  0.00    +0.000 OA
ATOM      7  N   UNL     1       8.254   7.071  18.819  0.00  0.00    +0.000 N 
ATOM      8  C   UNL     1       7.848   7.915  17.834  0.00  0.00    +0.000 C 
ATOM      9  O   UNL     1       8.256   9.070  17.770  0.00  0.00    +0.000 OA
ATOM     10  N   UNL     1       6.990   7.405  16.911  0.00  0.00    +0.000 N 
ATOM     11  C   UNL     1       6.469   6.142  16.903  0.00  0.00    +0.000 C 
ATOM     12  O   UNL     1       5.756   5.764  15.975  0.00  0.00    +0.000 OA
ATOM     13  H   UNL     1       8.926   7.437  19.480  0.00  0.00    +0.000 HD
ATOM     14  H   UNL     1       6.723   8.019  16.155  0.00  0.00    +0.000 HD
ENDBRANCH   2   4
BRANCH   3  15
ATOM     15  N   UNL     1       3.705   5.497  20.135  0.00  0.00    +0.000 N 
ATOM     16  H   UNL     1       3.673   5.084  21.065  0.00  0.00    +0.000 HD
BRANCH  15  17
ATOM     17  S   UNL     1       2.179   5.558  19.374  0.00  0.00    +0.000 S 
ATOM     18  O   UNL     1       2.286   5.011  18.036  0.00  0.00    +0.000 OA
ATOM     19  O   UNL     1       1.226   5.041  20.331  0.00  0.00    +0.000 OA
BRANCH  17  20
ATOM     20  C   UNL     1       1.932   7.312  19.240  0.00  0.00    +0.000 A 
ATOM     21  C   UNL     1       2.169   7.952  18.022  0.00  0.00    +0.000 A 
ATOM     22  C   UNL     1       1.918   9.321  17.901  0.00  0.00    +0.000 A 
ATOM     23  C   UNL     1       1.421  10.052  18.990  0.00  0.00    +0.000 A 
ATOM     24  C   UNL     1       1.131  11.519  18.864  0.00  0.00    +0.000 C 
ATOM     25  C   UNL     1       1.184   9.395  20.206  0.00  0.00    +0.000 A 
ATOM     26  C   UNL     1       1.433   8.027  20.333  0.00  0.00    +0.000 A 
ENDBRANCH  17  20
ENDBRANCH  15  17
ENDBRANCH   3  15
TORSDOF 4
ENDMDL
MODEL 8
REMARK VINA RESULT:      -7.4      1.510      2.467
REMARK  Name = 
REMARK  6 active torsions:
REMARK  status: ('A' for Active; 'I' for Inactive)
REMARK    1  A    between atoms: C_1  and  C_2
REMARK    2  A    between atoms: C_2  and  C_15
REMARK    3  A    between atoms: N_3  and  N_4
REMARK    4  A    between atoms: N_4  and  S_5
REMARK    5  A    between atoms: S_5  and  C_8
REMARK    6  A    between atoms: C_11  and  C_12
REMARK                            x       y       z     vdW  Elec       q    Type
REMARK                         _______ _______ _______ _____ _____    ______ ____
ROOT
ATOM      1  C   UNL     1       5.326   4.957  19.646  0.00  0.00    +0.000 C 
ATOM      2  C   UNL     1       5.630   4.378  18.287  0.00  0.00    +0.000 C 
ATOM      3  N   UNL     1       5.023   3.378  17.720  0.00  0.00    +0.000 NA
ENDROOT
BRANCH   2   4
ATOM      4  C   UNL     1       6.748   5.038  17.495  0.00  0.00    +0.000 C 
ATOM      5  C   UNL     1       7.817   5.548  18.415  0.00  0.00    +0.000 C 
ATOM      6  O   UNL     1       8.456   4.798  19.152  0.00  0.00    +0.000 OA
ATOM      7  N   UNL     1       8.061   6.891  18.416  0.00  0.00    +0.000 N 
ATOM      8  C   UNL     1       7.471   7.817  17.615  0.00  0.00    +0.000 C 
ATOM      9  O   UNL     1       7.744   9.010  17.704  0.00  0.00    +0.000 OA
ATOM     10  N   UNL     1       6.585   7.349  16.696  0.00  0.00    +0.000 N 
ATOM     11  C   UNL     1       6.205   6.049  16.529  0.00  0.00    +0.000 C 
ATOM     12  O   UNL     1       5.447   5.729  15.614  0.00  0.00    +0.000 OA
ATOM     13  H   UNL     1       8.752   7.234  19.071  0.00  0.00    +0.000 HD
ATOM     14  H   UNL     1       6.180   8.033  16.071  0.00  0.00    +0.000 HD
ENDBRANCH   2   4
BRANCH   3  15
ATOM     15  N   UNL     1       3.959   2.717  18.401  0.00  0.00    +0.000 N 
ATOM     16  H   UNL     1       4.053   1.931  19.041  0.00  0.00    +0.000 HD
BRANCH  15  17
ATOM     17  S   UNL     1       2.341   3.041  17.967  0.00  0.00    +0.000 S 
ATOM     18  O   UNL     1       2.261   3.268  16.538  0.00  0.00    +0.000 OA
ATOM     19  O   UNL     1       1.535   2.032  18.621  0.00  0.00    +0.000 OA
BRANCH  17  20
ATOM     20  C   UNL     1       2.066   4.588  18.794  0.00  0.00    +0.000 A 
ATOM     21  C   UNL     1       1.675   4.596  20.134  0.00  0.00    +0.000 A 
ATOM     22  C   UNL     1       1.516   5.813  20.800  0.00  0.00    +0.000 A 
ATOM     23  C   UNL     1       1.755   7.025  20.136  0.00  0.00    +0.000 A 
ATOM     24  C   UNL     1       1.605   8.337  20.848  0.00  0.00    +0.000 C 
ATOM     25  C   UNL     1       2.151   7.002  18.790  0.00  0.00    +0.000 A 
ATOM     26  C   UNL     1       2.312   5.788  18.119  0.00  0.00    +0.000 A 
ENDBRANCH  17  20
ENDBRANCH  15  17
ENDBRANCH   3  15
TORSDOF 4
ENDMDL
MODEL 9
REMARK VINA RESULT:      -7.4      1.501      2.658
REMARK  Name = 
REMARK  6 active torsions:
REMARK  status: ('A' for Active; 'I' for Inactive)
REMARK    1  A    between atoms: C_1  and  C_2
REMARK    2  A    between atoms: C_2  and  C_15
REMARK    3  A    between atoms: N_3  and  N_4
REMARK    4  A    between atoms: N_4  and  S_5
REMARK    5  A    between atoms: S_5  and  C_8
REMARK    6  A    between atoms: C_11  and  C_12
REMARK                            x       y       z     vdW  Elec       q    Type
REMARK                         _______ _______ _______ _____ _____    ______ ____
ROOT
ATOM      1  C   UNL     1       5.365   4.885  19.645  0.00  0.00    +0.000 C 
ATOM      2  C   UNL     1       5.633   4.349  18.261  0.00  0.00    +0.000 C 
ATOM      3  N   UNL     1       4.998   3.381  17.671  0.00  0.00    +0.000 NA
ENDROOT
BRANCH   2   4
ATOM      4  C   UNL     1       6.748   5.018  17.472  0.00  0.00    +0.000 C 
ATOM      5  C   UNL     1       7.815   5.530  18.393  0.00  0.00    +0.000 C 
ATOM      6  O   UNL     1       8.457   4.780  19.128  0.00  0.00    +0.000 OA
ATOM      7  N   UNL     1       8.052   6.874  18.399  0.00  0.00    +0.000 N 
ATOM      8  C   UNL     1       7.458   7.799  17.601  0.00  0.00    +0.000 C 
ATOM      9  O   UNL     1       7.725   8.993  17.693  0.00  0.00    +0.000 OA
ATOM     10  N   UNL     1       6.574   7.331  16.680  0.00  0.00    +0.000 N 
ATOM     11  C   UNL     1       6.200   6.029  16.508  0.00  0.00    +0.000 C 
ATOM     12  O   UNL     1       5.444   5.708  15.593  0.00  0.00    +0.000 OA
ATOM     13  H   UNL     1       8.741   7.218  19.055  0.00  0.00    +0.000 HD
ATOM     14  H   UNL     1       6.166   8.014  16.057  0.00  0.00    +0.000 HD
ENDBRANCH   2   4
BRANCH   3  15
ATOM     15  N   UNL     1       3.934   2.715  18.349  0.00  0.00    +0.000 N 
ATOM     16  H   UNL     1       4.024   1.892  18.942  0.00  0.00    +0.000 HD
BRANCH  15  17
ATOM     17  S   UNL     1       2.315   3.111  17.987  0.00  0.00    +0.000 S 
ATOM     18  O   UNL     1       2.188   3.368  16.566  0.00  0.00    +0.000 OA
ATOM     19  O   UNL     1       1.496   2.123  18.655  0.00  0.00    +0.000 OA
BRANCH  17  20
ATOM     20  C   UNL     1       2.136   4.653  18.849  0.00  0.00    +0.000 A 
ATOM     21  C   UNL     1       2.370   5.853  18.175  0.00  0.00    +0.000 A 
ATOM     22  C   UNL     1       2.172   7.067  18.836  0.00  0.00    +0.000 A 
ATOM     23  C   UNL     1       1.732   7.088  20.168  0.00  0.00    +0.000 A 
ATOM     24  C   UNL     1       1.499   8.388  20.881  0.00  0.00    +0.000 C 
ATOM     25  C   UNL     1       1.497   5.875  20.831  0.00  0.00    +0.000 A 
ATOM     26  C   UNL     1       1.693   4.658  20.175  0.00  0.00    +0.000 A 
ENDBRANCH  17  20
ENDBRANCH  15  17
ENDBRANCH   3  15
TORSDOF 4
ENDMDL
