MODEL 1
REMARK VINA RESULT:      -6.9      0.000      0.000
REMARK  Name = 
REMARK  10 active torsions:
REMARK  status: ('A' for Active; 'I' for Inactive)
REMARK    1  A    between atoms: C_1  and  O_2
REMARK    2  A    between atoms: O_2  and  C_3
REMARK    3  A    between atoms: C_3  and  C_5
REMARK    4  A    between atoms: C_5  and  C_6
REMARK    5  A    between atoms: C_7  and  C_8
REMARK    6  A    between atoms: C_8  and  O_10
REMARK    7  A    between atoms: O_10  and  C_11
REMARK    8  A    between atoms: N_14  and  C_15
REMARK    9  A    between atoms: C_18  and  O_19
REMARK   10  A    between atoms: O_19  and  C_20
REMARK                            x       y       z     vdW  Elec       q    Type
REMARK                         _______ _______ _______ _____ _____    ______ ____
ROOT
ATOM      1  C   UNL     1       2.956   5.386  19.095  0.00  0.00    +0.000 A 
ATOM      2  C   UNL     1       4.119   4.761  18.652  0.00  0.00    +0.000 A 
ATOM      3  N   UNL     1       4.842   5.646  17.899  0.00  0.00    +0.000 NA
ATOM      4  N   UNL     1       4.168   6.780  17.829  0.00  0.00    +0.000 NA
ATOM      5  N   UNL     1       3.077   6.687  18.628  0.00  0.00    +0.000 N 
ENDROOT
BRANCH   5   6
ATOM      6  C   UNL     1       2.246   7.821  18.815  0.00  0.00    +0.000 A 
ATOM      7  C   UNL     1       1.703   8.062  20.085  0.00  0.00    +0.000 A 
ATOM      8  C   UNL     1       0.917   9.196  20.305  0.00  0.00    +0.000 A 
ATOM      9  C   UNL     1       0.641  10.085  19.265  0.00  0.00    +0.000 A 
ATOM     10  C   UNL     1       1.101   9.792  17.984  0.00  0.00    +0.000 A 
ATOM     11  C   UNL     1       1.920   8.679  17.762  0.00  0.00    +0.000 A 
BRANCH   9  12
ATOM     12  O   UNL     1      -0.148  11.141  19.601  0.00  0.00    +0.000 OA
BRANCH  12  13
ATOM     13  C   UNL     1      -1.449  11.251  19.036  0.00  0.00    +0.000 C 
ATOM     14  F   UNL     1      -2.003  10.080  18.662  0.00  0.00    +0.000 F 
ATOM     15  F   UNL     1      -2.268  11.848  19.930  0.00  0.00    +0.000 F 
ATOM     16  F   UNL     1      -1.377  12.040  17.940  0.00  0.00    +0.000 F 
ENDBRANCH  12  13
ENDBRANCH   9  12
ENDBRANCH   5   6
BRANCH   2  17
ATOM     17  C   UNL     1       4.539   3.382  18.863  0.00  0.00    +0.000 C 
ATOM     18  O   UNL     1       5.187   3.014  19.834  0.00  0.00    +0.000 OA
BRANCH  17  19
ATOM     19  O   UNL     1       4.112   2.554  17.864  0.00  0.00    +0.000 OA
ATOM     20  C   UNL     1       3.711   1.256  18.294  0.00  0.00    +0.000 C 
ENDBRANCH  17  19
ENDBRANCH   2  17
BRANCH   1  21
ATOM     21  C   UNL     1       1.775   4.821  19.820  0.00  0.00    +0.000 C 
BRANCH  21  22
ATOM     22  C   UNL     1       1.134   3.698  19.029  0.00  0.00    +0.000 C 
ATOM     23  O   UNL     1       0.907   3.720  17.826  0.00  0.00    +0.000 OA
BRANCH  22  25
ATOM     24  C   UNL     1       1.342   2.834  21.189  0.00  0.00    +0.000 C 
ATOM     25  O   UNL     1       0.916   2.624  19.841  0.00  0.00    +0.000 OA
ENDBRANCH  22  25
ENDBRANCH  21  22
ENDBRANCH   1  21
TORSDOF 8
ENDMDL
MODEL 2
REMARK VINA RESULT:      -6.9      1.163      1.764
REMARK  Name = 
REMARK  10 active torsions:
REMARK  status: ('A' for Active; 'I' for Inactive)
REMARK    1  A    between atoms: C_1  and  O_2
REMARK    2  A    between atoms: O_2  and  C_3
REMARK    3  A    between atoms: C_3  and  C_5
REMARK    4  A    between atoms: C_5  and  C_6
REMARK    5  A    between atoms: C_7  and  C_8
REMARK    6  A    between atoms: C_8  and  O_10
REMARK    7  A    between atoms: O_10  and  C_11
REMARK    8  A    between atoms: N_14  and  C_15
REMARK    9  A    between atoms: C_18  and  O_19
REMARK   10  A    between atoms: O_19  and  C_20
REMARK                            x       y       z     vdW  Elec       q    Type
REMARK                         _______ _______ _______ _____ _____    ______ ____
ROOT
ATOM      1  C   UNL     1       2.909   4.502  18.623  0.00  0.00    +0.000 A 
ATOM      2  C   UNL     1       4.021   3.695  18.851  0.00  0.00    +0.000 A 
ATOM      3  N   UNL     1       5.086   4.486  19.184  0.00  0.00    +0.000 NA
ATOM      4  N   UNL     1       4.696   5.747  19.144  0.00  0.00    +0.000 NA
ATOM      5  N   UNL     1       3.361   5.782  18.911  0.00  0.00    +0.000 N 
ENDROOT
BRANCH   5   6
ATOM      6  C   UNL     1       2.677   7.024  18.935  0.00  0.00    +0.000 A 
ATOM      7  C   UNL     1       2.747   7.858  17.810  0.00  0.00    +0.000 A 
ATOM      8  C   UNL     1       2.046   9.067  17.792  0.00  0.00    +0.000 A 
ATOM      9  C   UNL     1       1.292   9.471  18.896  0.00  0.00    +0.000 A 
ATOM     10  C   UNL     1       1.304   8.687  20.046  0.00  0.00    +0.000 A 
ATOM     11  C   UNL     1       1.972   7.458  20.060  0.00  0.00    +0.000 A 
BRANCH   9  12
ATOM     12  O   UNL     1       0.671  10.673  18.762  0.00  0.00    +0.000 OA
BRANCH  12  13
ATOM     13  C   UNL     1      -0.712  10.713  18.428  0.00  0.00    +0.000 C 
ATOM     14  F   UNL     1      -1.086   9.840  17.470  0.00  0.00    +0.000 F 
ATOM     15  F   UNL     1      -1.441  10.471  19.540  0.00  0.00    +0.000 F 
ATOM     16  F   UNL     1      -1.012  11.957  17.990  0.00  0.00    +0.000 F 
ENDBRANCH  12  13
ENDBRANCH   9  12
ENDBRANCH   5   6
BRANCH   2  17
ATOM     17  C   UNL     1       4.127   2.248  18.721  0.00  0.00    +0.000 C 
ATOM     18  O   UNL     1       3.595   1.609  17.822  0.00  0.00    +0.000 OA
BRANCH  17  19
ATOM     19  O   UNL     1       4.899   1.696  19.704  0.00  0.00    +0.000 OA
ATOM     20  C   UNL     1       4.423   1.911  21.029  0.00  0.00    +0.000 C 
ENDBRANCH  17  19
ENDBRANCH   2  17
BRANCH   1  21
ATOM     21  C   UNL     1       1.554   4.148  18.099  0.00  0.00    +0.000 C 
BRANCH  21  22
ATOM     22  C   UNL     1       0.785   3.302  19.095  0.00  0.00    +0.000 C 
ATOM     23  O   UNL     1       0.248   2.230  18.847  0.00  0.00    +0.000 OA
BRANCH  22  25
ATOM     24  C   UNL     1       1.170   2.944  21.370  0.00  0.00    +0.000 C 
ATOM     25  O   UNL     1       0.846   3.872  20.333  0.00  0.00    +0.000 OA
ENDBRANCH  22  25
ENDBRANCH  21  22
ENDBRANCH   1  21
TORSDOF 8
ENDMDL
MODEL 3
REMARK VINA RESULT:      -6.8      1.827      3.080
REMARK  Name = 
REMARK  10 active torsions:
REMARK  status: ('A' for Active; 'I' for Inactive)
REMARK    1  A    between atoms: C_1  and  O_2
REMARK    2  A    between atoms: O_2  and  C_3
REMARK    3  A    between atoms: C_3  and  C_5
REMARK    4  A    between atoms: C_5  and  C_6
REMARK    5  A    between atoms: C_7  and  C_8
REMARK    6  A    between atoms: C_8  and  O_10
REMARK    7  A    between atoms: O_10  and  C_11
REMARK    8  A    between atoms: N_14  and  C_15
REMARK    9  A    between atoms: C_18  and  O_19
REMARK   10  A    between atoms: O_19  and  C_20
REMARK                            x       y       z     vdW  Elec       q    Type
REMARK                         _______ _______ _______ _____ _____    ______ ____
ROOT
ATOM      1  C   UNL     1       3.572   4.779  19.644  0.00  0.00    +0.000 A 
ATOM      2  C   UNL     1       3.283   3.454  19.962  0.00  0.00    +0.000 A 
ATOM      3  N   UNL     1       2.021   3.386  20.487  0.00  0.00    +0.000 NA
ATOM      4  N   UNL     1       1.525   4.609  20.536  0.00  0.00    +0.000 NA
ATOM      5  N   UNL     1       2.397   5.457  19.937  0.00  0.00    +0.000 N 
ENDROOT
BRANCH   5   6
ATOM      6  C   UNL     1       2.043   6.818  19.759  0.00  0.00    +0.000 A 
ATOM      7  C   UNL     1       2.294   7.429  18.523  0.00  0.00    +0.000 A 
ATOM      8  C   UNL     1       1.915   8.756  18.309  0.00  0.00    +0.000 A 
ATOM      9  C   UNL     1       1.308   9.497  19.325  0.00  0.00    +0.000 A 
ATOM     10  C   UNL     1       1.147   8.919  20.580  0.00  0.00    +0.000 A 
ATOM     11  C   UNL     1       1.490   7.578  20.793  0.00  0.00    +0.000 A 
BRANCH   9  12
ATOM     12  O   UNL     1       1.001  10.781  18.999  0.00  0.00    +0.000 OA
BRANCH  12  13
ATOM     13  C   UNL     1      -0.363  11.166  18.878  0.00  0.00    +0.000 C 
ATOM     14  F   UNL     1      -1.003  11.354  20.050  0.00  0.00    +0.000 F 
ATOM     15  F   UNL     1      -0.436  12.310  18.161  0.00  0.00    +0.000 F 
ATOM     16  F   UNL     1      -1.024  10.202  18.199  0.00  0.00    +0.000 F 
ENDBRANCH  12  13
ENDBRANCH   9  12
ENDBRANCH   5   6
BRANCH   2  17
ATOM     17  C   UNL     1       4.147   2.288  19.842  0.00  0.00    +0.000 C 
ATOM     18  O   UNL     1       5.180   2.143  20.485  0.00  0.00    +0.000 OA
BRANCH  17  19
ATOM     19  O   UNL     1       3.664   1.376  18.947  0.00  0.00    +0.000 OA
ATOM     20  C   UNL     1       3.347   1.908  17.664  0.00  0.00    +0.000 C 
ENDBRANCH  17  19
ENDBRANCH   2  17
BRANCH   1  21
ATOM     21  C   UNL     1       4.852   5.401  19.184  0.00  0.00    +0.000 C 
BRANCH  21  22
ATOM     22  C   UNL     1       5.153   5.034  17.744  0.00  0.00    +0.000 C 
ATOM     23  O   UNL     1       4.485   5.369  16.774  0.00  0.00    +0.000 OA
BRANCH  22  25
ATOM     24  C   UNL     1       7.459   5.095  18.105  0.00  0.00    +0.000 C 
ATOM     25  O   UNL     1       6.325   4.339  17.677  0.00  0.00    +0.000 OA
ENDBRANCH  22  25
ENDBRANCH  21  22
ENDBRANCH   1  21
TORSDOF 8
ENDMDL
MODEL 4
REMARK VINA RESULT:      -6.8      0.621      1.290
REMARK  Name = 
REMARK  10 active torsions:
REMARK  status: ('A' for Active; 'I' for Inactive)
REMARK    1  A    between atoms: C_1  and  O_2
REMARK    2  A    between atoms: O_2  and  C_3
REMARK    3  A    between atoms: C_3  and  C_5
REMARK    4  A    between atoms: C_5  and  C_6
REMARK    5  A    between atoms: C_7  and  C_8
REMARK    6  A    between atoms: C_8  and  O_10
REMARK    7  A    between atoms: O_10  and  C_11
REMARK    8  A    between atoms: N_14  and  C_15
REMARK    9  A    between atoms: C_18  and  O_19
REMARK   10  A    between atoms: O_19  and  C_20
REMARK                            x       y       z     vdW  Elec       q    Type
REMARK                         _______ _______ _______ _____ _____    ______ ____
ROOT
ATOM      1  C   UNL     1       3.030   5.598  19.222  0.00  0.00    +0.000 A 
ATOM      2  C   UNL     1       4.029   4.884  18.565  0.00  0.00    +0.000 A 
ATOM      3  N   UNL     1       4.518   5.644  17.538  0.00  0.00    +0.000 NA
ATOM      4  N   UNL     1       3.850   6.783  17.509  0.00  0.00    +0.000 NA
ATOM      5  N   UNL     1       3.018   6.827  18.578  0.00  0.00    +0.000 N 
ENDROOT
BRANCH   5   6
ATOM      6  C   UNL     1       2.269   8.003  18.837  0.00  0.00    +0.000 A 
ATOM      7  C   UNL     1       2.128   8.956  17.818  0.00  0.00    +0.000 A 
ATOM      8  C   UNL     1       1.358  10.101  18.034  0.00  0.00    +0.000 A 
ATOM      9  C   UNL     1       0.744  10.326  19.267  0.00  0.00    +0.000 A 
ATOM     10  C   UNL     1       0.964   9.426  20.307  0.00  0.00    +0.000 A 
ATOM     11  C   UNL     1       1.703   8.257  20.088  0.00  0.00    +0.000 A 
BRANCH   9  12
ATOM     12  O   UNL     1       0.036  11.483  19.358  0.00  0.00    +0.000 OA
BRANCH  12  13
ATOM     13  C   UNL     1      -1.357  11.433  19.639  0.00  0.00    +0.000 C 
ATOM     14  F   UNL     1      -1.666  11.327  20.948  0.00  0.00    +0.000 F 
ATOM     15  F   UNL     1      -1.946  12.545  19.147  0.00  0.00    +0.000 F 
ATOM     16  F   UNL     1      -1.885  10.362  19.005  0.00  0.00    +0.000 F 
ENDBRANCH  12  13
ENDBRANCH   9  12
ENDBRANCH   5   6
BRANCH   2  17
ATOM     17  C   UNL     1       4.492   3.529  18.829  0.00  0.00    +0.000 C 
ATOM     18  O   UNL     1       5.261   3.241  19.738  0.00  0.00    +0.000 OA
BRANCH  17  19
ATOM     19  O   UNL     1       3.957   2.621  17.958  0.00  0.00    +0.000 OA
ATOM     20  C   UNL     1       3.585   1.378  18.545  0.00  0.00    +0.000 C 
ENDBRANCH  17  19
ENDBRANCH   2  17
BRANCH   1  21
ATOM     21  C   UNL     1       2.093   5.167  20.306  0.00  0.00    +0.000 C 
BRANCH  21  22
ATOM     22  C   UNL     1       1.244   3.993  19.860  0.00  0.00    +0.000 C 
ATOM     23  O   UNL     1       0.926   3.749  18.703  0.00  0.00    +0.000 OA
BRANCH  22  25
ATOM     24  C   UNL     1       2.107   2.732  21.626  0.00  0.00    +0.000 C 
ATOM     25  O   UNL     1       0.950   3.199  20.930  0.00  0.00    +0.000 OA
ENDBRANCH  22  25
ENDBRANCH  21  22
ENDBRANCH   1  21
TORSDOF 8
ENDMDL
MODEL 5
REMARK VINA RESULT:      -6.8      1.723      3.089
REMARK  Name = 
REMARK  10 active torsions:
REMARK  status: ('A' for Active; 'I' for Inactive)
REMARK    1  A    between atoms: C_1  and  O_2
REMARK    2  A    between atoms: O_2  and  C_3
REMARK    3  A    between atoms: C_3  and  C_5
REMARK    4  A    between atoms: C_5  and  C_6
REMARK    5  A    between atoms: C_7  and  C_8
REMARK    6  A    between atoms: C_8  and  O_10
REMARK    7  A    between atoms: O_10  and  C_11
REMARK    8  A    between atoms: N_14  and  C_15
REMARK    9  A    between atoms: C_18  and  O_19
REMARK   10  A    between atoms: O_19  and  C_20
REMARK                            x       y       z     vdW  Elec       q    Type
REMARK                         _______ _______ _______ _____ _____    ______ ____
ROOT
ATOM      1  C   UNL     1       3.553   5.128  19.250  0.00  0.00    +0.000 A 
ATOM      2  C   UNL     1       3.432   3.857  19.807  0.00  0.00    +0.000 A 
ATOM      3  N   UNL     1       2.437   3.874  20.745  0.00  0.00    +0.000 NA
ATOM      4  N   UNL     1       1.955   5.102  20.819  0.00  0.00    +0.000 NA
ATOM      5  N   UNL     1       2.537   5.856  19.854  0.00  0.00    +0.000 N 
ENDROOT
BRANCH   5   6
ATOM      6  C   UNL     1       2.104   7.190  19.651  0.00  0.00    +0.000 A 
ATOM      7  C   UNL     1       2.288   7.779  18.392  0.00  0.00    +0.000 A 
ATOM      8  C   UNL     1       1.831   9.077  18.153  0.00  0.00    +0.000 A 
ATOM      9  C   UNL     1       1.212   9.813  19.166  0.00  0.00    +0.000 A 
ATOM     10  C   UNL     1       1.118   9.262  20.441  0.00  0.00    +0.000 A 
ATOM     11  C   UNL     1       1.539   7.949  20.679  0.00  0.00    +0.000 A 
BRANCH   9  12
ATOM     12  O   UNL     1       0.827  11.069  18.815  0.00  0.00    +0.000 OA
BRANCH  12  13
ATOM     13  C   UNL     1      -0.559  11.380  18.737  0.00  0.00    +0.000 C 
ATOM     14  F   UNL     1      -1.337  10.379  18.276  0.00  0.00    +0.000 F 
ATOM     15  F   UNL     1      -1.000  11.738  19.963  0.00  0.00    +0.000 F 
ATOM     16  F   UNL     1      -0.716  12.437  17.909  0.00  0.00    +0.000 F 
ENDBRANCH  12  13
ENDBRANCH   9  12
ENDBRANCH   5   6
BRANCH   2  17
ATOM     17  C   UNL     1       4.232   2.672  19.531  0.00  0.00    +0.000 C 
ATOM     18  O   UNL     1       4.946   2.129  20.365  0.00  0.00    +0.000 OA
BRANCH  17  19
ATOM     19  O   UNL     1       4.080   2.233  18.246  0.00  0.00    +0.000 OA
ATOM     20  C   UNL     1       2.751   1.863  17.894  0.00  0.00    +0.000 C 
ENDBRANCH  17  19
ENDBRANCH   2  17
BRANCH   1  21
ATOM     21  C   UNL     1       4.572   5.670  18.298  0.00  0.00    +0.000 C 
BRANCH  21  22
ATOM     22  C   UNL     1       5.969   5.222  18.680  0.00  0.00    +0.000 C 
ATOM     23  O   UNL     1       6.506   5.426  19.761  0.00  0.00    +0.000 OA
BRANCH  22  25
ATOM     24  C   UNL     1       6.084   4.902  16.369  0.00  0.00    +0.000 C 
ATOM     25  O   UNL     1       6.515   4.488  17.668  0.00  0.00    +0.000 OA
ENDBRANCH  22  25
ENDBRANCH  21  22
ENDBRANCH   1  21
TORSDOF 8
ENDMDL
MODEL 6
REMARK VINA RESULT:      -6.7      4.640      6.313
REMARK  Name = 
REMARK  10 active torsions:
REMARK  status: ('A' for Active; 'I' for Inactive)
REMARK    1  A    between atoms: C_1  and  O_2
REMARK    2  A    between atoms: O_2  and  C_3
REMARK    3  A    between atoms: C_3  and  C_5
REMARK    4  A    between atoms: C_5  and  C_6
REMARK    5  A    between atoms: C_7  and  C_8
REMARK    6  A    between atoms: C_8  and  O_10
REMARK    7  A    between atoms: O_10  and  C_11
REMARK    8  A    between atoms: N_14  and  C_15
REMARK    9  A    between atoms: C_18  and  O_19
REMARK   10  A    between atoms: O_19  and  C_20
REMARK                            x       y       z     vdW  Elec       q    Type
REMARK                         _______ _______ _______ _____ _____    ______ ____
ROOT
ATOM      1  C   UNL     1       3.238   4.467  18.677  0.00  0.00    +0.000 A 
ATOM      2  C   UNL     1       2.808   3.257  19.219  0.00  0.00    +0.000 A 
ATOM      3  N   UNL     1       3.900   2.481  19.496  0.00  0.00    +0.000 NA
ATOM      4  N   UNL     1       4.983   3.138  19.125  0.00  0.00    +0.000 NA
ATOM      5  N   UNL     1       4.622   4.382  18.724  0.00  0.00    +0.000 N 
ENDROOT
BRANCH   5   6
ATOM      6  C   UNL     1       5.622   5.327  18.382  0.00  0.00    +0.000 A 
ATOM      7  C   UNL     1       5.437   6.129  17.247  0.00  0.00    +0.000 A 
ATOM      8  C   UNL     1       6.387   7.098  16.914  0.00  0.00    +0.000 A 
ATOM      9  C   UNL     1       7.539   7.262  17.685  0.00  0.00    +0.000 A 
ATOM     10  C   UNL     1       7.766   6.399  18.754  0.00  0.00    +0.000 A 
ATOM     11  C   UNL     1       6.803   5.452  19.117  0.00  0.00    +0.000 A 
BRANCH   9  12
ATOM     12  O   UNL     1       8.394   8.225  17.249  0.00  0.00    +0.000 OA
BRANCH  12  13
ATOM     13  C   UNL     1       8.546   9.421  18.004  0.00  0.00    +0.000 C 
ATOM     14  F   UNL     1       9.420  10.308  17.485  0.00  0.00    +0.000 F 
ATOM     15  F   UNL     1       7.342  10.024  18.121  0.00  0.00    +0.000 F 
ATOM     16  F   UNL     1       8.976   9.096  19.243  0.00  0.00    +0.000 F 
ENDBRANCH  12  13
ENDBRANCH   9  12
ENDBRANCH   5   6
BRANCH   2  17
ATOM     17  C   UNL     1       1.442   2.799  19.431  0.00  0.00    +0.000 C 
ATOM     18  O   UNL     1       0.827   2.112  18.625  0.00  0.00    +0.000 OA
BRANCH  17  19
ATOM     19  O   UNL     1       0.940   3.209  20.633  0.00  0.00    +0.000 OA
ATOM     20  C   UNL     1       1.878   3.206  21.705  0.00  0.00    +0.000 C 
ENDBRANCH  17  19
ENDBRANCH   2  17
BRANCH   1  21
ATOM     21  C   UNL     1       2.448   5.588  18.079  0.00  0.00    +0.000 C 
BRANCH  21  22
ATOM     22  C   UNL     1       2.298   6.735  19.059  0.00  0.00    +0.000 C 
ATOM     23  O   UNL     1       2.107   6.615  20.263  0.00  0.00    +0.000 OA
BRANCH  22  25
ATOM     24  C   UNL     1       1.618   8.961  18.878  0.00  0.00    +0.000 C 
ATOM     25  O   UNL     1       2.485   7.923  18.417  0.00  0.00    +0.000 OA
ENDBRANCH  22  25
ENDBRANCH  21  22
ENDBRANCH   1  21
TORSDOF 8
ENDMDL
MODEL 7
REMARK VINA RESULT:      -6.7      5.479      7.583
REMARK  Name = 
REMARK  10 active torsions:
REMARK  status: ('A' for Active; 'I' for Inactive)
REMARK    1  A    between atoms: C_1  and  O_2
REMARK    2  A    between atoms: O_2  and  C_3
REMARK    3  A    between atoms: C_3  and  C_5
REMARK    4  A    between atoms: C_5  and  C_6
REMARK    5  A    between atoms: C_7  and  C_8
REMARK    6  A    between atoms: C_8  and  O_10
REMARK    7  A    between atoms: O_10  and  C_11
REMARK    8  A    between atoms: N_14  and  C_15
REMARK    9  A    between atoms: C_18  and  O_19
REMARK   10  A    between atoms: O_19  and  C_20
REMARK                            x       y       z     vdW  Elec       q    Type
REMARK                         _______ _______ _______ _____ _____    ______ ____
ROOT
ATOM      1  C   UNL     1       3.247   4.810  18.681  0.00  0.00    +0.000 A 
ATOM      2  C   UNL     1       1.983   4.420  19.119  0.00  0.00    +0.000 A 
ATOM      3  N   UNL     1       1.286   3.903  18.061  0.00  0.00    +0.000 NA
ATOM      4  N   UNL     1       2.046   3.980  16.984  0.00  0.00    +0.000 NA
ATOM      5  N   UNL     1       3.273   4.426  17.348  0.00  0.00    +0.000 N 
ENDROOT
BRANCH   5   6
ATOM      6  C   UNL     1       4.311   4.490  16.384  0.00  0.00    +0.000 A 
ATOM      7  C   UNL     1       4.947   3.304  15.993  0.00  0.00    +0.000 A 
ATOM      8  C   UNL     1       5.943   3.335  15.013  0.00  0.00    +0.000 A 
ATOM      9  C   UNL     1       6.335   4.543  14.433  0.00  0.00    +0.000 A 
ATOM     10  C   UNL     1       5.769   5.729  14.892  0.00  0.00    +0.000 A 
ATOM     11  C   UNL     1       4.745   5.704  15.846  0.00  0.00    +0.000 A 
BRANCH   9  12
ATOM     12  O   UNL     1       7.323   4.444  13.505  0.00  0.00    +0.000 OA
BRANCH  12  13
ATOM     13  C   UNL     1       6.994   4.108  12.162  0.00  0.00    +0.000 C 
ATOM     14  F   UNL     1       5.676   3.940  11.931  0.00  0.00    +0.000 F 
ATOM     15  F   UNL     1       7.455   5.077  11.340  0.00  0.00    +0.000 F 
ATOM     16  F   UNL     1       7.618   2.952  11.842  0.00  0.00    +0.000 F 
ENDBRANCH  12  13
ENDBRANCH   9  12
ENDBRANCH   5   6
BRANCH   2  17
ATOM     17  C   UNL     1       1.406   4.561  20.448  0.00  0.00    +0.000 C 
ATOM     18  O   UNL     1       1.235   5.640  21.000  0.00  0.00    +0.000 OA
BRANCH  17  19
ATOM     19  O   UNL     1       1.065   3.355  20.994  0.00  0.00    +0.000 OA
ATOM     20  C   UNL     1       2.131   2.673  21.647  0.00  0.00    +0.000 C 
ENDBRANCH  17  19
ENDBRANCH   2  17
BRANCH   1  21
ATOM     21  C   UNL     1       4.327   5.555  19.400  0.00  0.00    +0.000 C 
BRANCH  21  22
ATOM     22  C   UNL     1       5.558   4.691  19.587  0.00  0.00    +0.000 C 
ATOM     23  O   UNL     1       5.580   3.468  19.520  0.00  0.00    +0.000 OA
BRANCH  22  25
ATOM     24  C   UNL     1       7.372   5.734  18.551  0.00  0.00    +0.000 C 
ATOM     25  O   UNL     1       6.657   5.479  19.762  0.00  0.00    +0.000 OA
ENDBRANCH  22  25
ENDBRANCH  21  22
ENDBRANCH   1  21
TORSDOF 8
ENDMDL
MODEL 8
REMARK VINA RESULT:      -6.7      1.730      3.076
REMARK  Name = 
REMARK  10 active torsions:
REMARK  status: ('A' for Active; 'I' for Inactive)
REMARK    1  A    between atoms: C_1  and  O_2
REMARK    2  A    between atoms: O_2  and  C_3
REMARK    3  A    between atoms: C_3  and  C_5
REMARK    4  A    between atoms: C_5  and  C_6
REMARK    5  A    between atoms: C_7  and  C_8
REMARK    6  A    between atoms: C_8  and  O_10
REMARK    7  A    between atoms: O_10  and  C_11
REMARK    8  A    between atoms: N_14  and  C_15
REMARK    9  A    between atoms: C_18  and  O_19
REMARK   10  A    between atoms: O_19  and  C_20
REMARK                            x       y       z     vdW  Elec       q    Type
REMARK                         _______ _______ _______ _____ _____    ______ ____
ROOT
ATOM      1  C   UNL     1       3.510   5.048  19.277  0.00  0.00    +0.000 A 
ATOM      2  C   UNL     1       3.355   3.823  19.921  0.00  0.00    +0.000 A 
ATOM      3  N   UNL     1       2.364   3.933  20.857  0.00  0.00    +0.000 NA
ATOM      4  N   UNL     1       1.917   5.176  20.845  0.00  0.00    +0.000 NA
ATOM      5  N   UNL     1       2.516   5.844  19.829  0.00  0.00    +0.000 N 
ENDROOT
BRANCH   5   6
ATOM      6  C   UNL     1       2.121   7.173  19.533  0.00  0.00    +0.000 A 
ATOM      7  C   UNL     1       1.504   7.936  20.534  0.00  0.00    +0.000 A 
ATOM      8  C   UNL     1       1.145   9.263  20.281  0.00  0.00    +0.000 A 
ATOM      9  C   UNL     1       1.368   9.835  19.027  0.00  0.00    +0.000 A 
ATOM     10  C   UNL     1       1.892   9.046  18.007  0.00  0.00    +0.000 A 
ATOM     11  C   UNL     1       2.290   7.728  18.263  0.00  0.00    +0.000 A 
BRANCH   9  12
ATOM     12  O   UNL     1       0.960  11.126  18.900  0.00  0.00    +0.000 OA
BRANCH  12  13
ATOM     13  C   UNL     1      -0.422  11.410  18.726  0.00  0.00    +0.000 C 
ATOM     14  F   UNL     1      -1.130  11.491  19.871  0.00  0.00    +0.000 F 
ATOM     15  F   UNL     1      -0.551  12.577  18.057  0.00  0.00    +0.000 F 
ATOM     16  F   UNL     1      -0.972  10.431  17.972  0.00  0.00    +0.000 F 
ENDBRANCH  12  13
ENDBRANCH   9  12
ENDBRANCH   5   6
BRANCH   2  17
ATOM     17  C   UNL     1       4.121   2.600  19.728  0.00  0.00    +0.000 C 
ATOM     18  O   UNL     1       4.843   2.111  20.588  0.00  0.00    +0.000 OA
BRANCH  17  19
ATOM     19  O   UNL     1       3.928   2.058  18.488  0.00  0.00    +0.000 OA
ATOM     20  C   UNL     1       2.563   1.876  18.122  0.00  0.00    +0.000 C 
ENDBRANCH  17  19
ENDBRANCH   2  17
BRANCH   1  21
ATOM     21  C   UNL     1       4.541   5.493  18.288  0.00  0.00    +0.000 C 
BRANCH  21  22
ATOM     22  C   UNL     1       5.930   5.059  18.714  0.00  0.00    +0.000 C 
ATOM     23  O   UNL     1       6.483   5.383  19.757  0.00  0.00    +0.000 OA
BRANCH  22  25
ATOM     24  C   UNL     1       7.513   4.743  17.027  0.00  0.00    +0.000 C 
ATOM     25  O   UNL     1       6.446   4.189  17.799  0.00  0.00    +0.000 OA
ENDBRANCH  22  25
ENDBRANCH  21  22
ENDBRANCH   1  21
TORSDOF 8
ENDMDL
MODEL 9
REMARK VINA RESULT:      -6.7      1.279      1.707
REMARK  Name = 
REMARK  10 active torsions:
REMARK  status: ('A' for Active; 'I' for Inactive)
REMARK    1  A    between atoms: C_1  and  O_2
REMARK    2  A    between atoms: O_2  and  C_3
REMARK    3  A    between atoms: C_3  and  C_5
REMARK    4  A    between atoms: C_5  and  C_6
REMARK    5  A    between atoms: C_7  and  C_8
REMARK    6  A    between atoms: C_8  and  O_10
REMARK    7  A    between atoms: O_10  and  C_11
REMARK    8  A    between atoms: N_14  and  C_15
REMARK    9  A    between atoms: C_18  and  O_19
REMARK   10  A    between atoms: O_19  and  C_20
REMARK                            x       y       z     vdW  Elec       q    Type
REMARK                         _______ _______ _______ _____ _____    ______ ____
ROOT
ATOM      1  C   UNL     1       2.926   5.545  19.316  0.00  0.00    +0.000 A 
ATOM      2  C   UNL     1       3.981   4.933  18.643  0.00  0.00    +0.000 A 
ATOM      3  N   UNL     1       4.473   5.799  17.705  0.00  0.00    +0.000 NA
ATOM      4  N   UNL     1       3.754   6.906  17.744  0.00  0.00    +0.000 NA
ATOM      5  N   UNL     1       2.881   6.823  18.777  0.00  0.00    +0.000 N 
ENDROOT
BRANCH   5   6
ATOM      6  C   UNL     1       2.069   7.938  19.102  0.00  0.00    +0.000 A 
ATOM      7  C   UNL     1       1.722   8.843  18.088  0.00  0.00    +0.000 A 
ATOM      8  C   UNL     1       0.887   9.926  18.374  0.00  0.00    +0.000 A 
ATOM      9  C   UNL     1       0.410  10.137  19.669  0.00  0.00    +0.000 A 
ATOM     10  C   UNL     1       0.834   9.293  20.692  0.00  0.00    +0.000 A 
ATOM     11  C   UNL     1       1.639   8.184  20.408  0.00  0.00    +0.000 A 
BRANCH   9  12
ATOM     12  O   UNL     1      -0.380  11.233  19.823  0.00  0.00    +0.000 OA
BRANCH  12  13
ATOM     13  C   UNL     1       0.134  12.380  20.488  0.00  0.00    +0.000 C 
ATOM     14  F   UNL     1      -0.410  13.550  20.097  0.00  0.00    +0.000 F 
ATOM     15  F   UNL     1      -0.058  12.240  21.819  0.00  0.00    +0.000 F 
ATOM     16  F   UNL     1       1.465  12.449  20.261  0.00  0.00    +0.000 F 
ENDBRANCH  12  13
ENDBRANCH   9  12
ENDBRANCH   5   6
BRANCH   2  17
ATOM     17  C   UNL     1       4.496   3.581  18.812  0.00  0.00    +0.000 C 
ATOM     18  O   UNL     1       5.296   3.266  19.683  0.00  0.00    +0.000 OA
BRANCH  17  19
ATOM     19  O   UNL     1       3.971   2.711  17.898  0.00  0.00    +0.000 OA
ATOM     20  C   UNL     1       3.628   1.431  18.421  0.00  0.00    +0.000 C 
ENDBRANCH  17  19
ENDBRANCH   2  17
BRANCH   1  21
ATOM     21  C   UNL     1       1.969   4.982  20.319  0.00  0.00    +0.000 C 
BRANCH  21  22
ATOM     22  C   UNL     1       1.189   3.819  19.740  0.00  0.00    +0.000 C 
ATOM     23  O   UNL     1       0.853   3.707  18.567  0.00  0.00    +0.000 OA
BRANCH  22  25
ATOM     24  C   UNL     1       2.082   2.730  21.603  0.00  0.00    +0.000 C 
ATOM     25  O   UNL     1       0.983   2.873  20.700  0.00  0.00    +0.000 OA
ENDBRANCH  22  25
ENDBRANCH  21  22
ENDBRANCH   1  21
TORSDOF 8
ENDMDL
