MODEL 1
REMARK VINA RESULT:      -8.1      0.000      0.000
REMARK  Name = 
REMARK  2 active torsions:
REMARK  status: ('A' for Active; 'I' for Inactive)
REMARK    1  A    between atoms: C_2  and  C_12
REMARK    2  A    between atoms: N_3  and  C_4
REMARK                            x       y       z     vdW  Elec       q    Type
REMARK                         _______ _______ _______ _____ _____    ______ ____
ROOT
ATOM      1  O   UNL     1       3.961   5.942  17.227  0.00  0.00    +0.000 OA
ATOM      2  C   UNL     1       4.043   4.763  17.576  0.00  0.00    +0.000 C 
ATOM      3  N   UNL     1       4.839   3.832  16.934  0.00  0.00    +0.000 N 
ATOM      4  H   UNL     1       4.673   2.856  17.133  0.00  0.00    +0.000 HD
ENDROOT
BRANCH   2   5
ATOM      5  C   UNL     1       3.207   4.264  18.767  0.00  0.00    +0.000 C 
ATOM      6  C   UNL     1       1.877   3.696  18.192  0.00  0.00    +0.000 C 
ATOM      7  C   UNL     1       0.960   3.181  19.302  0.00  0.00    +0.000 C 
ATOM      8  C   UNL     1       1.689   2.066  20.063  0.00  0.00    +0.000 C 
ATOM      9  C   UNL     1       2.988   2.612  20.677  0.00  0.00    +0.000 C 
ATOM     10  C   UNL     1       2.639   3.764  21.635  0.00  0.00    +0.000 C 
ATOM     11  C   UNL     1       1.934   4.896  20.866  0.00  0.00    +0.000 C 
ATOM     12  C   UNL     1       0.637   4.346  20.249  0.00  0.00    +0.000 C 
ATOM     13  C   UNL     1       2.864   5.409  19.749  0.00  0.00    +0.000 C 
ATOM     14  C   UNL     1       3.911   3.138  19.558  0.00  0.00    +0.000 C 
ENDBRANCH   2   5
BRANCH   3  15
ATOM     15  C   UNL     1       5.703   4.133  15.848  0.00  0.00    +0.000 A 
ATOM     16  C   UNL     1       6.822   4.972  15.978  0.00  0.00    +0.000 A 
ATOM     17  C   UNL     1       7.606   5.311  14.875  0.00  0.00    +0.000 A 
ATOM     18  C   UNL     1       7.283   4.801  13.627  0.00  0.00    +0.000 A 
ATOM     19  F   UNL     1       8.027   5.157  12.573  0.00  0.00    +0.000 F 
ATOM     20  C   UNL     1       6.199   3.936  13.482  0.00  0.00    +0.000 A 
ATOM     21 CL   UNL     1       5.793   3.306  11.930  0.00  0.00    +0.000 Cl
ATOM     22  C   UNL     1       5.418   3.587  14.591  0.00  0.00    +0.000 A 
ENDBRANCH   3  15
TORSDOF 2
ENDMDL
MODEL 2
REMARK VINA RESULT:      -8.1      0.277      1.546
REMARK  Name = 
REMARK  2 active torsions:
REMARK  status: ('A' for Active; 'I' for Inactive)
REMARK    1  A    between atoms: C_2  and  C_12
REMARK    2  A    between atoms: N_3  and  C_4
REMARK                            x       y       z     vdW  Elec       q    Type
REMARK                         _______ _______ _______ _____ _____    ______ ____
ROOT
ATOM      1  O   UNL     1       3.920   5.992  17.128  0.00  0.00    +0.000 OA
ATOM      2  C   UNL     1       3.964   4.800  17.437  0.00  0.00    +0.000 C 
ATOM      3  N   UNL     1       4.765   3.874  16.793  0.00  0.00    +0.000 N 
ATOM      4  H   UNL     1       4.571   2.896  16.950  0.00  0.00    +0.000 HD
ENDROOT
BRANCH   2   5
ATOM      5  C   UNL     1       3.070   4.278  18.575  0.00  0.00    +0.000 C 
ATOM      6  C   UNL     1       3.716   2.964  19.104  0.00  0.00    +0.000 C 
ATOM      7  C   UNL     1       2.893   2.350  20.237  0.00  0.00    +0.000 C 
ATOM      8  C   UNL     1       2.812   3.363  21.388  0.00  0.00    +0.000 C 
ATOM      9  C   UNL     1       2.139   4.657  20.902  0.00  0.00    +0.000 C 
ATOM     10  C   UNL     1       0.726   4.321  20.393  0.00  0.00    +0.000 C 
ATOM     11  C   UNL     1       0.810   3.329  19.219  0.00  0.00    +0.000 C 
ATOM     12  C   UNL     1       1.487   2.037  19.707  0.00  0.00    +0.000 C 
ATOM     13  C   UNL     1       1.641   3.953  18.081  0.00  0.00    +0.000 C 
ATOM     14  C   UNL     1       2.965   5.273  19.754  0.00  0.00    +0.000 C 
ENDBRANCH   2   5
BRANCH   3  15
ATOM     15  C   UNL     1       5.679   4.195  15.755  0.00  0.00    +0.000 A 
ATOM     16  C   UNL     1       6.759   5.074  15.937  0.00  0.00    +0.000 A 
ATOM     17  C   UNL     1       7.592   5.429  14.876  0.00  0.00    +0.000 A 
ATOM     18  C   UNL     1       7.358   4.895  13.619  0.00  0.00    +0.000 A 
ATOM     19  F   UNL     1       8.148   5.267  12.604  0.00  0.00    +0.000 F 
ATOM     20  C   UNL     1       6.315   3.992  13.423  0.00  0.00    +0.000 A 
ATOM     21 CL   UNL     1       6.020   3.332  11.858  0.00  0.00    +0.000 Cl
ATOM     22  C   UNL     1       5.484   3.626  14.490  0.00  0.00    +0.000 A 
ENDBRANCH   3  15
TORSDOF 2
ENDMDL
MODEL 3
REMARK VINA RESULT:      -8.0      0.356      1.783
REMARK  Name = 
REMARK  2 active torsions:
REMARK  status: ('A' for Active; 'I' for Inactive)
REMARK    1  A    between atoms: C_2  and  C_12
REMARK    2  A    between atoms: N_3  and  C_4
REMARK                            x       y       z     vdW  Elec       q    Type
REMARK                         _______ _______ _______ _____ _____    ______ ____
ROOT
ATOM      1  O   UNL     1       3.930   5.852  17.238  0.00  0.00    +0.000 OA
ATOM      2  C   UNL     1       3.953   4.644  17.477  0.00  0.00    +0.000 C 
ATOM      3  N   UNL     1       4.738   3.743  16.779  0.00  0.00    +0.000 N 
ATOM      4  H   UNL     1       4.527   2.761  16.879  0.00  0.00    +0.000 HD
ENDROOT
BRANCH   2   5
ATOM      5  C   UNL     1       3.051   4.072  18.584  0.00  0.00    +0.000 C 
ATOM      6  C   UNL     1       3.091   5.073  19.775  0.00  0.00    +0.000 C 
ATOM      7  C   UNL     1       2.231   4.590  20.943  0.00  0.00    +0.000 C 
ATOM      8  C   UNL     1       0.780   4.449  20.460  0.00  0.00    +0.000 C 
ATOM      9  C   UNL     1       0.707   3.433  19.308  0.00  0.00    +0.000 C 
ATOM     10  C   UNL     1       1.231   2.076  19.810  0.00  0.00    +0.000 C 
ATOM     11  C   UNL     1       2.695   2.210  20.266  0.00  0.00    +0.000 C 
ATOM     12  C   UNL     1       2.766   3.231  21.416  0.00  0.00    +0.000 C 
ATOM     13  C   UNL     1       3.555   2.698  19.084  0.00  0.00    +0.000 C 
ATOM     14  C   UNL     1       1.580   3.917  18.132  0.00  0.00    +0.000 C 
ENDBRANCH   2   5
BRANCH   3  15
ATOM     15  C   UNL     1       5.657   4.108  15.759  0.00  0.00    +0.000 A 
ATOM     16  C   UNL     1       6.723   4.995  15.979  0.00  0.00    +0.000 A 
ATOM     17  C   UNL     1       7.561   5.394  14.937  0.00  0.00    +0.000 A 
ATOM     18  C   UNL     1       7.345   4.896  13.661  0.00  0.00    +0.000 A 
ATOM     19  F   UNL     1       8.139   5.310  12.666  0.00  0.00    +0.000 F 
ATOM     20  C   UNL     1       6.316   3.986  13.429  0.00  0.00    +0.000 A 
ATOM     21 CL   UNL     1       6.043   3.371  11.841  0.00  0.00    +0.000 Cl
ATOM     22  C   UNL     1       5.481   3.576  14.475  0.00  0.00    +0.000 A 
ENDBRANCH   3  15
TORSDOF 2
ENDMDL
MODEL 4
REMARK VINA RESULT:      -7.4      5.208      7.273
REMARK  Name = 
REMARK  2 active torsions:
REMARK  status: ('A' for Active; 'I' for Inactive)
REMARK    1  A    between atoms: C_2  and  C_12
REMARK    2  A    between atoms: N_3  and  C_4
REMARK                            x       y       z     vdW  Elec       q    Type
REMARK                         _______ _______ _______ _____ _____    ______ ____
ROOT
ATOM      1  O   UNL     1       2.583   7.555  18.809  0.00  0.00    +0.000 OA
ATOM      2  C   UNL     1       2.185   6.742  19.645  0.00  0.00    +0.000 C 
ATOM      3  N   UNL     1       1.465   7.097  20.772  0.00  0.00    +0.000 N 
ATOM      4  H   UNL     1       1.381   6.414  21.510  0.00  0.00    +0.000 HD
ENDROOT
BRANCH   2   5
ATOM      5  C   UNL     1       2.516   5.250  19.470  0.00  0.00    +0.000 C 
ATOM      6  C   UNL     1       1.942   4.808  18.093  0.00  0.00    +0.000 C 
ATOM      7  C   UNL     1       2.206   3.326  17.823  0.00  0.00    +0.000 C 
ATOM      8  C   UNL     1       3.723   3.090  17.828  0.00  0.00    +0.000 C 
ATOM      9  C   UNL     1       4.310   3.481  19.194  0.00  0.00    +0.000 C 
ATOM     10  C   UNL     1       3.639   2.628  20.285  0.00  0.00    +0.000 C 
ATOM     11  C   UNL     1       2.123   2.888  20.300  0.00  0.00    +0.000 C 
ATOM     12  C   UNL     1       1.537   2.500  18.931  0.00  0.00    +0.000 C 
ATOM     13  C   UNL     1       1.863   4.383  20.571  0.00  0.00    +0.000 C 
ATOM     14  C   UNL     1       4.037   4.974  19.469  0.00  0.00    +0.000 C 
ENDBRANCH   2   5
BRANCH   3  15
ATOM     15  C   UNL     1       1.039   8.420  21.063  0.00  0.00    +0.000 A 
ATOM     16  C   UNL     1       0.566   8.806  22.328  0.00  0.00    +0.000 A 
ATOM     17  C   UNL     1       0.082  10.093  22.559  0.00  0.00    +0.000 A 
ATOM     18  C   UNL     1       0.078  11.016  21.525  0.00  0.00    +0.000 A 
ATOM     19  F   UNL     1      -0.416  12.239  21.753  0.00  0.00    +0.000 F 
ATOM     20  C   UNL     1       0.577  10.666  20.271  0.00  0.00    +0.000 A 
ATOM     21 CL   UNL     1       0.567  11.811  18.982  0.00  0.00    +0.000 Cl
ATOM     22  C   UNL     1       1.074   9.377  20.040  0.00  0.00    +0.000 A 
ENDBRANCH   3  15
TORSDOF 2
ENDMDL
MODEL 5
REMARK VINA RESULT:      -7.3      5.454      7.146
REMARK  Name = 
REMARK  2 active torsions:
REMARK  status: ('A' for Active; 'I' for Inactive)
REMARK    1  A    between atoms: C_2  and  C_12
REMARK    2  A    between atoms: N_3  and  C_4
REMARK                            x       y       z     vdW  Elec       q    Type
REMARK                         _______ _______ _______ _____ _____    ______ ____
ROOT
ATOM      1  O   UNL     1       2.146   7.511  19.979  0.00  0.00    +0.000 OA
ATOM      2  C   UNL     1       2.487   7.388  18.802  0.00  0.00    +0.000 C 
ATOM      3  N   UNL     1       2.174   8.310  17.818  0.00  0.00    +0.000 N 
ATOM      4  H   UNL     1       2.286   8.025  16.856  0.00  0.00    +0.000 HD
ENDROOT
BRANCH   2   5
ATOM      5  C   UNL     1       3.275   6.142  18.365  0.00  0.00    +0.000 C 
ATOM      6  C   UNL     1       3.987   5.580  19.631  0.00  0.00    +0.000 C 
ATOM      7  C   UNL     1       4.816   4.337  19.303  0.00  0.00    +0.000 C 
ATOM      8  C   UNL     1       3.881   3.259  18.738  0.00  0.00    +0.000 C 
ATOM      9  C   UNL     1       3.196   3.775  17.462  0.00  0.00    +0.000 C 
ATOM     10  C   UNL     1       4.277   4.132  16.427  0.00  0.00    +0.000 C 
ATOM     11  C   UNL     1       5.196   5.235  16.982  0.00  0.00    +0.000 C 
ATOM     12  C   UNL     1       5.877   4.718  18.261  0.00  0.00    +0.000 C 
ATOM     13  C   UNL     1       4.354   6.484  17.311  0.00  0.00    +0.000 C 
ATOM     14  C   UNL     1       2.365   5.033  17.791  0.00  0.00    +0.000 C 
ENDBRANCH   2   5
BRANCH   3  15
ATOM     15  C   UNL     1       1.492   9.532  18.057  0.00  0.00    +0.000 A 
ATOM     16  C   UNL     1       2.161  10.733  18.344  0.00  0.00    +0.000 A 
ATOM     17  C   UNL     1       1.459  11.899  18.651  0.00  0.00    +0.000 A 
ATOM     18  C   UNL     1       0.073  11.876  18.662  0.00  0.00    +0.000 A 
ATOM     19  F   UNL     1      -0.587  12.995  18.986  0.00  0.00    +0.000 F 
ATOM     20  C   UNL     1      -0.612  10.705  18.343  0.00  0.00    +0.000 A 
ATOM     21 CL   UNL     1      -2.336  10.674  18.363  0.00  0.00    +0.000 Cl
ATOM     22  C   UNL     1       0.091   9.536  18.024  0.00  0.00    +0.000 A 
ENDBRANCH   3  15
TORSDOF 2
ENDMDL
MODEL 6
REMARK VINA RESULT:      -7.3      5.412      7.083
REMARK  Name = 
REMARK  2 active torsions:
REMARK  status: ('A' for Active; 'I' for Inactive)
REMARK    1  A    between atoms: C_2  and  C_12
REMARK    2  A    between atoms: N_3  and  C_4
REMARK                            x       y       z     vdW  Elec       q    Type
REMARK                         _______ _______ _______ _____ _____    ______ ____
ROOT
ATOM      1  O   UNL     1       2.051   7.358  19.902  0.00  0.00    +0.000 OA
ATOM      2  C   UNL     1       2.521   7.337  18.763  0.00  0.00    +0.000 C 
ATOM      3  N   UNL     1       2.236   8.291  17.803  0.00  0.00    +0.000 N 
ATOM      4  H   UNL     1       2.470   8.077  16.845  0.00  0.00    +0.000 HD
ENDROOT
BRANCH   2   5
ATOM      5  C   UNL     1       3.453   6.185  18.348  0.00  0.00    +0.000 C 
ATOM      6  C   UNL     1       2.558   5.060  17.752  0.00  0.00    +0.000 C 
ATOM      7  C   UNL     1       3.390   3.853  17.316  0.00  0.00    +0.000 C 
ATOM      8  C   UNL     1       4.394   4.309  16.248  0.00  0.00    +0.000 C 
ATOM      9  C   UNL     1       5.317   5.393  16.825  0.00  0.00    +0.000 C 
ATOM     10  C   UNL     1       6.065   4.814  18.039  0.00  0.00    +0.000 C 
ATOM     11  C   UNL     1       5.060   4.385  19.123  0.00  0.00    +0.000 C 
ATOM     12  C   UNL     1       4.133   3.303  18.542  0.00  0.00    +0.000 C 
ATOM     13  C   UNL     1       4.224   5.606  19.556  0.00  0.00    +0.000 C 
ATOM     14  C   UNL     1       4.478   6.608  17.271  0.00  0.00    +0.000 C 
ENDBRANCH   2   5
BRANCH   3  15
ATOM     15  C   UNL     1       1.432   9.439  18.032  0.00  0.00    +0.000 A 
ATOM     16  C   UNL     1       1.966  10.671  18.444  0.00  0.00    +0.000 A 
ATOM     17  C   UNL     1       1.141  11.757  18.736  0.00  0.00    +0.000 A 
ATOM     18  C   UNL     1      -0.233  11.623  18.606  0.00  0.00    +0.000 A 
ATOM     19  F   UNL     1      -1.014  12.665  18.918  0.00  0.00    +0.000 F 
ATOM     20  C   UNL     1      -0.781  10.421  18.163  0.00  0.00    +0.000 A 
ATOM     21 CL   UNL     1      -2.490  10.252  18.006  0.00  0.00    +0.000 Cl
ATOM     22  C   UNL     1       0.046   9.333  17.859  0.00  0.00    +0.000 A 
ENDBRANCH   3  15
TORSDOF 2
ENDMDL
MODEL 7
REMARK VINA RESULT:      -7.3      5.163      7.254
REMARK  Name = 
REMARK  2 active torsions:
REMARK  status: ('A' for Active; 'I' for Inactive)
REMARK    1  A    between atoms: C_2  and  C_12
REMARK    2  A    between atoms: N_3  and  C_4
REMARK                            x       y       z     vdW  Elec       q    Type
REMARK                         _______ _______ _______ _____ _____    ______ ____
ROOT
ATOM      1  O   UNL     1       2.652   7.497  18.732  0.00  0.00    +0.000 OA
ATOM      2  C   UNL     1       2.167   6.711  19.548  0.00  0.00    +0.000 C 
ATOM      3  N   UNL     1       1.436   7.113  20.651  0.00  0.00    +0.000 N 
ATOM      4  H   UNL     1       1.277   6.435  21.381  0.00  0.00    +0.000 HD
ENDROOT
BRANCH   2   5
ATOM      5  C   UNL     1       2.394   5.200  19.373  0.00  0.00    +0.000 C 
ATOM      6  C   UNL     1       1.550   4.478  20.464  0.00  0.00    +0.000 C 
ATOM      7  C   UNL     1       1.715   2.959  20.388  0.00  0.00    +0.000 C 
ATOM      8  C   UNL     1       1.250   2.485  19.004  0.00  0.00    +0.000 C 
ATOM      9  C   UNL     1       2.096   3.153  17.908  0.00  0.00    +0.000 C 
ATOM     10  C   UNL     1       3.574   2.781  18.126  0.00  0.00    +0.000 C 
ATOM     11  C   UNL     1       4.048   3.284  19.501  0.00  0.00    +0.000 C 
ATOM     12  C   UNL     1       3.197   2.617  20.596  0.00  0.00    +0.000 C 
ATOM     13  C   UNL     1       3.878   4.814  19.571  0.00  0.00    +0.000 C 
ATOM     14  C   UNL     1       1.936   4.685  17.990  0.00  0.00    +0.000 C 
ENDBRANCH   2   5
BRANCH   3  15
ATOM     15  C   UNL     1       1.098   8.463  20.937  0.00  0.00    +0.000 A 
ATOM     16  C   UNL     1       0.791   8.912  22.231  0.00  0.00    +0.000 A 
ATOM     17  C   UNL     1       0.387  10.226  22.466  0.00  0.00    +0.000 A 
ATOM     18  C   UNL     1       0.298  11.111  21.403  0.00  0.00    +0.000 A 
ATOM     19  F   UNL     1      -0.119  12.362  21.639  0.00  0.00    +0.000 F 
ATOM     20  C   UNL     1       0.635  10.697  20.116  0.00  0.00    +0.000 A 
ATOM     21 CL   UNL     1       0.519  11.796  18.792  0.00  0.00    +0.000 Cl
ATOM     22  C   UNL     1       1.051   9.381  19.880  0.00  0.00    +0.000 A 
ENDBRANCH   3  15
TORSDOF 2
ENDMDL
MODEL 8
REMARK VINA RESULT:      -7.3      5.426      7.129
REMARK  Name = 
REMARK  2 active torsions:
REMARK  status: ('A' for Active; 'I' for Inactive)
REMARK    1  A    between atoms: C_2  and  C_12
REMARK    2  A    between atoms: N_3  and  C_4
REMARK                            x       y       z     vdW  Elec       q    Type
REMARK                         _______ _______ _______ _____ _____    ______ ____
ROOT
ATOM      1  O   UNL     1       2.130   7.475  20.009  0.00  0.00    +0.000 OA
ATOM      2  C   UNL     1       2.470   7.338  18.832  0.00  0.00    +0.000 C 
ATOM      3  N   UNL     1       2.112   8.219  17.828  0.00  0.00    +0.000 N 
ATOM      4  H   UNL     1       2.232   7.915  16.873  0.00  0.00    +0.000 HD
ENDROOT
BRANCH   2   5
ATOM      5  C   UNL     1       3.312   6.118  18.423  0.00  0.00    +0.000 C 
ATOM      6  C   UNL     1       4.356   6.607  17.377  0.00  0.00    +0.000 C 
ATOM      7  C   UNL     1       5.243   5.460  16.891  0.00  0.00    +0.000 C 
ATOM      8  C   UNL     1       5.988   4.870  18.097  0.00  0.00    +0.000 C 
ATOM      9  C   UNL     1       4.978   4.342  19.129  0.00  0.00    +0.000 C 
ATOM     10  C   UNL     1       4.108   3.260  18.464  0.00  0.00    +0.000 C 
ATOM     11  C   UNL     1       3.339   3.859  17.273  0.00  0.00    +0.000 C 
ATOM     12  C   UNL     1       4.351   4.392  16.243  0.00  0.00    +0.000 C 
ATOM     13  C   UNL     1       2.448   5.015  17.770  0.00  0.00    +0.000 C 
ATOM     14  C   UNL     1       4.078   5.497  19.614  0.00  0.00    +0.000 C 
ENDBRANCH   2   5
BRANCH   3  15
ATOM     15  C   UNL     1       1.376   9.415  18.039  0.00  0.00    +0.000 A 
ATOM     16  C   UNL     1       1.984  10.628  18.402  0.00  0.00    +0.000 A 
ATOM     17  C   UNL     1       1.226  11.765  18.679  0.00  0.00    +0.000 A 
ATOM     18  C   UNL     1      -0.156  11.702  18.584  0.00  0.00    +0.000 A 
ATOM     19  F   UNL     1      -0.873  12.793  18.880  0.00  0.00    +0.000 F 
ATOM     20  C   UNL     1      -0.778  10.519  18.189  0.00  0.00    +0.000 A 
ATOM     21 CL   UNL     1      -2.497  10.438  18.075  0.00  0.00    +0.000 Cl
ATOM     22  C   UNL     1      -0.017   9.379  17.900  0.00  0.00    +0.000 A 
ENDBRANCH   3  15
TORSDOF 2
ENDMDL
MODEL 9
REMARK VINA RESULT:      -7.3      5.119      7.239
REMARK  Name = 
REMARK  2 active torsions:
REMARK  status: ('A' for Active; 'I' for Inactive)
REMARK    1  A    between atoms: C_2  and  C_12
REMARK    2  A    between atoms: N_3  and  C_4
REMARK                            x       y       z     vdW  Elec       q    Type
REMARK                         _______ _______ _______ _____ _____    ______ ____
ROOT
ATOM      1  O   UNL     1       2.797   7.438  18.708  0.00  0.00    +0.000 OA
ATOM      2  C   UNL     1       2.282   6.640  19.493  0.00  0.00    +0.000 C 
ATOM      3  N   UNL     1       1.521   7.026  20.582  0.00  0.00    +0.000 N 
ATOM      4  H   UNL     1       1.335   6.334  21.293  0.00  0.00    +0.000 HD
ENDROOT
BRANCH   2   5
ATOM      5  C   UNL     1       2.503   5.131  19.296  0.00  0.00    +0.000 C 
ATOM      6  C   UNL     1       4.039   4.880  19.338  0.00  0.00    +0.000 C 
ATOM      7  C   UNL     1       4.372   3.401  19.137  0.00  0.00    +0.000 C 
ATOM      8  C   UNL     1       3.705   2.592  20.257  0.00  0.00    +0.000 C 
ATOM      9  C   UNL     1       2.181   2.790  20.212  0.00  0.00    +0.000 C 
ATOM     10  C   UNL     1       1.660   2.324  18.841  0.00  0.00    +0.000 C 
ATOM     11  C   UNL     1       2.306   3.156  17.719  0.00  0.00    +0.000 C 
ATOM     12  C   UNL     1       3.831   2.960  17.769  0.00  0.00    +0.000 C 
ATOM     13  C   UNL     1       1.967   4.645  17.929  0.00  0.00    +0.000 C 
ATOM     14  C   UNL     1       1.845   4.283  20.408  0.00  0.00    +0.000 C 
ENDBRANCH   2   5
BRANCH   3  15
ATOM     15  C   UNL     1       1.185   8.372  20.885  0.00  0.00    +0.000 A 
ATOM     16  C   UNL     1       0.983   8.829  22.197  0.00  0.00    +0.000 A 
ATOM     17  C   UNL     1       0.576  10.138  22.455  0.00  0.00    +0.000 A 
ATOM     18  C   UNL     1       0.379  11.011  21.397  0.00  0.00    +0.000 A 
ATOM     19  F   UNL     1      -0.039  12.256  21.657  0.00  0.00    +0.000 F 
ATOM     20  C   UNL     1       0.610  10.590  20.088  0.00  0.00    +0.000 A 
ATOM     21 CL   UNL     1       0.359  11.673  18.770  0.00  0.00    +0.000 Cl
ATOM     22  C   UNL     1       1.028   9.279  19.828  0.00  0.00    +0.000 A 
ENDBRANCH   3  15
TORSDOF 2
ENDMDL
