MODEL 1
REMARK VINA RESULT:      -7.2      0.000      0.000
REMARK  Name = 
REMARK  10 active torsions:
REMARK  status: ('A' for Active; 'I' for Inactive)
REMARK    1  A    between atoms: C_2  and  C_3
REMARK    2  A    between atoms: N_5  and  C_6
REMARK    3  A    between atoms: N_5  and  C_15
REMARK    4  A    between atoms: C_9  and  O_10
REMARK    5  A    between atoms: O_10  and  C_11
REMARK    6  A    between atoms: C_15  and  C_16
REMARK    7  A    between atoms: C_15  and  C_27
REMARK    8  A    between atoms: N_18  and  C_19
REMARK    9  A    between atoms: C_19  and  C_20
REMARK   10  A    between atoms: C_20  and  C_21
REMARK                            x       y       z     vdW  Elec       q    Type
REMARK                         _______ _______ _______ _____ _____    ______ ____
ROOT
ATOM      1  C   UNL     1       0.463  11.405  20.045  0.00  0.00    +0.000 C 
ENDROOT
BRANCH   1   2
ATOM      2  C   UNL     1      -0.665  11.139  19.051  0.00  0.00    +0.000 A 
ATOM      3  C   UNL     1      -1.438   9.996  18.900  0.00  0.00    +0.000 A 
ATOM      4  C   UNL     1      -2.349  10.064  17.810  0.00  0.00    +0.000 A 
ATOM      5  C   UNL     1      -2.240  11.256  17.133  0.00  0.00    +0.000 A 
ATOM      6  S   UNL     1      -1.056  12.280  17.820  0.00  0.00    +0.000 S 
ENDBRANCH   1   2
BRANCH   1   7
ATOM      7  C   UNL     1       1.021  10.128  20.725  0.00  0.00    +0.000 C 
ATOM      8  O   UNL     1       1.283  10.043  21.925  0.00  0.00    +0.000 OA
ATOM      9  N   UNL     1       1.182   9.031  19.890  0.00  0.00    +0.000 N 
ATOM     10  H   UNL     1       1.027   9.112  18.890  0.00  0.00    +0.000 HD
BRANCH   9  11
ATOM     11  C   UNL     1       1.627   7.789  20.480  0.00  0.00    +0.000 C 
BRANCH  11  12
ATOM     12  C   UNL     1       2.560   6.959  19.605  0.00  0.00    +0.000 C 
BRANCH  12  13
ATOM     13  C   UNL     1       1.954   5.588  19.429  0.00  0.00    +0.000 A 
ATOM     14  C   UNL     1       1.489   4.869  20.539  0.00  0.00    +0.000 A 
ATOM     15  C   UNL     1       1.081   3.543  20.399  0.00  0.00    +0.000 A 
ATOM     16  C   UNL     1       1.134   2.923  19.152  0.00  0.00    +0.000 A 
ATOM     17  C   UNL     1       1.578   3.634  18.038  0.00  0.00    +0.000 A 
ATOM     18  C   UNL     1       1.983   4.961  18.175  0.00  0.00    +0.000 A 
ENDBRANCH  12  13
ENDBRANCH  11  12
ENDBRANCH   9  11
ENDBRANCH   1   7
BRANCH   1  21
ATOM     19  C   UNL     1       1.127  13.453  21.397  0.00  0.00    +0.000 C 
ATOM     20  O   UNL     1       0.961  14.352  22.220  0.00  0.00    +0.000 OA
ATOM     21  N   UNL     1       0.182  12.455  21.070  0.00  0.00    +0.000 N 
BRANCH  21  22
ATOM     22  C   UNL     1      -1.153  12.479  21.653  0.00  0.00    +0.000 A 
ATOM     23  C   UNL     1      -1.473  11.788  22.824  0.00  0.00    +0.000 A 
ATOM     24  C   UNL     1      -2.744  11.885  23.411  0.00  0.00    +0.000 A 
ATOM     25  C   UNL     1      -3.757  12.689  22.869  0.00  0.00    +0.000 A 
ATOM     26  C   UNL     1      -3.464  13.371  21.689  0.00  0.00    +0.000 A 
ATOM     27 CL   UNL     1      -4.540  14.442  20.857  0.00  0.00    +0.000 Cl
ATOM     28  C   UNL     1      -2.192  13.238  21.089  0.00  0.00    +0.000 A 
BRANCH  25  29
ATOM     29  O   UNL     1      -4.890  12.655  23.631  0.00  0.00    +0.000 OA
ATOM     30  C   UNL     1      -4.830  12.324  25.007  0.00  0.00    +0.000 C 
ENDBRANCH  25  29
ENDBRANCH  21  22
BRANCH  19  32
ATOM     31  C   UNL     1       2.695  14.331  19.718  0.00  0.00    +0.000 C 
ATOM     32  C   UNL     1       2.432  13.433  20.676  0.00  0.00    +0.000 C 
ENDBRANCH  19  32
ENDBRANCH   1  21
TORSDOF 9
ENDMDL
MODEL 2
REMARK VINA RESULT:      -7.1      0.965      1.313
REMARK  Name = 
REMARK  10 active torsions:
REMARK  status: ('A' for Active; 'I' for Inactive)
REMARK    1  A    between atoms: C_2  and  C_3
REMARK    2  A    between atoms: N_5  and  C_6
REMARK    3  A    between atoms: N_5  and  C_15
REMARK    4  A    between atoms: C_9  and  O_10
REMARK    5  A    between atoms: O_10  and  C_11
REMARK    6  A    between atoms: C_15  and  C_16
REMARK    7  A    between atoms: C_15  and  C_27
REMARK    8  A    between atoms: N_18  and  C_19
REMARK    9  A    between atoms: C_19  and  C_20
REMARK   10  A    between atoms: C_20  and  C_21
REMARK                            x       y       z     vdW  Elec       q    Type
REMARK                         _______ _______ _______ _____ _____    ______ ____
ROOT
ATOM      1  C   UNL     1      -0.160  10.973  19.049  0.00  0.00    +0.000 C 
ENDROOT
BRANCH   1   2
ATOM      2  C   UNL     1      -1.439  10.689  18.265  0.00  0.00    +0.000 A 
ATOM      3  C   UNL     1      -2.295   9.600  18.362  0.00  0.00    +0.000 A 
ATOM      4  C   UNL     1      -3.354   9.620  17.413  0.00  0.00    +0.000 A 
ATOM      5  C   UNL     1      -3.276  10.719  16.592  0.00  0.00    +0.000 A 
ATOM      6  S   UNL     1      -1.942  11.717  16.975  0.00  0.00    +0.000 S 
ENDBRANCH   1   2
BRANCH   1   7
ATOM      7  C   UNL     1       0.446   9.727  19.743  0.00  0.00    +0.000 C 
ATOM      8  O   UNL     1       0.044   9.269  20.813  0.00  0.00    +0.000 OA
ATOM      9  N   UNL     1       1.478   9.106  19.055  0.00  0.00    +0.000 N 
ATOM     10  H   UNL     1       1.855   9.512  18.205  0.00  0.00    +0.000 HD
BRANCH   9  11
ATOM     11  C   UNL     1       2.034   7.894  19.615  0.00  0.00    +0.000 C 
BRANCH  11  12
ATOM     12  C   UNL     1       2.596   6.912  18.592  0.00  0.00    +0.000 C 
BRANCH  12  13
ATOM     13  C   UNL     1       2.141   5.522  18.967  0.00  0.00    +0.000 A 
ATOM     14  C   UNL     1       1.891   4.565  17.974  0.00  0.00    +0.000 A 
ATOM     15  C   UNL     1       1.317   3.338  18.306  0.00  0.00    +0.000 A 
ATOM     16  C   UNL     1       0.988   3.056  19.630  0.00  0.00    +0.000 A 
ATOM     17  C   UNL     1       1.249   3.993  20.628  0.00  0.00    +0.000 A 
ATOM     18  C   UNL     1       1.827   5.220  20.300  0.00  0.00    +0.000 A 
ENDBRANCH  12  13
ENDBRANCH  11  12
ENDBRANCH   9  11
ENDBRANCH   1   7
BRANCH   1  21
ATOM     19  C   UNL     1       0.748  13.128  20.047  0.00  0.00    +0.000 C 
ATOM     20  O   UNL     1       0.745  14.100  20.801  0.00  0.00    +0.000 OA
ATOM     21  N   UNL     1      -0.236  12.115  20.010  0.00  0.00    +0.000 N 
BRANCH  21  22
ATOM     22  C   UNL     1      -1.426  12.207  20.846  0.00  0.00    +0.000 A 
ATOM     23  C   UNL     1      -1.442  11.784  22.177  0.00  0.00    +0.000 A 
ATOM     24  C   UNL     1      -2.576  11.950  22.988  0.00  0.00    +0.000 A 
ATOM     25  C   UNL     1      -3.745  12.562  22.519  0.00  0.00    +0.000 A 
ATOM     26  C   UNL     1      -3.757  12.973  21.186  0.00  0.00    +0.000 A 
ATOM     27 CL   UNL     1      -5.072  13.777  20.397  0.00  0.00    +0.000 Cl
ATOM     28  C   UNL     1      -2.622  12.769  20.370  0.00  0.00    +0.000 A 
BRANCH  25  29
ATOM     29  O   UNL     1      -4.697  12.647  23.494  0.00  0.00    +0.000 OA
ATOM     30  C   UNL     1      -4.354  12.487  24.859  0.00  0.00    +0.000 C 
ENDBRANCH  25  29
ENDBRANCH  21  22
BRANCH  19  32
ATOM     31  C   UNL     1       2.943  13.835  19.192  0.00  0.00    +0.000 C 
ATOM     32  C   UNL     1       1.880  13.028  19.082  0.00  0.00    +0.000 C 
ENDBRANCH  19  32
ENDBRANCH   1  21
TORSDOF 9
ENDMDL
MODEL 3
REMARK VINA RESULT:      -6.9      3.070      5.095
REMARK  Name = 
REMARK  10 active torsions:
REMARK  status: ('A' for Active; 'I' for Inactive)
REMARK    1  A    between atoms: C_2  and  C_3
REMARK    2  A    between atoms: N_5  and  C_6
REMARK    3  A    between atoms: N_5  and  C_15
REMARK    4  A    between atoms: C_9  and  O_10
REMARK    5  A    between atoms: O_10  and  C_11
REMARK    6  A    between atoms: C_15  and  C_16
REMARK    7  A    between atoms: C_15  and  C_27
REMARK    8  A    between atoms: N_18  and  C_19
REMARK    9  A    between atoms: C_19  and  C_20
REMARK   10  A    between atoms: C_20  and  C_21
REMARK                            x       y       z     vdW  Elec       q    Type
REMARK                         _______ _______ _______ _____ _____    ______ ____
ROOT
ATOM      1  C   UNL     1       0.356   9.763  19.270  0.00  0.00    +0.000 C 
ENDROOT
BRANCH   1   2
ATOM      2  C   UNL     1       0.533   9.648  20.782  0.00  0.00    +0.000 A 
ATOM      3  C   UNL     1       1.607   9.130  21.494  0.00  0.00    +0.000 A 
ATOM      4  C   UNL     1       1.399   9.104  22.900  0.00  0.00    +0.000 A 
ATOM      5  C   UNL     1       0.156   9.585  23.237  0.00  0.00    +0.000 A 
ATOM      6  S   UNL     1      -0.739  10.073  21.865  0.00  0.00    +0.000 S 
ENDBRANCH   1   2
BRANCH   1   7
ATOM      7  C   UNL     1       1.473   9.073  18.447  0.00  0.00    +0.000 C 
ATOM      8  O   UNL     1       1.940   9.524  17.401  0.00  0.00    +0.000 OA
ATOM      9  N   UNL     1       1.969   7.895  18.988  0.00  0.00    +0.000 N 
ATOM     10  H   UNL     1       1.548   7.485  19.816  0.00  0.00    +0.000 HD
BRANCH   9  11
ATOM     11  C   UNL     1       3.065   7.243  18.307  0.00  0.00    +0.000 C 
BRANCH  11  12
ATOM     12  C   UNL     1       3.653   6.041  19.038  0.00  0.00    +0.000 C 
BRANCH  12  13
ATOM     13  C   UNL     1       2.560   5.018  19.228  0.00  0.00    +0.000 A 
ATOM     14  C   UNL     1       2.094   4.708  20.513  0.00  0.00    +0.000 A 
ATOM     15  C   UNL     1       1.203   3.652  20.705  0.00  0.00    +0.000 A 
ATOM     16  C   UNL     1       0.772   2.896  19.616  0.00  0.00    +0.000 A 
ATOM     17  C   UNL     1       1.215   3.207  18.332  0.00  0.00    +0.000 A 
ATOM     18  C   UNL     1       2.102   4.265  18.138  0.00  0.00    +0.000 A 
ENDBRANCH  12  13
ENDBRANCH  11  12
ENDBRANCH   9  11
ENDBRANCH   1   7
BRANCH   1  21
ATOM     19  C   UNL     1      -1.065  11.486  18.054  0.00  0.00    +0.000 C 
ATOM     20  O   UNL     1      -1.335  12.602  17.612  0.00  0.00    +0.000 OA
ATOM     21  N   UNL     1       0.114  11.145  18.754  0.00  0.00    +0.000 N 
BRANCH  21  22
ATOM     22  C   UNL     1       1.097  12.166  19.093  0.00  0.00    +0.000 A 
ATOM     23  C   UNL     1       2.176  12.474  18.261  0.00  0.00    +0.000 A 
ATOM     24  C   UNL     1       3.069  13.512  18.569  0.00  0.00    +0.000 A 
ATOM     25  C   UNL     1       2.922  14.308  19.712  0.00  0.00    +0.000 A 
ATOM     26  C   UNL     1       1.863  14.003  20.567  0.00  0.00    +0.000 A 
ATOM     27 CL   UNL     1       1.466  14.863  22.016  0.00  0.00    +0.000 Cl
ATOM     28  C   UNL     1       0.991  12.934  20.264  0.00  0.00    +0.000 A 
BRANCH  25  29
ATOM     29  O   UNL     1       3.884  15.275  19.781  0.00  0.00    +0.000 OA
ATOM     30  C   UNL     1       4.414  15.857  18.603  0.00  0.00    +0.000 C 
ENDBRANCH  25  29
ENDBRANCH  21  22
BRANCH  19  32
ATOM     31  C   UNL     1      -2.353   9.967  16.612  0.00  0.00    +0.000 C 
ATOM     32  C   UNL     1      -2.079  10.414  17.844  0.00  0.00    +0.000 C 
ENDBRANCH  19  32
ENDBRANCH   1  21
TORSDOF 9
ENDMDL
MODEL 4
REMARK VINA RESULT:      -6.8      2.011      2.352
REMARK  Name = 
REMARK  10 active torsions:
REMARK  status: ('A' for Active; 'I' for Inactive)
REMARK    1  A    between atoms: C_2  and  C_3
REMARK    2  A    between atoms: N_5  and  C_6
REMARK    3  A    between atoms: N_5  and  C_15
REMARK    4  A    between atoms: C_9  and  O_10
REMARK    5  A    between atoms: O_10  and  C_11
REMARK    6  A    between atoms: C_15  and  C_16
REMARK    7  A    between atoms: C_15  and  C_27
REMARK    8  A    between atoms: N_18  and  C_19
REMARK    9  A    between atoms: C_19  and  C_20
REMARK   10  A    between atoms: C_20  and  C_21
REMARK                            x       y       z     vdW  Elec       q    Type
REMARK                         _______ _______ _______ _____ _____    ______ ____
ROOT
ATOM      1  C   UNL     1       0.546  11.039  18.301  0.00  0.00    +0.000 C 
ENDROOT
BRANCH   1   2
ATOM      2  C   UNL     1      -0.940  10.747  18.100  0.00  0.00    +0.000 A 
ATOM      3  C   UNL     1      -1.625   9.555  18.293  0.00  0.00    +0.000 A 
ATOM      4  C   UNL     1      -2.997   9.620  17.926  0.00  0.00    +0.000 A 
ATOM      5  C   UNL     1      -3.332  10.861  17.438  0.00  0.00    +0.000 A 
ATOM      6  S   UNL     1      -2.000  11.933  17.437  0.00  0.00    +0.000 S 
ENDBRANCH   1   2
BRANCH   1   7
ATOM      7  C   UNL     1       1.448   9.780  18.266  0.00  0.00    +0.000 C 
ATOM      8  O   UNL     1       2.243   9.525  17.361  0.00  0.00    +0.000 OA
ATOM      9  N   UNL     1       1.342   8.941  19.367  0.00  0.00    +0.000 N 
ATOM     10  H   UNL     1       0.647   9.113  20.086  0.00  0.00    +0.000 HD
BRANCH   9  11
ATOM     11  C   UNL     1       2.214   7.789  19.429  0.00  0.00    +0.000 C 
BRANCH  11  12
ATOM     12  C   UNL     1       1.826   6.744  20.469  0.00  0.00    +0.000 C 
BRANCH  12  13
ATOM     13  C   UNL     1       1.613   5.426  19.764  0.00  0.00    +0.000 A 
ATOM     14  C   UNL     1       1.045   4.341  20.444  0.00  0.00    +0.000 A 
ATOM     15  C   UNL     1       0.997   3.081  19.847  0.00  0.00    +0.000 A 
ATOM     16  C   UNL     1       1.517   2.895  18.567  0.00  0.00    +0.000 A 
ATOM     17  C   UNL     1       2.066   3.971  17.874  0.00  0.00    +0.000 A 
ATOM     18  C   UNL     1       2.112   5.233  18.468  0.00  0.00    +0.000 A 
ENDBRANCH  12  13
ENDBRANCH  11  12
ENDBRANCH   9  11
ENDBRANCH   1   7
BRANCH   1  21
ATOM     19  C   UNL     1       1.940  12.814  19.472  0.00  0.00    +0.000 C 
ATOM     20  O   UNL     1       2.264  13.546  20.405  0.00  0.00    +0.000 OA
ATOM     21  N   UNL     1       0.879  11.882  19.490  0.00  0.00    +0.000 N 
BRANCH  21  22
ATOM     22  C   UNL     1      -0.001  11.783  20.647  0.00  0.00    +0.000 A 
ATOM     23  C   UNL     1      -1.127  12.594  20.804  0.00  0.00    +0.000 A 
ATOM     24  C   UNL     1      -2.005  12.432  21.887  0.00  0.00    +0.000 A 
ATOM     25  C   UNL     1      -1.815  11.442  22.860  0.00  0.00    +0.000 A 
ATOM     26  C   UNL     1      -0.685  10.634  22.732  0.00  0.00    +0.000 A 
ATOM     27 CL   UNL     1      -0.261   9.331  23.790  0.00  0.00    +0.000 Cl
ATOM     28  C   UNL     1       0.210  10.830  21.657  0.00  0.00    +0.000 A 
BRANCH  25  29
ATOM     29  O   UNL     1      -2.814  11.450  23.791  0.00  0.00    +0.000 OA
ATOM     30  C   UNL     1      -3.685  12.561  23.911  0.00  0.00    +0.000 C 
ENDBRANCH  25  29
ENDBRANCH  21  22
BRANCH  19  32
ATOM     31  C   UNL     1       3.641  13.911  18.074  0.00  0.00    +0.000 C 
ATOM     32  C   UNL     1       2.727  12.942  18.211  0.00  0.00    +0.000 C 
ENDBRANCH  19  32
ENDBRANCH   1  21
TORSDOF 9
ENDMDL
MODEL 5
REMARK VINA RESULT:      -6.8      1.380      1.656
REMARK  Name = 
REMARK  10 active torsions:
REMARK  status: ('A' for Active; 'I' for Inactive)
REMARK    1  A    between atoms: C_2  and  C_3
REMARK    2  A    between atoms: N_5  and  C_6
REMARK    3  A    between atoms: N_5  and  C_15
REMARK    4  A    between atoms: C_9  and  O_10
REMARK    5  A    between atoms: O_10  and  C_11
REMARK    6  A    between atoms: C_15  and  C_16
REMARK    7  A    between atoms: C_15  and  C_27
REMARK    8  A    between atoms: N_18  and  C_19
REMARK    9  A    between atoms: C_19  and  C_20
REMARK   10  A    between atoms: C_20  and  C_21
REMARK                            x       y       z     vdW  Elec       q    Type
REMARK                         _______ _______ _______ _____ _____    ______ ____
ROOT
ATOM      1  C   UNL     1       0.145  11.064  18.795  0.00  0.00    +0.000 C 
ENDROOT
BRANCH   1   2
ATOM      2  C   UNL     1      -1.215  10.722  18.191  0.00  0.00    +0.000 A 
ATOM      3  C   UNL     1      -2.021   9.618  18.434  0.00  0.00    +0.000 A 
ATOM      4  C   UNL     1      -3.192   9.579  17.628  0.00  0.00    +0.000 A 
ATOM      5  C   UNL     1      -3.250  10.649  16.767  0.00  0.00    +0.000 A 
ATOM      6  S   UNL     1      -1.905  11.690  16.943  0.00  0.00    +0.000 S 
ENDBRANCH   1   2
BRANCH   1   7
ATOM      7  C   UNL     1       0.935   9.834  19.311  0.00  0.00    +0.000 C 
ATOM      8  O   UNL     1       1.007   9.507  20.496  0.00  0.00    +0.000 OA
ATOM      9  N   UNL     1       1.548   9.066  18.330  0.00  0.00    +0.000 N 
ATOM     10  H   UNL     1       1.543   9.363  17.360  0.00  0.00    +0.000 HD
BRANCH   9  11
ATOM     11  C   UNL     1       2.236   7.863  18.742  0.00  0.00    +0.000 C 
BRANCH  11  12
ATOM     12  C   UNL     1       3.383   7.436  17.833  0.00  0.00    +0.000 C 
BRANCH  12  13
ATOM     13  C   UNL     1       3.259   5.954  17.574  0.00  0.00    +0.000 A 
ATOM     14  C   UNL     1       2.112   5.256  17.979  0.00  0.00    +0.000 A 
ATOM     15  C   UNL     1       2.065   3.865  17.888  0.00  0.00    +0.000 A 
ATOM     16  C   UNL     1       3.160   3.159  17.393  0.00  0.00    +0.000 A 
ATOM     17  C   UNL     1       4.297   3.844  16.969  0.00  0.00    +0.000 A 
ATOM     18  C   UNL     1       4.346   5.236  17.056  0.00  0.00    +0.000 A 
ENDBRANCH  12  13
ENDBRANCH  11  12
ENDBRANCH   9  11
ENDBRANCH   1   7
BRANCH   1  21
ATOM     19  C   UNL     1       1.083  13.191  19.824  0.00  0.00    +0.000 C 
ATOM     20  O   UNL     1       1.129  14.116  20.633  0.00  0.00    +0.000 OA
ATOM     21  N   UNL     1       0.136  12.143  19.829  0.00  0.00    +0.000 N 
BRANCH  21  22
ATOM     22  C   UNL     1      -0.957  12.136  20.792  0.00  0.00    +0.000 A 
ATOM     23  C   UNL     1      -0.829  11.584  22.069  0.00  0.00    +0.000 A 
ATOM     24  C   UNL     1      -1.869  11.654  23.008  0.00  0.00    +0.000 A 
ATOM     25  C   UNL     1      -3.084  12.294  22.730  0.00  0.00    +0.000 A 
ATOM     26  C   UNL     1      -3.240  12.834  21.454  0.00  0.00    +0.000 A 
ATOM     27 CL   UNL     1      -4.634  13.695  20.894  0.00  0.00    +0.000 Cl
ATOM     28  C   UNL     1      -2.199  12.727  20.505  0.00  0.00    +0.000 A 
BRANCH  25  29
ATOM     29  O   UNL     1      -3.926  12.270  23.806  0.00  0.00    +0.000 OA
ATOM     30  C   UNL     1      -3.976  13.358  24.712  0.00  0.00    +0.000 C 
ENDBRANCH  25  29
ENDBRANCH  21  22
BRANCH  19  32
ATOM     31  C   UNL     1       3.152  14.027  18.791  0.00  0.00    +0.000 C 
ATOM     32  C   UNL     1       2.104  13.195  18.738  0.00  0.00    +0.000 C 
ENDBRANCH  19  32
ENDBRANCH   1  21
TORSDOF 9
ENDMDL
MODEL 6
REMARK VINA RESULT:      -6.8      1.489      1.888
REMARK  Name = 
REMARK  10 active torsions:
REMARK  status: ('A' for Active; 'I' for Inactive)
REMARK    1  A    between atoms: C_2  and  C_3
REMARK    2  A    between atoms: N_5  and  C_6
REMARK    3  A    between atoms: N_5  and  C_15
REMARK    4  A    between atoms: C_9  and  O_10
REMARK    5  A    between atoms: O_10  and  C_11
REMARK    6  A    between atoms: C_15  and  C_16
REMARK    7  A    between atoms: C_15  and  C_27
REMARK    8  A    between atoms: N_18  and  C_19
REMARK    9  A    between atoms: C_19  and  C_20
REMARK   10  A    between atoms: C_20  and  C_21
REMARK                            x       y       z     vdW  Elec       q    Type
REMARK                         _______ _______ _______ _____ _____    ______ ____
ROOT
ATOM      1  C   UNL     1      -0.306  11.172  18.553  0.00  0.00    +0.000 C 
ENDROOT
BRANCH   1   2
ATOM      2  C   UNL     1      -1.640  10.727  17.958  0.00  0.00    +0.000 A 
ATOM      3  C   UNL     1      -2.430   9.641  18.310  0.00  0.00    +0.000 A 
ATOM      4  C   UNL     1      -3.575   9.477  17.483  0.00  0.00    +0.000 A 
ATOM      5  C   UNL     1      -3.628  10.433  16.497  0.00  0.00    +0.000 A 
ATOM      6  S   UNL     1      -2.312  11.520  16.582  0.00  0.00    +0.000 S 
ENDBRANCH   1   2
BRANCH   1   7
ATOM      7  C   UNL     1       0.529  10.018  19.165  0.00  0.00    +0.000 C 
ATOM      8  O   UNL     1       0.501   9.700  20.354  0.00  0.00    +0.000 OA
ATOM      9  N   UNL     1       1.313   9.309  18.265  0.00  0.00    +0.000 N 
ATOM     10  H   UNL     1       1.388   9.603  17.297  0.00  0.00    +0.000 HD
BRANCH   9  11
ATOM     11  C   UNL     1       2.057   8.173  18.761  0.00  0.00    +0.000 C 
BRANCH  11  12
ATOM     12  C   UNL     1       3.198   7.709  17.863  0.00  0.00    +0.000 C 
BRANCH  12  13
ATOM     13  C   UNL     1       3.146   6.203  17.765  0.00  0.00    +0.000 A 
ATOM     14  C   UNL     1       4.220   5.490  17.217  0.00  0.00    +0.000 A 
ATOM     15  C   UNL     1       4.108   4.121  16.977  0.00  0.00    +0.000 A 
ATOM     16  C   UNL     1       2.923   3.453  17.281  0.00  0.00    +0.000 A 
ATOM     17  C   UNL     1       1.855   4.149  17.844  0.00  0.00    +0.000 A 
ATOM     18  C   UNL     1       1.966   5.518  18.088  0.00  0.00    +0.000 A 
ENDBRANCH  12  13
ENDBRANCH  11  12
ENDBRANCH   9  11
ENDBRANCH   1   7
BRANCH   1  21
ATOM     19  C   UNL     1       0.551  13.381  19.473  0.00  0.00    +0.000 C 
ATOM     20  O   UNL     1       0.545  14.361  20.217  0.00  0.00    +0.000 OA
ATOM     21  N   UNL     1      -0.380  12.319  19.508  0.00  0.00    +0.000 N 
BRANCH  21  22
ATOM     22  C   UNL     1      -1.517  12.359  20.418  0.00  0.00    +0.000 A 
ATOM     23  C   UNL     1      -1.420  11.968  21.756  0.00  0.00    +0.000 A 
ATOM     24  C   UNL     1      -2.508  12.085  22.636  0.00  0.00    +0.000 A 
ATOM     25  C   UNL     1      -3.741  12.613  22.232  0.00  0.00    +0.000 A 
ATOM     26  C   UNL     1      -3.863  12.991  20.896  0.00  0.00    +0.000 A 
ATOM     27 CL   UNL     1      -5.274  13.694  20.178  0.00  0.00    +0.000 Cl
ATOM     28  C   UNL     1      -2.773  12.836  20.011  0.00  0.00    +0.000 A 
BRANCH  25  29
ATOM     29  O   UNL     1      -4.631  12.664  23.267  0.00  0.00    +0.000 OA
ATOM     30  C   UNL     1      -4.222  12.376  24.592  0.00  0.00    +0.000 C 
ENDBRANCH  25  29
ENDBRANCH  21  22
BRANCH  19  32
ATOM     31  C   UNL     1       2.881  13.668  18.741  0.00  0.00    +0.000 C 
ATOM     32  C   UNL     1       1.622  13.329  18.437  0.00  0.00    +0.000 C 
ENDBRANCH  19  32
ENDBRANCH   1  21
TORSDOF 9
ENDMDL
MODEL 7
REMARK VINA RESULT:      -6.7      3.269      5.009
REMARK  Name = 
REMARK  10 active torsions:
REMARK  status: ('A' for Active; 'I' for Inactive)
REMARK    1  A    between atoms: C_2  and  C_3
REMARK    2  A    between atoms: N_5  and  C_6
REMARK    3  A    between atoms: N_5  and  C_15
REMARK    4  A    between atoms: C_9  and  O_10
REMARK    5  A    between atoms: O_10  and  C_11
REMARK    6  A    between atoms: C_15  and  C_16
REMARK    7  A    between atoms: C_15  and  C_27
REMARK    8  A    between atoms: N_18  and  C_19
REMARK    9  A    between atoms: C_19  and  C_20
REMARK   10  A    between atoms: C_20  and  C_21
REMARK                            x       y       z     vdW  Elec       q    Type
REMARK                         _______ _______ _______ _____ _____    ______ ____
ROOT
ATOM      1  C   UNL     1       0.434   9.864  19.293  0.00  0.00    +0.000 C 
ENDROOT
BRANCH   1   2
ATOM      2  C   UNL     1       0.594   9.699  20.802  0.00  0.00    +0.000 A 
ATOM      3  C   UNL     1       1.694   9.238  21.514  0.00  0.00    +0.000 A 
ATOM      4  C   UNL     1       1.463   9.134  22.914  0.00  0.00    +0.000 A 
ATOM      5  C   UNL     1       0.181   9.501  23.244  0.00  0.00    +0.000 A 
ATOM      6  S   UNL     1      -0.727   9.974  21.875  0.00  0.00    +0.000 S 
ENDBRANCH   1   2
BRANCH   1   7
ATOM      7  C   UNL     1       1.584   9.237  18.463  0.00  0.00    +0.000 C 
ATOM      8  O   UNL     1       2.209   9.836  17.588  0.00  0.00    +0.000 OA
ATOM      9  N   UNL     1       1.912   7.930  18.793  0.00  0.00    +0.000 N 
ATOM     10  H   UNL     1       1.362   7.411  19.469  0.00  0.00    +0.000 HD
BRANCH   9  11
ATOM     11  C   UNL     1       3.027   7.316  18.106  0.00  0.00    +0.000 C 
BRANCH  11  12
ATOM     12  C   UNL     1       3.655   6.130  18.831  0.00  0.00    +0.000 C 
BRANCH  12  13
ATOM     13  C   UNL     1       2.571   5.120  19.119  0.00  0.00    +0.000 A 
ATOM     14  C   UNL     1       2.169   4.867  20.437  0.00  0.00    +0.000 A 
ATOM     15  C   UNL     1       1.288   3.822  20.717  0.00  0.00    +0.000 A 
ATOM     16  C   UNL     1       0.802   3.022  19.685  0.00  0.00    +0.000 A 
ATOM     17  C   UNL     1       1.180   3.277  18.368  0.00  0.00    +0.000 A 
ATOM     18  C   UNL     1       2.059   4.323  18.085  0.00  0.00    +0.000 A 
ENDBRANCH  12  13
ENDBRANCH  11  12
ENDBRANCH   9  11
ENDBRANCH   1   7
BRANCH   1  21
ATOM     19  C   UNL     1      -0.941  11.560  17.989  0.00  0.00    +0.000 C 
ATOM     20  O   UNL     1      -1.235  12.680  17.576  0.00  0.00    +0.000 OA
ATOM     21  N   UNL     1       0.158  11.256  18.824  0.00  0.00    +0.000 N 
BRANCH  21  22
ATOM     22  C   UNL     1       1.007  12.318  19.348  0.00  0.00    +0.000 A 
ATOM     23  C   UNL     1       0.860  12.827  20.640  0.00  0.00    +0.000 A 
ATOM     24  C   UNL     1       1.737  13.796  21.152  0.00  0.00    +0.000 A 
ATOM     25  C   UNL     1       2.815  14.295  20.409  0.00  0.00    +0.000 A 
ATOM     26  C   UNL     1       2.967  13.813  19.109  0.00  0.00    +0.000 A 
ATOM     27 CL   UNL     1       4.236  14.257  18.018  0.00  0.00    +0.000 Cl
ATOM     28  C   UNL     1       2.057  12.864  18.592  0.00  0.00    +0.000 A 
BRANCH  25  29
ATOM     29  O   UNL     1       3.549  15.196  21.126  0.00  0.00    +0.000 OA
ATOM     30  C   UNL     1       4.829  14.855  21.627  0.00  0.00    +0.000 C 
ENDBRANCH  25  29
ENDBRANCH  21  22
BRANCH  19  32
ATOM     31  C   UNL     1      -2.577  10.521  16.476  0.00  0.00    +0.000 C 
ATOM     32  C   UNL     1      -1.835  10.436  17.587  0.00  0.00    +0.000 C 
ENDBRANCH  19  32
ENDBRANCH   1  21
TORSDOF 9
ENDMDL
MODEL 8
REMARK VINA RESULT:      -6.7      3.061      5.148
REMARK  Name = 
REMARK  10 active torsions:
REMARK  status: ('A' for Active; 'I' for Inactive)
REMARK    1  A    between atoms: C_2  and  C_3
REMARK    2  A    between atoms: N_5  and  C_6
REMARK    3  A    between atoms: N_5  and  C_15
REMARK    4  A    between atoms: C_9  and  O_10
REMARK    5  A    between atoms: O_10  and  C_11
REMARK    6  A    between atoms: C_15  and  C_16
REMARK    7  A    between atoms: C_15  and  C_27
REMARK    8  A    between atoms: N_18  and  C_19
REMARK    9  A    between atoms: C_19  and  C_20
REMARK   10  A    between atoms: C_20  and  C_21
REMARK                            x       y       z     vdW  Elec       q    Type
REMARK                         _______ _______ _______ _____ _____    ______ ____
ROOT
ATOM      1  C   UNL     1       0.322   9.744  19.346  0.00  0.00    +0.000 C 
ENDROOT
BRANCH   1   2
ATOM      2  C   UNL     1       0.454   9.679  20.866  0.00  0.00    +0.000 A 
ATOM      3  C   UNL     1       1.482   9.137  21.627  0.00  0.00    +0.000 A 
ATOM      4  C   UNL     1       1.236   9.175  23.027  0.00  0.00    +0.000 A 
ATOM      5  C   UNL     1       0.011   9.731  23.310  0.00  0.00    +0.000 A 
ATOM      6  S   UNL     1      -0.822  10.209  21.896  0.00  0.00    +0.000 S 
ENDBRANCH   1   2
BRANCH   1   7
ATOM      7  C   UNL     1       1.448   9.002  18.581  0.00  0.00    +0.000 C 
ATOM      8  O   UNL     1       1.932   9.390  17.519  0.00  0.00    +0.000 OA
ATOM      9  N   UNL     1       1.928   7.854  19.196  0.00  0.00    +0.000 N 
ATOM     10  H   UNL     1       1.493   7.495  20.039  0.00  0.00    +0.000 HD
BRANCH   9  11
ATOM     11  C   UNL     1       3.031   7.159  18.570  0.00  0.00    +0.000 C 
BRANCH  11  12
ATOM     12  C   UNL     1       2.657   5.857  17.870  0.00  0.00    +0.000 C 
BRANCH  12  13
ATOM     13  C   UNL     1       2.268   4.846  18.922  0.00  0.00    +0.000 A 
ATOM     14  C   UNL     1       1.356   3.825  18.623  0.00  0.00    +0.000 A 
ATOM     15  C   UNL     1       0.873   2.993  19.633  0.00  0.00    +0.000 A 
ATOM     16  C   UNL     1       1.296   3.173  20.948  0.00  0.00    +0.000 A 
ATOM     17  C   UNL     1       2.217   4.173  21.254  0.00  0.00    +0.000 A 
ATOM     18  C   UNL     1       2.704   5.005  20.245  0.00  0.00    +0.000 A 
ENDBRANCH  12  13
ENDBRANCH  11  12
ENDBRANCH   9  11
ENDBRANCH   1   7
BRANCH   1  21
ATOM     19  C   UNL     1      -1.037  11.457  18.050  0.00  0.00    +0.000 C 
ATOM     20  O   UNL     1      -1.272  12.562  17.564  0.00  0.00    +0.000 OA
ATOM     21  N   UNL     1       0.124  11.111  18.776  0.00  0.00    +0.000 N 
BRANCH  21  22
ATOM     22  C   UNL     1       1.133  12.116  19.086  0.00  0.00    +0.000 A 
ATOM     23  C   UNL     1       2.195  12.403  18.225  0.00  0.00    +0.000 A 
ATOM     24  C   UNL     1       3.112  13.427  18.506  0.00  0.00    +0.000 A 
ATOM     25  C   UNL     1       3.009  14.229  19.650  0.00  0.00    +0.000 A 
ATOM     26  C   UNL     1       1.966  13.945  20.532  0.00  0.00    +0.000 A 
ATOM     27 CL   UNL     1       1.621  14.817  21.988  0.00  0.00    +0.000 Cl
ATOM     28  C   UNL     1       1.069  12.889  20.256  0.00  0.00    +0.000 A 
BRANCH  25  29
ATOM     29  O   UNL     1       3.988  15.181  19.691  0.00  0.00    +0.000 OA
ATOM     30  C   UNL     1       5.070  15.071  20.599  0.00  0.00    +0.000 C 
ENDBRANCH  25  29
ENDBRANCH  21  22
BRANCH  19  32
ATOM     31  C   UNL     1      -2.538  10.103  16.650  0.00  0.00    +0.000 C 
ATOM     32  C   UNL     1      -2.080  10.407  17.871  0.00  0.00    +0.000 C 
ENDBRANCH  19  32
ENDBRANCH   1  21
TORSDOF 9
ENDMDL
MODEL 9
REMARK VINA RESULT:      -6.6      2.641      5.081
REMARK  Name = 
REMARK  10 active torsions:
REMARK  status: ('A' for Active; 'I' for Inactive)
REMARK    1  A    between atoms: C_2  and  C_3
REMARK    2  A    between atoms: N_5  and  C_6
REMARK    3  A    between atoms: N_5  and  C_15
REMARK    4  A    between atoms: C_9  and  O_10
REMARK    5  A    between atoms: O_10  and  C_11
REMARK    6  A    between atoms: C_15  and  C_16
REMARK    7  A    between atoms: C_15  and  C_27
REMARK    8  A    between atoms: N_18  and  C_19
REMARK    9  A    between atoms: C_19  and  C_20
REMARK   10  A    between atoms: C_20  and  C_21
REMARK                            x       y       z     vdW  Elec       q    Type
REMARK                         _______ _______ _______ _____ _____    ______ ____
ROOT
ATOM      1  C   UNL     1      -0.987  11.327  20.447  0.00  0.00    +0.000 C 
ENDROOT
BRANCH   1   2
ATOM      2  C   UNL     1      -1.405  12.292  21.554  0.00  0.00    +0.000 A 
ATOM      3  C   UNL     1      -0.615  12.900  22.520  0.00  0.00    +0.000 A 
ATOM      4  C   UNL     1      -1.354  13.680  23.452  0.00  0.00    +0.000 A 
ATOM      5  C   UNL     1      -2.703  13.638  23.190  0.00  0.00    +0.000 A 
ATOM      6  S   UNL     1      -3.064  12.672  21.826  0.00  0.00    +0.000 S 
ENDBRANCH   1   2
BRANCH   1   7
ATOM      7  C   UNL     1       0.299  10.521  20.762  0.00  0.00    +0.000 C 
ATOM      8  O   UNL     1       1.276  10.983  21.353  0.00  0.00    +0.000 OA
ATOM      9  N   UNL     1       0.281   9.192  20.365  0.00  0.00    +0.000 N 
ATOM     10  H   UNL     1      -0.494   8.821  19.825  0.00  0.00    +0.000 HD
BRANCH   9  11
ATOM     11  C   UNL     1       1.421   8.368  20.699  0.00  0.00    +0.000 C 
BRANCH  11  12
ATOM     12  C   UNL     1       2.187   7.813  19.503  0.00  0.00    +0.000 C 
BRANCH  12  13
ATOM     13  C   UNL     1       2.046   6.310  19.504  0.00  0.00    +0.000 A 
ATOM     14  C   UNL     1       2.178   5.584  18.312  0.00  0.00    +0.000 A 
ATOM     15  C   UNL     1       1.888   4.220  18.281  0.00  0.00    +0.000 A 
ATOM     16  C   UNL     1       1.464   3.570  19.438  0.00  0.00    +0.000 A 
ATOM     17  C   UNL     1       1.348   4.278  20.633  0.00  0.00    +0.000 A 
ATOM     18  C   UNL     1       1.640   5.641  20.667  0.00  0.00    +0.000 A 
ENDBRANCH  12  13
ENDBRANCH  11  12
ENDBRANCH   9  11
ENDBRANCH   1   7
BRANCH   1  21
ATOM     19  C   UNL     1      -1.619  11.376  17.985  0.00  0.00    +0.000 C 
ATOM     20  O   UNL     1      -1.607  11.815  16.836  0.00  0.00    +0.000 OA
ATOM     21  N   UNL     1      -0.904  11.917  19.076  0.00  0.00    +0.000 N 
BRANCH  21  22
ATOM     22  C   UNL     1      -0.136  13.146  18.924  0.00  0.00    +0.000 A 
ATOM     23  C   UNL     1      -0.699  14.410  19.111  0.00  0.00    +0.000 A 
ATOM     24  C   UNL     1       0.076  15.578  19.035  0.00  0.00    +0.000 A 
ATOM     25  C   UNL     1       1.454  15.545  18.785  0.00  0.00    +0.000 A 
ATOM     26  C   UNL     1       2.031  14.293  18.576  0.00  0.00    +0.000 A 
ATOM     27 CL   UNL     1       3.713  14.002  18.283  0.00  0.00    +0.000 Cl
ATOM     28  C   UNL     1       1.235  13.127  18.621  0.00  0.00    +0.000 A 
BRANCH  25  29
ATOM     29  O   UNL     1       2.000  16.797  18.795  0.00  0.00    +0.000 OA
ATOM     30  C   UNL     1       2.815  17.225  19.872  0.00  0.00    +0.000 C 
ENDBRANCH  25  29
ENDBRANCH  21  22
BRANCH  19  32
ATOM     31  C   UNL     1      -3.633  10.023  17.588  0.00  0.00    +0.000 C 
ATOM     32  C   UNL     1      -2.476  10.184  18.242  0.00  0.00    +0.000 C 
ENDBRANCH  19  32
ENDBRANCH   1  21
TORSDOF 9
ENDMDL
