MODEL 1
REMARK VINA RESULT:      -6.1      0.000      0.000
REMARK  Name = 
REMARK  8 active torsions:
REMARK  status: ('A' for Active; 'I' for Inactive)
REMARK    1  A    between atoms: C_1  and  C_2
REMARK    2  A    between atoms: C_5  and  C_6
REMARK    3  A    between atoms: C_11  and  N_12
REMARK    4  A    between atoms: C_18  and  C_19
REMARK    5  A    between atoms: C_19  and  C_20
REMARK    6  A    between atoms: C_20  and  C_21
REMARK    7  A    between atoms: C_21  and  O_22
REMARK    8  A    between atoms: C_25  and  O_26
REMARK                            x       y       z     vdW  Elec       q    Type
REMARK                         _______ _______ _______ _____ _____    ______ ____
ROOT
ATOM      1  C   UNL     1       2.522   7.884  18.477  0.00  0.00    +0.000 C 
ATOM      2  O   UNL     1       3.677   8.076  18.102  0.00  0.00    +0.000 OA
ATOM      3  N   UNL     1       1.539   8.877  18.411  0.00  0.00    +0.000 N 
ATOM      4  C   UNL     1       1.828  10.081  17.657  0.00  0.00    +0.000 C 
ATOM      5  C   UNL     1       1.866  11.312  18.552  0.00  0.00    +0.000 C 
ATOM      6  C   UNL     1       0.675  11.431  19.529  0.00  0.00    +0.000 C 
ATOM      7  C   UNL     1       0.328  10.064  20.234  0.00  0.00    +0.000 C 
ATOM      8  C   UNL     1       0.291   8.950  19.171  0.00  0.00    +0.000 C 
ENDROOT
BRANCH   1  13
ATOM      9  C   UNL     1       1.304   2.550  20.381  0.00  0.00    +0.000 C 
ATOM     10  C   UNL     1       1.625   3.925  19.875  0.00  0.00    +0.000 A 
ATOM     11  C   UNL     1       1.789   4.972  20.784  0.00  0.00    +0.000 A 
ATOM     12  C   UNL     1       2.014   6.270  20.330  0.00  0.00    +0.000 A 
ATOM     13  C   UNL     1       2.192   6.525  18.971  0.00  0.00    +0.000 A 
ATOM     14  C   UNL     1       1.997   5.488  18.046  0.00  0.00    +0.000 A 
ATOM     15  C   UNL     1       1.695   4.207  18.505  0.00  0.00    +0.000 A 
BRANCH  15  16
ATOM     16  O   UNL     1       1.465   3.192  17.617  0.00  0.00    +0.000 OA
ATOM     17  H   UNL     1       1.872   2.378  17.955  0.00  0.00    +0.000 HD
ENDBRANCH  15  16
ENDBRANCH   1  13
BRANCH   6  18
ATOM     18  N   UNL     1       0.663  12.627  20.412  0.00  0.00    +0.000 NA
ATOM     19  C   UNL     1      -0.484  13.540  20.180  0.00  0.00    +0.000 C 
ATOM     20  C   UNL     1      -0.261  14.638  19.117  0.00  0.00    +0.000 C 
ATOM     21  O   UNL     1       0.940  15.384  19.336  0.00  0.00    +0.000 OA
ATOM     22  C   UNL     1       2.072  14.520  19.435  0.00  0.00    +0.000 C 
ATOM     23  C   UNL     1       1.865  13.477  20.535  0.00  0.00    +0.000 C 
ENDBRANCH   6  18
BRANCH   7  24
ATOM     24  C   UNL     1       1.227   9.691  21.428  0.00  0.00    +0.000 C 
BRANCH  24  25
ATOM     25  C   UNL     1       0.539   9.271  22.733  0.00  0.00    +0.000 C 
BRANCH  25  26
ATOM     26  C   UNL     1      -0.728  10.094  22.965  0.00  0.00    +0.000 C 
BRANCH  26  27
ATOM     27  O   UNL     1      -0.415  11.475  23.094  0.00  0.00    +0.000 OA
ATOM     28  H   UNL     1       0.460  11.618  22.695  0.00  0.00    +0.000 HD
ENDBRANCH  26  27
ENDBRANCH  25  26
ENDBRANCH  24  25
ENDBRANCH   7  24
TORSDOF 7
ENDMDL
MODEL 2
REMARK VINA RESULT:      -6.0      2.693      4.148
REMARK  Name = 
REMARK  8 active torsions:
REMARK  status: ('A' for Active; 'I' for Inactive)
REMARK    1  A    between atoms: C_1  and  C_2
REMARK    2  A    between atoms: C_5  and  C_6
REMARK    3  A    between atoms: C_11  and  N_12
REMARK    4  A    between atoms: C_18  and  C_19
REMARK    5  A    between atoms: C_19  and  C_20
REMARK    6  A    between atoms: C_20  and  C_21
REMARK    7  A    between atoms: C_21  and  O_22
REMARK    8  A    between atoms: C_25  and  O_26
REMARK                            x       y       z     vdW  Elec       q    Type
REMARK                         _______ _______ _______ _____ _____    ______ ____
ROOT
ATOM      1  C   UNL     1       1.210  11.580  18.723  0.00  0.00    +0.000 C 
ATOM      2  O   UNL     1       2.143  12.354  18.527  0.00  0.00    +0.000 OA
ATOM      3  N   UNL     1      -0.119  12.012  18.795  0.00  0.00    +0.000 N 
ATOM      4  C   UNL     1      -0.423  13.368  18.384  0.00  0.00    +0.000 C 
ATOM      5  C   UNL     1      -0.935  14.208  19.546  0.00  0.00    +0.000 C 
ATOM      6  C   UNL     1      -2.033  13.528  20.394  0.00  0.00    +0.000 C 
ATOM      7  C   UNL     1      -1.706  12.019  20.713  0.00  0.00    +0.000 C 
ATOM      8  C   UNL     1      -1.250  11.323  19.417  0.00  0.00    +0.000 C 
ENDROOT
BRANCH   1  13
ATOM      9  C   UNL     1       2.440   5.939  19.206  0.00  0.00    +0.000 C 
ATOM     10  C   UNL     1       2.112   7.398  19.094  0.00  0.00    +0.000 A 
ATOM     11  C   UNL     1       2.246   8.041  17.861  0.00  0.00    +0.000 A 
ATOM     12  C   UNL     1       2.017   9.411  17.752  0.00  0.00    +0.000 A 
ATOM     13  C   UNL     1       1.544  10.139  18.843  0.00  0.00    +0.000 A 
ATOM     14  C   UNL     1       1.438   9.514  20.094  0.00  0.00    +0.000 A 
ATOM     15  C   UNL     1       1.743   8.158  20.211  0.00  0.00    +0.000 A 
BRANCH  15  16
ATOM     16  O   UNL     1       1.682   7.539  21.429  0.00  0.00    +0.000 OA
ATOM     17  H   UNL     1       1.025   7.991  21.982  0.00  0.00    +0.000 HD
ENDBRANCH  15  16
ENDBRANCH   1  13
BRANCH   6  18
ATOM     18  N   UNL     1      -2.573  14.320  21.531  0.00  0.00    +0.000 NA
ATOM     19  C   UNL     1      -3.855  13.804  22.072  0.00  0.00    +0.000 C 
ATOM     20  C   UNL     1      -5.134  14.358  21.405  0.00  0.00    +0.000 C 
ATOM     21  O   UNL     1      -5.151  15.788  21.345  0.00  0.00    +0.000 OA
ATOM     22  C   UNL     1      -3.976  16.290  20.709  0.00  0.00    +0.000 C 
ATOM     23  C   UNL     1      -2.717  15.786  21.418  0.00  0.00    +0.000 C 
ENDBRANCH   6  18
BRANCH   7  24
ATOM     24  C   UNL     1      -0.716  11.788  21.870  0.00  0.00    +0.000 C 
BRANCH  24  25
ATOM     25  C   UNL     1      -1.220  11.016  23.095  0.00  0.00    +0.000 C 
BRANCH  25  26
ATOM     26  C   UNL     1      -0.606   9.616  23.141  0.00  0.00    +0.000 C 
BRANCH  26  27
ATOM     27  O   UNL     1       0.769   9.681  23.496  0.00  0.00    +0.000 OA
ATOM     28  H   UNL     1       1.014   8.826  23.887  0.00  0.00    +0.000 HD
ENDBRANCH  26  27
ENDBRANCH  25  26
ENDBRANCH  24  25
ENDBRANCH   7  24
TORSDOF 7
ENDMDL
MODEL 3
REMARK VINA RESULT:      -6.0      3.169      5.262
REMARK  Name = 
REMARK  8 active torsions:
REMARK  status: ('A' for Active; 'I' for Inactive)
REMARK    1  A    between atoms: C_1  and  C_2
REMARK    2  A    between atoms: C_5  and  C_6
REMARK    3  A    between atoms: C_11  and  N_12
REMARK    4  A    between atoms: C_18  and  C_19
REMARK    5  A    between atoms: C_19  and  C_20
REMARK    6  A    between atoms: C_20  and  C_21
REMARK    7  A    between atoms: C_21  and  O_22
REMARK    8  A    between atoms: C_25  and  O_26
REMARK                            x       y       z     vdW  Elec       q    Type
REMARK                         _______ _______ _______ _____ _____    ______ ____
ROOT
ATOM      1  C   UNL     1      -0.211   9.313  21.700  0.00  0.00    +0.000 C 
ATOM      2  O   UNL     1      -0.838   8.467  22.334  0.00  0.00    +0.000 OA
ATOM      3  N   UNL     1      -0.311  10.681  21.977  0.00  0.00    +0.000 N 
ATOM      4  C   UNL     1      -0.979  11.088  23.197  0.00  0.00    +0.000 C 
ATOM      5  C   UNL     1      -2.249  11.877  22.909  0.00  0.00    +0.000 C 
ATOM      6  C   UNL     1      -2.084  12.997  21.858  0.00  0.00    +0.000 C 
ATOM      7  C   UNL     1      -1.248  12.534  20.603  0.00  0.00    +0.000 C 
ATOM      8  C   UNL     1       0.014  11.798  21.089  0.00  0.00    +0.000 C 
ENDROOT
BRANCH   1  13
ATOM      9  C   UNL     1       3.402   7.451  17.572  0.00  0.00    +0.000 C 
ATOM     10  C   UNL     1       2.468   7.948  18.636  0.00  0.00    +0.000 A 
ATOM     11  C   UNL     1       2.275   7.188  19.792  0.00  0.00    +0.000 A 
ATOM     12  C   UNL     1       1.357   7.595  20.757  0.00  0.00    +0.000 A 
ATOM     13  C   UNL     1       0.702   8.820  20.639  0.00  0.00    +0.000 A 
ATOM     14  C   UNL     1       0.861   9.576  19.468  0.00  0.00    +0.000 A 
ATOM     15  C   UNL     1       1.723   9.122  18.472  0.00  0.00    +0.000 A 
BRANCH  15  16
ATOM     16  O   UNL     1       1.864   9.825  17.307  0.00  0.00    +0.000 OA
ATOM     17  H   UNL     1       2.752  10.218  17.279  0.00  0.00    +0.000 HD
ENDBRANCH  15  16
ENDBRANCH   1  13
BRANCH   6  18
ATOM     18  N   UNL     1      -3.296  13.804  21.557  0.00  0.00    +0.000 NA
ATOM     19  C   UNL     1      -3.134  15.257  21.810  0.00  0.00    +0.000 C 
ATOM     20  C   UNL     1      -3.480  15.730  23.239  0.00  0.00    +0.000 C 
ATOM     21  O   UNL     1      -4.769  15.284  23.672  0.00  0.00    +0.000 OA
ATOM     22  C   UNL     1      -4.891  13.867  23.552  0.00  0.00    +0.000 C 
ATOM     23  C   UNL     1      -4.608  13.418  22.116  0.00  0.00    +0.000 C 
ENDBRANCH   6  18
BRANCH   7  24
ATOM     24  C   UNL     1      -2.028  11.715  19.557  0.00  0.00    +0.000 C 
BRANCH  24  25
ATOM     25  C   UNL     1      -1.666  11.916  18.081  0.00  0.00    +0.000 C 
BRANCH  25  26
ATOM     26  C   UNL     1      -2.660  11.186  17.177  0.00  0.00    +0.000 C 
BRANCH  26  27
ATOM     27  O   UNL     1      -2.414  11.491  15.810  0.00  0.00    +0.000 OA
ATOM     28  H   UNL     1      -1.925  10.744  15.424  0.00  0.00    +0.000 HD
ENDBRANCH  26  27
ENDBRANCH  25  26
ENDBRANCH  24  25
ENDBRANCH   7  24
TORSDOF 7
ENDMDL
MODEL 4
REMARK VINA RESULT:      -5.9      3.100      5.029
REMARK  Name = 
REMARK  8 active torsions:
REMARK  status: ('A' for Active; 'I' for Inactive)
REMARK    1  A    between atoms: C_1  and  C_2
REMARK    2  A    between atoms: C_5  and  C_6
REMARK    3  A    between atoms: C_11  and  N_12
REMARK    4  A    between atoms: C_18  and  C_19
REMARK    5  A    between atoms: C_19  and  C_20
REMARK    6  A    between atoms: C_20  and  C_21
REMARK    7  A    between atoms: C_21  and  O_22
REMARK    8  A    between atoms: C_25  and  O_26
REMARK                            x       y       z     vdW  Elec       q    Type
REMARK                         _______ _______ _______ _____ _____    ______ ____
ROOT
ATOM      1  C   UNL     1      -0.043   9.096  21.572  0.00  0.00    +0.000 C 
ATOM      2  O   UNL     1      -0.686   8.252  22.191  0.00  0.00    +0.000 OA
ATOM      3  N   UNL     1      -0.131  10.463  21.859  0.00  0.00    +0.000 N 
ATOM      4  C   UNL     1      -0.808  10.867  23.075  0.00  0.00    +0.000 C 
ATOM      5  C   UNL     1      -2.066  11.673  22.779  0.00  0.00    +0.000 C 
ATOM      6  C   UNL     1      -1.876  12.800  21.740  0.00  0.00    +0.000 C 
ATOM      7  C   UNL     1      -1.031  12.338  20.491  0.00  0.00    +0.000 C 
ATOM      8  C   UNL     1       0.217  11.584  20.985  0.00  0.00    +0.000 C 
ENDROOT
BRANCH   1  13
ATOM      9  C   UNL     1       3.505   7.103  17.449  0.00  0.00    +0.000 C 
ATOM     10  C   UNL     1       2.585   7.605  18.522  0.00  0.00    +0.000 A 
ATOM     11  C   UNL     1       1.839   8.764  18.303  0.00  0.00    +0.000 A 
ATOM     12  C   UNL     1       1.036   9.287  19.314  0.00  0.00    +0.000 A 
ATOM     13  C   UNL     1       0.877   8.603  20.518  0.00  0.00    +0.000 A 
ATOM     14  C   UNL     1       1.647   7.456  20.764  0.00  0.00    +0.000 A 
ATOM     15  C   UNL     1       2.507   6.982  19.774  0.00  0.00    +0.000 A 
BRANCH  15  16
ATOM     16  O   UNL     1       3.293   5.887  20.008  0.00  0.00    +0.000 OA
ATOM     17  H   UNL     1       2.743   5.173  20.370  0.00  0.00    +0.000 HD
ENDBRANCH  15  16
ENDBRANCH   1  13
BRANCH   6  18
ATOM     18  N   UNL     1      -3.076  13.623  21.432  0.00  0.00    +0.000 NA
ATOM     19  C   UNL     1      -3.075  14.959  22.077  0.00  0.00    +0.000 C 
ATOM     20  C   UNL     1      -3.704  15.021  23.486  0.00  0.00    +0.000 C 
ATOM     21  O   UNL     1      -5.011  14.438  23.535  0.00  0.00    +0.000 OA
ATOM     22  C   UNL     1      -4.997  13.103  23.032  0.00  0.00    +0.000 C 
ATOM     23  C   UNL     1      -4.431  13.063  21.611  0.00  0.00    +0.000 C 
ENDBRANCH   6  18
BRANCH   7  24
ATOM     24  C   UNL     1      -1.807  11.536  19.429  0.00  0.00    +0.000 C 
BRANCH  24  25
ATOM     25  C   UNL     1      -1.535  11.857  17.955  0.00  0.00    +0.000 C 
BRANCH  25  26
ATOM     26  C   UNL     1      -2.544  11.147  17.052  0.00  0.00    +0.000 C 
BRANCH  26  27
ATOM     27  O   UNL     1      -3.760  11.881  16.982  0.00  0.00    +0.000 OA
ATOM     28  H   UNL     1      -3.828  12.257  16.088  0.00  0.00    +0.000 HD
ENDBRANCH  26  27
ENDBRANCH  25  26
ENDBRANCH  24  25
ENDBRANCH   7  24
TORSDOF 7
ENDMDL
MODEL 5
REMARK VINA RESULT:      -5.9      2.821      5.020
REMARK  Name = 
REMARK  8 active torsions:
REMARK  status: ('A' for Active; 'I' for Inactive)
REMARK    1  A    between atoms: C_1  and  C_2
REMARK    2  A    between atoms: C_5  and  C_6
REMARK    3  A    between atoms: C_11  and  N_12
REMARK    4  A    between atoms: C_18  and  C_19
REMARK    5  A    between atoms: C_19  and  C_20
REMARK    6  A    between atoms: C_20  and  C_21
REMARK    7  A    between atoms: C_21  and  O_22
REMARK    8  A    between atoms: C_25  and  O_26
REMARK                            x       y       z     vdW  Elec       q    Type
REMARK                         _______ _______ _______ _____ _____    ______ ____
ROOT
ATOM      1  C   UNL     1      -0.131   9.090  21.566  0.00  0.00    +0.000 C 
ATOM      2  O   UNL     1      -0.835   8.216  22.066  0.00  0.00    +0.000 OA
ATOM      3  N   UNL     1      -0.168  10.420  21.999  0.00  0.00    +0.000 N 
ATOM      4  C   UNL     1      -0.873  10.723  23.229  0.00  0.00    +0.000 C 
ATOM      5  C   UNL     1      -2.080  11.617  22.981  0.00  0.00    +0.000 C 
ATOM      6  C   UNL     1      -1.799  12.839  22.080  0.00  0.00    +0.000 C 
ATOM      7  C   UNL     1      -0.927  12.475  20.817  0.00  0.00    +0.000 C 
ATOM      8  C   UNL     1       0.265  11.611  21.266  0.00  0.00    +0.000 C 
ENDROOT
BRANCH   1  13
ATOM      9  C   UNL     1       3.485   7.380  17.376  0.00  0.00    +0.000 C 
ATOM     10  C   UNL     1       2.549   7.808  18.466  0.00  0.00    +0.000 A 
ATOM     11  C   UNL     1       1.769   8.953  18.293  0.00  0.00    +0.000 A 
ATOM     12  C   UNL     1       0.948   9.409  19.323  0.00  0.00    +0.000 A 
ATOM     13  C   UNL     1       0.806   8.669  20.496  0.00  0.00    +0.000 A 
ATOM     14  C   UNL     1       1.609   7.536  20.696  0.00  0.00    +0.000 A 
ATOM     15  C   UNL     1       2.485   7.130  19.690  0.00  0.00    +0.000 A 
BRANCH  15  16
ATOM     16  O   UNL     1       3.303   6.050  19.880  0.00  0.00    +0.000 OA
ATOM     17  H   UNL     1       3.111   5.657  20.747  0.00  0.00    +0.000 HD
ENDBRANCH  15  16
ENDBRANCH   1  13
BRANCH   6  18
ATOM     18  N   UNL     1      -2.947  13.749  21.824  0.00  0.00    +0.000 NA
ATOM     19  C   UNL     1      -2.869  15.041  22.550  0.00  0.00    +0.000 C 
ATOM     20  C   UNL     1      -3.496  15.055  23.962  0.00  0.00    +0.000 C 
ATOM     21  O   UNL     1      -4.835  14.548  23.976  0.00  0.00    +0.000 OA
ATOM     22  C   UNL     1      -4.900  13.248  23.392  0.00  0.00    +0.000 C 
ATOM     23  C   UNL     1      -4.333  13.261  21.970  0.00  0.00    +0.000 C 
ENDBRANCH   6  18
BRANCH   7  24
ATOM     24  C   UNL     1      -1.697  11.833  19.647  0.00  0.00    +0.000 C 
BRANCH  24  25
ATOM     25  C   UNL     1      -1.285  12.225  18.223  0.00  0.00    +0.000 C 
BRANCH  25  26
ATOM     26  C   UNL     1      -0.247  13.346  18.250  0.00  0.00    +0.000 C 
BRANCH  26  27
ATOM     27  O   UNL     1       1.042  12.846  17.917  0.00  0.00    +0.000 OA
ATOM     28  H   UNL     1       1.417  12.439  18.716  0.00  0.00    +0.000 HD
ENDBRANCH  26  27
ENDBRANCH  25  26
ENDBRANCH  24  25
ENDBRANCH   7  24
TORSDOF 7
ENDMDL
MODEL 6
REMARK VINA RESULT:      -5.9      3.006      4.920
REMARK  Name = 
REMARK  8 active torsions:
REMARK  status: ('A' for Active; 'I' for Inactive)
REMARK    1  A    between atoms: C_1  and  C_2
REMARK    2  A    between atoms: C_5  and  C_6
REMARK    3  A    between atoms: C_11  and  N_12
REMARK    4  A    between atoms: C_18  and  C_19
REMARK    5  A    between atoms: C_19  and  C_20
REMARK    6  A    between atoms: C_20  and  C_21
REMARK    7  A    between atoms: C_21  and  O_22
REMARK    8  A    between atoms: C_25  and  O_26
REMARK                            x       y       z     vdW  Elec       q    Type
REMARK                         _______ _______ _______ _____ _____    ______ ____
ROOT
ATOM      1  C   UNL     1      -0.214   9.266  21.594  0.00  0.00    +0.000 C 
ATOM      2  O   UNL     1      -0.895   8.409  22.150  0.00  0.00    +0.000 OA
ATOM      3  N   UNL     1      -0.274  10.618  21.951  0.00  0.00    +0.000 N 
ATOM      4  C   UNL     1      -0.973  10.977  23.169  0.00  0.00    +0.000 C 
ATOM      5  C   UNL     1      -2.201  11.831  22.884  0.00  0.00    +0.000 C 
ATOM      6  C   UNL     1      -1.953  13.005  21.911  0.00  0.00    +0.000 C 
ATOM      7  C   UNL     1      -1.087  12.587  20.661  0.00  0.00    +0.000 C 
ATOM      8  C   UNL     1       0.127  11.773  21.146  0.00  0.00    +0.000 C 
ENDROOT
BRANCH   1  13
ATOM      9  C   UNL     1       3.392   7.393  17.465  0.00  0.00    +0.000 C 
ATOM     10  C   UNL     1       2.458   7.863  18.540  0.00  0.00    +0.000 A 
ATOM     11  C   UNL     1       1.694   9.014  18.333  0.00  0.00    +0.000 A 
ATOM     12  C   UNL     1       0.876   9.509  19.346  0.00  0.00    +0.000 A 
ATOM     13  C   UNL     1       0.721   8.803  20.539  0.00  0.00    +0.000 A 
ATOM     14  C   UNL     1       1.507   7.666  20.773  0.00  0.00    +0.000 A 
ATOM     15  C   UNL     1       2.381   7.221  19.782  0.00  0.00    +0.000 A 
BRANCH  15  16
ATOM     16  O   UNL     1       3.184   6.136  20.005  0.00  0.00    +0.000 OA
ATOM     17  H   UNL     1       4.005   6.240  19.498  0.00  0.00    +0.000 HD
ENDBRANCH  15  16
ENDBRANCH   1  13
BRANCH   6  18
ATOM     18  N   UNL     1      -3.122  13.876  21.617  0.00  0.00    +0.000 NA
ATOM     19  C   UNL     1      -2.764  15.192  21.032  0.00  0.00    +0.000 C 
ATOM     20  C   UNL     1      -2.495  16.324  22.048  0.00  0.00    +0.000 C 
ATOM     21  O   UNL     1      -3.547  16.468  23.008  0.00  0.00    +0.000 OA
ATOM     22  C   UNL     1      -3.813  15.231  23.669  0.00  0.00    +0.000 C 
ATOM     23  C   UNL     1      -4.142  14.133  22.654  0.00  0.00    +0.000 C 
ENDBRANCH   6  18
BRANCH   7  24
ATOM     24  C   UNL     1      -1.855  11.863  19.539  0.00  0.00    +0.000 C 
BRANCH  24  25
ATOM     25  C   UNL     1      -1.479  12.195  18.090  0.00  0.00    +0.000 C 
BRANCH  25  26
ATOM     26  C   UNL     1      -2.264  11.318  17.114  0.00  0.00    +0.000 C 
BRANCH  26  27
ATOM     27  O   UNL     1      -1.553  10.118  16.833  0.00  0.00    +0.000 OA
ATOM     28  H   UNL     1      -0.654  10.365  16.557  0.00  0.00    +0.000 HD
ENDBRANCH  26  27
ENDBRANCH  25  26
ENDBRANCH  24  25
ENDBRANCH   7  24
TORSDOF 7
ENDMDL
MODEL 7
REMARK VINA RESULT:      -5.8      2.530      4.601
REMARK  Name = 
REMARK  8 active torsions:
REMARK  status: ('A' for Active; 'I' for Inactive)
REMARK    1  A    between atoms: C_1  and  C_2
REMARK    2  A    between atoms: C_5  and  C_6
REMARK    3  A    between atoms: C_11  and  N_12
REMARK    4  A    between atoms: C_18  and  C_19
REMARK    5  A    between atoms: C_19  and  C_20
REMARK    6  A    between atoms: C_20  and  C_21
REMARK    7  A    between atoms: C_21  and  O_22
REMARK    8  A    between atoms: C_25  and  O_26
REMARK                            x       y       z     vdW  Elec       q    Type
REMARK                         _______ _______ _______ _____ _____    ______ ____
ROOT
ATOM      1  C   UNL     1       0.223   8.570  21.281  0.00  0.00    +0.000 C 
ATOM      2  O   UNL     1      -0.650   7.757  21.575  0.00  0.00    +0.000 OA
ATOM      3  N   UNL     1       0.348   9.802  21.934  0.00  0.00    +0.000 N 
ATOM      4  C   UNL     1      -0.416  10.017  23.146  0.00  0.00    +0.000 C 
ATOM      5  C   UNL     1      -1.445  11.127  22.975  0.00  0.00    +0.000 C 
ATOM      6  C   UNL     1      -0.898  12.414  22.319  0.00  0.00    +0.000 C 
ATOM      7  C   UNL     1       0.024  12.116  21.074  0.00  0.00    +0.000 C 
ATOM      8  C   UNL     1       1.023  11.006  21.448  0.00  0.00    +0.000 C 
ENDROOT
BRANCH   1  13
ATOM      9  C   UNL     1       3.926   6.964  17.125  0.00  0.00    +0.000 C 
ATOM     10  C   UNL     1       2.967   7.365  18.207  0.00  0.00    +0.000 A 
ATOM     11  C   UNL     1       2.187   8.513  18.045  0.00  0.00    +0.000 A 
ATOM     12  C   UNL     1       1.345   8.943  19.068  0.00  0.00    +0.000 A 
ATOM     13  C   UNL     1       1.182   8.176  20.220  0.00  0.00    +0.000 A 
ATOM     14  C   UNL     1       1.983   7.040  20.410  0.00  0.00    +0.000 A 
ATOM     15  C   UNL     1       2.880   6.660  19.413  0.00  0.00    +0.000 A 
BRANCH  15  16
ATOM     16  O   UNL     1       3.697   5.577  19.595  0.00  0.00    +0.000 OA
ATOM     17  H   UNL     1       3.714   5.052  18.778  0.00  0.00    +0.000 HD
ENDBRANCH  15  16
ENDBRANCH   1  13
BRANCH   6  18
ATOM     18  N   UNL     1      -1.865  13.530  22.147  0.00  0.00    +0.000 NA
ATOM     19  C   UNL     1      -1.478  14.780  22.847  0.00  0.00    +0.000 C 
ATOM     20  C   UNL     1      -1.972  14.910  24.305  0.00  0.00    +0.000 C 
ATOM     21  O   UNL     1      -3.377  14.672  24.436  0.00  0.00    +0.000 OA
ATOM     22  C   UNL     1      -3.741  13.411  23.877  0.00  0.00    +0.000 C 
ATOM     23  C   UNL     1      -3.303  13.319  22.413  0.00  0.00    +0.000 C 
ENDBRANCH   6  18
BRANCH   7  24
ATOM     24  C   UNL     1      -0.721  11.804  19.762  0.00  0.00    +0.000 C 
BRANCH  24  25
ATOM     25  C   UNL     1      -0.504  12.753  18.578  0.00  0.00    +0.000 C 
BRANCH  25  26
ATOM     26  C   UNL     1      -0.047  14.129  19.064  0.00  0.00    +0.000 C 
BRANCH  26  27
ATOM     27  O   UNL     1      -1.166  14.967  19.325  0.00  0.00    +0.000 OA
ATOM     28  H   UNL     1      -1.932  14.591  18.858  0.00  0.00    +0.000 HD
ENDBRANCH  26  27
ENDBRANCH  25  26
ENDBRANCH  24  25
ENDBRANCH   7  24
TORSDOF 7
ENDMDL
MODEL 8
REMARK VINA RESULT:      -5.7      2.667      4.862
REMARK  Name = 
REMARK  8 active torsions:
REMARK  status: ('A' for Active; 'I' for Inactive)
REMARK    1  A    between atoms: C_1  and  C_2
REMARK    2  A    between atoms: C_5  and  C_6
REMARK    3  A    between atoms: C_11  and  N_12
REMARK    4  A    between atoms: C_18  and  C_19
REMARK    5  A    between atoms: C_19  and  C_20
REMARK    6  A    between atoms: C_20  and  C_21
REMARK    7  A    between atoms: C_21  and  O_22
REMARK    8  A    between atoms: C_25  and  O_26
REMARK                            x       y       z     vdW  Elec       q    Type
REMARK                         _______ _______ _______ _____ _____    ______ ____
ROOT
ATOM      1  C   UNL     1      -0.003   8.877  21.482  0.00  0.00    +0.000 C 
ATOM      2  O   UNL     1      -0.855   8.062  21.827  0.00  0.00    +0.000 OA
ATOM      3  N   UNL     1       0.108  10.140  22.074  0.00  0.00    +0.000 N 
ATOM      4  C   UNL     1      -0.642  10.399  23.287  0.00  0.00    +0.000 C 
ATOM      5  C   UNL     1      -1.694  11.479  23.079  0.00  0.00    +0.000 C 
ATOM      6  C   UNL     1      -1.182  12.743  22.355  0.00  0.00    +0.000 C 
ATOM      7  C   UNL     1      -0.273  12.404  21.111  0.00  0.00    +0.000 C 
ATOM      8  C   UNL     1       0.753  11.331  21.521  0.00  0.00    +0.000 C 
ENDROOT
BRANCH   1  13
ATOM      9  C   UNL     1       3.752   7.275  17.372  0.00  0.00    +0.000 C 
ATOM     10  C   UNL     1       2.781   7.705  18.431  0.00  0.00    +0.000 A 
ATOM     11  C   UNL     1       2.641   6.937  19.589  0.00  0.00    +0.000 A 
ATOM     12  C   UNL     1       1.692   7.278  20.550  0.00  0.00    +0.000 A 
ATOM     13  C   UNL     1       0.948   8.450  20.426  0.00  0.00    +0.000 A 
ATOM     14  C   UNL     1       1.054   9.212  19.253  0.00  0.00    +0.000 A 
ATOM     15  C   UNL     1       1.952   8.820  18.261  0.00  0.00    +0.000 A 
BRANCH  15  16
ATOM     16  O   UNL     1       2.043   9.528  17.094  0.00  0.00    +0.000 OA
ATOM     17  H   UNL     1       2.556  10.337  17.253  0.00  0.00    +0.000 HD
ENDBRANCH  15  16
ENDBRANCH   1  13
BRANCH   6  18
ATOM     18  N   UNL     1      -2.173  13.832  22.145  0.00  0.00    +0.000 NA
ATOM     19  C   UNL     1      -1.731  15.157  22.646  0.00  0.00    +0.000 C 
ATOM     20  C   UNL     1      -2.079  15.466  24.119  0.00  0.00    +0.000 C 
ATOM     21  O   UNL     1      -3.462  15.249  24.418  0.00  0.00    +0.000 OA
ATOM     22  C   UNL     1      -3.866  13.929  24.055  0.00  0.00    +0.000 C 
ATOM     23  C   UNL     1      -3.575  13.658  22.577  0.00  0.00    +0.000 C 
ENDBRANCH   6  18
BRANCH   7  24
ATOM     24  C   UNL     1      -1.031  12.017  19.827  0.00  0.00    +0.000 C 
BRANCH  24  25
ATOM     25  C   UNL     1      -0.737  12.822  18.556  0.00  0.00    +0.000 C 
BRANCH  25  26
ATOM     26  C   UNL     1       0.706  13.329  18.559  0.00  0.00    +0.000 C 
BRANCH  26  27
ATOM     27  O   UNL     1       1.561  12.417  17.880  0.00  0.00    +0.000 OA
ATOM     28  H   UNL     1       1.406  11.533  18.254  0.00  0.00    +0.000 HD
ENDBRANCH  26  27
ENDBRANCH  25  26
ENDBRANCH  24  25
ENDBRANCH   7  24
TORSDOF 7
ENDMDL
MODEL 9
REMARK VINA RESULT:      -5.7      0.953      1.335
REMARK  Name = 
REMARK  8 active torsions:
REMARK  status: ('A' for Active; 'I' for Inactive)
REMARK    1  A    between atoms: C_1  and  C_2
REMARK    2  A    between atoms: C_5  and  C_6
REMARK    3  A    between atoms: C_11  and  N_12
REMARK    4  A    between atoms: C_18  and  C_19
REMARK    5  A    between atoms: C_19  and  C_20
REMARK    6  A    between atoms: C_20  and  C_21
REMARK    7  A    between atoms: C_21  and  O_22
REMARK    8  A    between atoms: C_25  and  O_26
REMARK                            x       y       z     vdW  Elec       q    Type
REMARK                         _______ _______ _______ _____ _____    ______ ____
ROOT
ATOM      1  C   UNL     1       2.631   7.680  18.292  0.00  0.00    +0.000 C 
ATOM      2  O   UNL     1       3.779   7.902  17.913  0.00  0.00    +0.000 OA
ATOM      3  N   UNL     1       1.650   8.677  18.331  0.00  0.00    +0.000 N 
ATOM      4  C   UNL     1       1.928   9.940  17.678  0.00  0.00    +0.000 C 
ATOM      5  C   UNL     1       1.987  11.090  18.675  0.00  0.00    +0.000 C 
ATOM      6  C   UNL     1       0.816  11.127  19.682  0.00  0.00    +0.000 C 
ATOM      7  C   UNL     1       0.479   9.704  20.273  0.00  0.00    +0.000 C 
ATOM      8  C   UNL     1       0.417   8.686  19.119  0.00  0.00    +0.000 C 
ENDROOT
BRANCH   1  13
ATOM      9  C   UNL     1       1.302   2.255  19.826  0.00  0.00    +0.000 C 
ATOM     10  C   UNL     1       1.643   3.664  19.444  0.00  0.00    +0.000 A 
ATOM     11  C   UNL     1       1.555   4.055  18.106  0.00  0.00    +0.000 A 
ATOM     12  C   UNL     1       1.938   5.337  17.719  0.00  0.00    +0.000 A 
ATOM     13  C   UNL     1       2.307   6.284  18.674  0.00  0.00    +0.000 A 
ATOM     14  C   UNL     1       2.432   5.895  20.016  0.00  0.00    +0.000 A 
ATOM     15  C   UNL     1       2.120   4.587  20.383  0.00  0.00    +0.000 A 
BRANCH  15  16
ATOM     16  O   UNL     1       2.272   4.178  21.680  0.00  0.00    +0.000 OA
ATOM     17  H   UNL     1       3.172   3.836  21.801  0.00  0.00    +0.000 HD
ENDBRANCH  15  16
ENDBRANCH   1  13
BRANCH   6  18
ATOM     18  N   UNL     1       0.825  12.242  20.664  0.00  0.00    +0.000 NA
ATOM     19  C   UNL     1      -0.412  13.063  20.661  0.00  0.00    +0.000 C 
ATOM     20  C   UNL     1      -0.419  14.258  19.682  0.00  0.00    +0.000 C 
ATOM     21  O   UNL     1       0.737  15.090  19.817  0.00  0.00    +0.000 OA
ATOM     22  C   UNL     1       1.938  14.328  19.695  0.00  0.00    +0.000 C 
ATOM     23  C   UNL     1       1.962  13.185  20.713  0.00  0.00    +0.000 C 
ENDBRANCH   6  18
BRANCH   7  24
ATOM     24  C   UNL     1       1.399   9.229  21.413  0.00  0.00    +0.000 C 
BRANCH  24  25
ATOM     25  C   UNL     1       0.893   9.389  22.851  0.00  0.00    +0.000 C 
BRANCH  25  26
ATOM     26  C   UNL     1      -0.604   9.700  22.866  0.00  0.00    +0.000 C 
BRANCH  26  27
ATOM     27  O   UNL     1      -0.839  11.023  23.330  0.00  0.00    +0.000 OA
ATOM     28  H   UNL     1      -1.775  11.085  23.584  0.00  0.00    +0.000 HD
ENDBRANCH  26  27
ENDBRANCH  25  26
ENDBRANCH  24  25
ENDBRANCH   7  24
TORSDOF 7
ENDMDL
