MODEL 1
REMARK VINA RESULT:      -7.2      0.000      0.000
REMARK  Name = 
REMARK  6 active torsions:
REMARK  status: ('A' for Active; 'I' for Inactive)
REMARK    1  A    between atoms: C_2  and  S_4
REMARK    2  A    between atoms: S_4  and  C_5
REMARK    3  A    between atoms: C_5  and  C_6
REMARK    4  A    between atoms: C_14  and  C_15
REMARK    5  A    between atoms: C_15  and  S_16
REMARK    6  A    between atoms: S_16  and  C_17
REMARK                            x       y       z     vdW  Elec       q    Type
REMARK                         _______ _______ _______ _____ _____    ______ ____
ROOT
ATOM      1  C   UNL     1       1.545   8.189  20.045  0.00  0.00    +0.000 A 
ATOM      2  C   UNL     1       1.228   9.431  19.448  0.00  0.00    +0.000 A 
ATOM      3  C   UNL     1       1.761   9.784  18.188  0.00  0.00    +0.000 A 
ATOM      4  C   UNL     1       2.614   8.903  17.498  0.00  0.00    +0.000 A 
ATOM      5  C   UNL     1       2.910   7.684  18.106  0.00  0.00    +0.000 A 
ATOM      6  C   UNL     1       2.401   7.337  19.338  0.00  0.00    +0.000 A 
ATOM      7  O   UNL     1       2.826   6.141  19.707  0.00  0.00    +0.000 OA
ATOM      8  C   UNL     1       3.600   5.693  18.737  0.00  0.00    +0.000 A 
ATOM      9  C   UNL     1       4.278   4.467  18.679  0.00  0.00    +0.000 A 
ATOM     10  C   UNL     1       5.031   4.207  17.507  0.00  0.00    +0.000 A 
ATOM     11  C   UNL     1       5.103   5.156  16.462  0.00  0.00    +0.000 A 
ATOM     12  C   UNL     1       4.424   6.383  16.558  0.00  0.00    +0.000 A 
ATOM     13  C   UNL     1       3.678   6.616  17.711  0.00  0.00    +0.000 A 
ENDROOT
BRANCH   1  14
ATOM     14  C   UNL     1       0.979   7.787  21.379  0.00  0.00    +0.000 C 
BRANCH  14  15
ATOM     15  S   UNL     1      -0.678   8.530  21.601  0.00  0.00    +0.000 S 
BRANCH  15  17
ATOM     16  N   UNL     1       0.866   9.593  23.540  0.00  0.00    +0.000 NA
ATOM     17  C   UNL     1      -0.233   9.719  22.886  0.00  0.00    +0.000 C 
ATOM     18  N   UNL     1      -1.140  10.761  23.209  0.00  0.00    +0.000 N 
ATOM     19  H   UNL     1       1.124  10.249  24.292  0.00  0.00    +0.000 HD
ATOM     20  H   UNL     1      -0.935  11.423  23.971  0.00  0.00    +0.000 HD
ATOM     21  H   UNL     1      -2.033  10.848  22.701  0.00  0.00    +0.000 HD
ENDBRANCH  15  17
ENDBRANCH  14  15
ENDBRANCH   1  14
BRANCH   9  22
ATOM     22  C   UNL     1       4.227   3.459  19.806  0.00  0.00    +0.000 C 
BRANCH  22  23
ATOM     23  S   UNL     1       2.809   2.330  19.531  0.00  0.00    +0.000 S 
BRANCH  23  24
ATOM     24  C   UNL     1       1.699   3.011  20.782  0.00  0.00    +0.000 C 
ATOM     25  N   UNL     1       1.868   2.726  22.027  0.00  0.00    +0.000 NA
ATOM     26  N   UNL     1       0.692   3.935  20.408  0.00  0.00    +0.000 N 
ATOM     27  H   UNL     1       2.615   2.092  22.340  0.00  0.00    +0.000 HD
ATOM     28  H   UNL     1       0.574   4.198  19.420  0.00  0.00    +0.000 HD
ATOM     29  H   UNL     1       0.108   4.390  21.125  0.00  0.00    +0.000 HD
ENDBRANCH  23  24
ENDBRANCH  22  23
ENDBRANCH   9  22
TORSDOF 6
ENDMDL
MODEL 2
REMARK VINA RESULT:      -7.2      0.115      5.724
REMARK  Name = 
REMARK  6 active torsions:
REMARK  status: ('A' for Active; 'I' for Inactive)
REMARK    1  A    between atoms: C_2  and  S_4
REMARK    2  A    between atoms: S_4  and  C_5
REMARK    3  A    between atoms: C_5  and  C_6
REMARK    4  A    between atoms: C_14  and  C_15
REMARK    5  A    between atoms: C_15  and  S_16
REMARK    6  A    between atoms: S_16  and  C_17
REMARK                            x       y       z     vdW  Elec       q    Type
REMARK                         _______ _______ _______ _____ _____    ______ ____
ROOT
ATOM      1  C   UNL     1       4.182   4.441  18.677  0.00  0.00    +0.000 A 
ATOM      2  C   UNL     1       4.940   4.171  17.513  0.00  0.00    +0.000 A 
ATOM      3  C   UNL     1       5.022   5.120  16.469  0.00  0.00    +0.000 A 
ATOM      4  C   UNL     1       4.356   6.355  16.569  0.00  0.00    +0.000 A 
ATOM      5  C   UNL     1       3.616   6.598  17.725  0.00  0.00    +0.000 A 
ATOM      6  C   UNL     1       3.525   5.674  18.744  0.00  0.00    +0.000 A 
ATOM      7  O   UNL     1       2.768   6.127  19.728  0.00  0.00    +0.000 OA
ATOM      8  C   UNL     1       2.366   7.334  19.378  0.00  0.00    +0.000 A 
ATOM      9  C   UNL     1       1.542   8.207  20.104  0.00  0.00    +0.000 A 
ATOM     10  C   UNL     1       1.275   9.469  19.519  0.00  0.00    +0.000 A 
ATOM     11  C   UNL     1       1.802   9.812  18.253  0.00  0.00    +0.000 A 
ATOM     12  C   UNL     1       2.611   8.908  17.543  0.00  0.00    +0.000 A 
ATOM     13  C   UNL     1       2.875   7.677  18.139  0.00  0.00    +0.000 A 
ENDROOT
BRANCH   1  14
ATOM     14  C   UNL     1       4.091   3.452  19.806  0.00  0.00    +0.000 C 
BRANCH  14  15
ATOM     15  S   UNL     1       2.716   2.283  19.498  0.00  0.00    +0.000 S 
BRANCH  15  17
ATOM     16  N   UNL     1       0.672   3.833  20.329  0.00  0.00    +0.000 NA
ATOM     17  C   UNL     1       1.551   2.970  20.694  0.00  0.00    +0.000 C 
ATOM     18  N   UNL     1       1.654   2.590  22.058  0.00  0.00    +0.000 N 
ATOM     19  H   UNL     1       0.014   4.252  21.003  0.00  0.00    +0.000 HD
ATOM     20  H   UNL     1       1.036   3.005  22.770  0.00  0.00    +0.000 HD
ATOM     21  H   UNL     1       2.375   1.917  22.356  0.00  0.00    +0.000 HD
ENDBRANCH  15  17
ENDBRANCH  14  15
ENDBRANCH   1  14
BRANCH   9  22
ATOM     22  C   UNL     1       0.953   7.835  21.447  0.00  0.00    +0.000 C 
BRANCH  22  23
ATOM     23  S   UNL     1      -0.707   8.600  21.600  0.00  0.00    +0.000 S 
BRANCH  23  24
ATOM     24  C   UNL     1      -0.337   9.729  22.960  0.00  0.00    +0.000 C 
ATOM     25  N   UNL     1       0.712   9.553  23.686  0.00  0.00    +0.000 NA
ATOM     26  N   UNL     1      -1.154  10.867  23.177  0.00  0.00    +0.000 N 
ATOM     27  H   UNL     1       1.350   8.761  23.531  0.00  0.00    +0.000 HD
ATOM     28  H   UNL     1      -1.973  11.036  22.577  0.00  0.00    +0.000 HD
ATOM     29  H   UNL     1      -0.904  11.559  23.898  0.00  0.00    +0.000 HD
ENDBRANCH  23  24
ENDBRANCH  22  23
ENDBRANCH   9  22
TORSDOF 6
ENDMDL
MODEL 3
REMARK VINA RESULT:      -7.0      1.407      6.277
REMARK  Name = 
REMARK  6 active torsions:
REMARK  status: ('A' for Active; 'I' for Inactive)
REMARK    1  A    between atoms: C_2  and  S_4
REMARK    2  A    between atoms: S_4  and  C_5
REMARK    3  A    between atoms: C_5  and  C_6
REMARK    4  A    between atoms: C_14  and  C_15
REMARK    5  A    between atoms: C_15  and  S_16
REMARK    6  A    between atoms: S_16  and  C_17
REMARK                            x       y       z     vdW  Elec       q    Type
REMARK                         _______ _______ _______ _____ _____    ______ ____
ROOT
ATOM      1  C   UNL     1       4.521   4.690  18.619  0.00  0.00    +0.000 A 
ATOM      2  C   UNL     1       5.276   4.479  17.442  0.00  0.00    +0.000 A 
ATOM      3  C   UNL     1       5.244   5.417  16.385  0.00  0.00    +0.000 A 
ATOM      4  C   UNL     1       4.465   6.583  16.485  0.00  0.00    +0.000 A 
ATOM      5  C   UNL     1       3.730   6.770  17.655  0.00  0.00    +0.000 A 
ATOM      6  C   UNL     1       3.750   5.856  18.686  0.00  0.00    +0.000 A 
ATOM      7  O   UNL     1       2.974   6.247  19.682  0.00  0.00    +0.000 OA
ATOM      8  C   UNL     1       2.449   7.405  19.327  0.00  0.00    +0.000 A 
ATOM      9  C   UNL     1       1.561   8.205  20.061  0.00  0.00    +0.000 A 
ATOM     10  C   UNL     1       1.160   9.427  19.467  0.00  0.00    +0.000 A 
ATOM     11  C   UNL     1       1.625   9.802  18.186  0.00  0.00    +0.000 A 
ATOM     12  C   UNL     1       2.502   8.969  17.468  0.00  0.00    +0.000 A 
ATOM     13  C   UNL     1       2.896   7.778  18.073  0.00  0.00    +0.000 A 
ENDROOT
BRANCH   1  14
ATOM     14  C   UNL     1       4.549   3.713  19.761  0.00  0.00    +0.000 C 
BRANCH  14  15
ATOM     15  S   UNL     1       2.919   2.897  19.922  0.00  0.00    +0.000 S 
BRANCH  15  17
ATOM     16  N   UNL     1       2.182   1.969  17.499  0.00  0.00    +0.000 NA
ATOM     17  C   UNL     1       3.034   1.850  18.454  0.00  0.00    +0.000 C 
ATOM     18  N   UNL     1       4.040   0.852  18.393  0.00  0.00    +0.000 N 
ATOM     19  H   UNL     1       2.219   1.364  16.666  0.00  0.00    +0.000 HD
ATOM     20  H   UNL     1       4.097   0.208  17.591  0.00  0.00    +0.000 HD
ATOM     21  H   UNL     1       4.708   0.740  19.170  0.00  0.00    +0.000 HD
ENDBRANCH  15  17
ENDBRANCH  14  15
ENDBRANCH   1  14
BRANCH   9  22
ATOM     22  C   UNL     1       1.039   7.796  21.421  0.00  0.00    +0.000 C 
BRANCH  22  23
ATOM     23  S   UNL     1      -0.637   8.503  21.651  0.00  0.00    +0.000 S 
BRANCH  23  24
ATOM     24  C   UNL     1      -0.231   9.695  22.946  0.00  0.00    +0.000 C 
ATOM     25  N   UNL     1       0.843   9.558  23.642  0.00  0.00    +0.000 NA
ATOM     26  N   UNL     1      -1.049  10.836  23.139  0.00  0.00    +0.000 N 
ATOM     27  H   UNL     1       1.482   8.764  23.502  0.00  0.00    +0.000 HD
ATOM     28  H   UNL     1      -1.889  10.973  22.560  0.00  0.00    +0.000 HD
ATOM     29  H   UNL     1      -0.780  11.561  23.820  0.00  0.00    +0.000 HD
ENDBRANCH  23  24
ENDBRANCH  22  23
ENDBRANCH   9  22
TORSDOF 6
ENDMDL
MODEL 4
REMARK VINA RESULT:      -6.8      3.139      6.202
REMARK  Name = 
REMARK  6 active torsions:
REMARK  status: ('A' for Active; 'I' for Inactive)
REMARK    1  A    between atoms: C_2  and  S_4
REMARK    2  A    between atoms: S_4  and  C_5
REMARK    3  A    between atoms: C_5  and  C_6
REMARK    4  A    between atoms: C_14  and  C_15
REMARK    5  A    between atoms: C_15  and  S_16
REMARK    6  A    between atoms: S_16  and  C_17
REMARK                            x       y       z     vdW  Elec       q    Type
REMARK                         _______ _______ _______ _____ _____    ______ ____
ROOT
ATOM      1  C   UNL     1       5.488   5.963  16.879  0.00  0.00    +0.000 A 
ATOM      2  C   UNL     1       6.044   5.341  15.737  0.00  0.00    +0.000 A 
ATOM      3  C   UNL     1       5.531   4.113  15.262  0.00  0.00    +0.000 A 
ATOM      4  C   UNL     1       4.452   3.487  15.913  0.00  0.00    +0.000 A 
ATOM      5  C   UNL     1       3.920   4.120  17.035  0.00  0.00    +0.000 A 
ATOM      6  C   UNL     1       4.421   5.313  17.509  0.00  0.00    +0.000 A 
ATOM      7  O   UNL     1       3.759   5.712  18.582  0.00  0.00    +0.000 OA
ATOM      8  C   UNL     1       2.830   4.806  18.818  0.00  0.00    +0.000 A 
ATOM      9  C   UNL     1       1.883   4.799  19.853  0.00  0.00    +0.000 A 
ATOM     10  C   UNL     1       0.967   3.719  19.875  0.00  0.00    +0.000 A 
ATOM     11  C   UNL     1       1.028   2.692  18.905  0.00  0.00    +0.000 A 
ATOM     12  C   UNL     1       2.000   2.719  17.890  0.00  0.00    +0.000 A 
ATOM     13  C   UNL     1       2.884   3.796  17.875  0.00  0.00    +0.000 A 
ENDROOT
BRANCH   1  14
ATOM     14  C   UNL     1       6.009   7.276  17.395  0.00  0.00    +0.000 C 
BRANCH  14  15
ATOM     15  S   UNL     1       7.800   7.140  17.744  0.00  0.00    +0.000 S 
BRANCH  15  17
ATOM     16  N   UNL     1       7.435   5.655  19.965  0.00  0.00    +0.000 NA
ATOM     17  C   UNL     1       7.736   5.619  18.716  0.00  0.00    +0.000 C 
ATOM     18  N   UNL     1       8.081   4.389  18.100  0.00  0.00    +0.000 N 
ATOM     19  H   UNL     1       7.417   4.800  20.540  0.00  0.00    +0.000 HD
ATOM     20  H   UNL     1       8.102   3.514  18.644  0.00  0.00    +0.000 HD
ATOM     21  H   UNL     1       8.347   4.363  17.105  0.00  0.00    +0.000 HD
ENDBRANCH  15  17
ENDBRANCH  14  15
ENDBRANCH   1  14
BRANCH   9  22
ATOM     22  C   UNL     1       1.830   5.881  20.909  0.00  0.00    +0.000 C 
BRANCH  22  23
ATOM     23  S   UNL     1       1.735   7.515  20.082  0.00  0.00    +0.000 S 
BRANCH  23  24
ATOM     24  C   UNL     1       0.991   8.441  21.442  0.00  0.00    +0.000 C 
ATOM     25  N   UNL     1      -0.289   8.534  21.544  0.00  0.00    +0.000 NA
ATOM     26  N   UNL     1       1.813   8.995  22.455  0.00  0.00    +0.000 N 
ATOM     27  H   UNL     1      -0.919   8.109  20.849  0.00  0.00    +0.000 HD
ATOM     28  H   UNL     1       2.836   8.893  22.402  0.00  0.00    +0.000 HD
ATOM     29  H   UNL     1       1.393   9.454  23.276  0.00  0.00    +0.000 HD
ENDBRANCH  23  24
ENDBRANCH  22  23
ENDBRANCH   9  22
TORSDOF 6
ENDMDL
MODEL 5
REMARK VINA RESULT:      -6.8      3.597      7.721
REMARK  Name = 
REMARK  6 active torsions:
REMARK  status: ('A' for Active; 'I' for Inactive)
REMARK    1  A    between atoms: C_2  and  S_4
REMARK    2  A    between atoms: S_4  and  C_5
REMARK    3  A    between atoms: C_5  and  C_6
REMARK    4  A    between atoms: C_14  and  C_15
REMARK    5  A    between atoms: C_15  and  S_16
REMARK    6  A    between atoms: S_16  and  C_17
REMARK                            x       y       z     vdW  Elec       q    Type
REMARK                         _______ _______ _______ _____ _____    ______ ____
ROOT
ATOM      1  C   UNL     1       3.751   6.246  18.210  0.00  0.00    +0.000 A 
ATOM      2  C   UNL     1       3.946   4.957  18.759  0.00  0.00    +0.000 A 
ATOM      3  C   UNL     1       3.250   4.555  19.922  0.00  0.00    +0.000 A 
ATOM      4  C   UNL     1       2.344   5.427  20.552  0.00  0.00    +0.000 A 
ATOM      5  C   UNL     1       2.168   6.691  19.992  0.00  0.00    +0.000 A 
ATOM      6  C   UNL     1       2.850   7.093  18.863  0.00  0.00    +0.000 A 
ATOM      7  O   UNL     1       2.521   8.328  18.526  0.00  0.00    +0.000 OA
ATOM      8  C   UNL     1       1.632   8.743  19.408  0.00  0.00    +0.000 A 
ATOM      9  C   UNL     1       0.994   9.991  19.460  0.00  0.00    +0.000 A 
ATOM     10  C   UNL     1       0.050  10.184  20.499  0.00  0.00    +0.000 A 
ATOM     11  C   UNL     1      -0.211   9.166  21.445  0.00  0.00    +0.000 A 
ATOM     12  C   UNL     1       0.458   7.932  21.375  0.00  0.00    +0.000 A 
ATOM     13  C   UNL     1       1.372   7.754  20.339  0.00  0.00    +0.000 A 
ENDROOT
BRANCH   1  14
ATOM     14  C   UNL     1       4.471   6.691  16.967  0.00  0.00    +0.000 C 
BRANCH  14  15
ATOM     15  S   UNL     1       5.215   5.245  16.127  0.00  0.00    +0.000 S 
BRANCH  15  17
ATOM     16  N   UNL     1       7.430   6.701  16.621  0.00  0.00    +0.000 NA
ATOM     17  C   UNL     1       6.921   5.521  16.649  0.00  0.00    +0.000 C 
ATOM     18  N   UNL     1       7.716   4.411  17.034  0.00  0.00    +0.000 N 
ATOM     19  H   UNL     1       8.409   6.873  16.893  0.00  0.00    +0.000 HD
ATOM     20  H   UNL     1       8.707   4.533  17.287  0.00  0.00    +0.000 HD
ATOM     21  H   UNL     1       7.316   3.461  17.033  0.00  0.00    +0.000 HD
ENDBRANCH  15  17
ENDBRANCH  14  15
ENDBRANCH   1  14
BRANCH   9  22
ATOM     22  C   UNL     1       1.290  11.093  18.467  0.00  0.00    +0.000 C 
BRANCH  22  23
ATOM     23  S   UNL     1       1.209  12.709  19.331  0.00  0.00    +0.000 S 
BRANCH  23  24
ATOM     24  C   UNL     1      -0.185  13.410  18.422  0.00  0.00    +0.000 C 
ATOM     25  N   UNL     1      -0.898  12.667  17.649  0.00  0.00    +0.000 NA
ATOM     26  N   UNL     1      -0.556  14.762  18.627  0.00  0.00    +0.000 N 
ATOM     27  H   UNL     1      -0.683  11.671  17.508  0.00  0.00    +0.000 HD
ATOM     28  H   UNL     1      -0.014  15.353  19.273  0.00  0.00    +0.000 HD
ATOM     29  H   UNL     1      -1.398  15.147  18.175  0.00  0.00    +0.000 HD
ENDBRANCH  23  24
ENDBRANCH  22  23
ENDBRANCH   9  22
TORSDOF 6
ENDMDL
MODEL 6
REMARK VINA RESULT:      -6.8      5.959      8.156
REMARK  Name = 
REMARK  6 active torsions:
REMARK  status: ('A' for Active; 'I' for Inactive)
REMARK    1  A    between atoms: C_2  and  S_4
REMARK    2  A    between atoms: S_4  and  C_5
REMARK    3  A    between atoms: C_5  and  C_6
REMARK    4  A    between atoms: C_14  and  C_15
REMARK    5  A    between atoms: C_15  and  S_16
REMARK    6  A    between atoms: S_16  and  C_17
REMARK                            x       y       z     vdW  Elec       q    Type
REMARK                         _______ _______ _______ _____ _____    ______ ____
ROOT
ATOM      1  C   UNL     1      -0.318  11.487  20.550  0.00  0.00    +0.000 A 
ATOM      2  C   UNL     1       0.942  10.860  20.401  0.00  0.00    +0.000 A 
ATOM      3  C   UNL     1       1.231  10.081  19.258  0.00  0.00    +0.000 A 
ATOM      4  C   UNL     1       0.273   9.919  18.241  0.00  0.00    +0.000 A 
ATOM      5  C   UNL     1      -0.961  10.546  18.409  0.00  0.00    +0.000 A 
ATOM      6  C   UNL     1      -1.252  11.300  19.525  0.00  0.00    +0.000 A 
ATOM      7  O   UNL     1      -2.479  11.788  19.460  0.00  0.00    +0.000 OA
ATOM      8  C   UNL     1      -2.997  11.373  18.320  0.00  0.00    +0.000 A 
ATOM      9  C   UNL     1      -4.278  11.637  17.813  0.00  0.00    +0.000 A 
ATOM     10  C   UNL     1      -4.588  11.095  16.542  0.00  0.00    +0.000 A 
ATOM     11  C   UNL     1      -3.648  10.310  15.836  0.00  0.00    +0.000 A 
ATOM     12  C   UNL     1      -2.378  10.049  16.379  0.00  0.00    +0.000 A 
ATOM     13  C   UNL     1      -2.085  10.601  17.623  0.00  0.00    +0.000 A 
ENDROOT
BRANCH   1  14
ATOM     14  C   UNL     1      -0.643  12.330  21.751  0.00  0.00    +0.000 C 
BRANCH  14  15
ATOM     15  S   UNL     1      -1.471  11.307  23.023  0.00  0.00    +0.000 S 
BRANCH  15  17
ATOM     16  N   UNL     1      -3.831  12.089  24.068  0.00  0.00    +0.000 NA
ATOM     17  C   UNL     1      -3.039  12.203  23.063  0.00  0.00    +0.000 C 
ATOM     18  N   UNL     1      -3.416  12.988  21.942  0.00  0.00    +0.000 N 
ATOM     19  H   UNL     1      -4.739  12.575  24.096  0.00  0.00    +0.000 HD
ATOM     20  H   UNL     1      -4.326  13.468  21.917  0.00  0.00    +0.000 HD
ATOM     21  H   UNL     1      -2.792  13.059  21.125  0.00  0.00    +0.000 HD
ENDBRANCH  15  17
ENDBRANCH  14  15
ENDBRANCH   1  14
BRANCH   9  22
ATOM     22  C   UNL     1      -5.297  12.454  18.576  0.00  0.00    +0.000 C 
BRANCH  22  23
ATOM     23  S   UNL     1      -6.876  11.525  18.643  0.00  0.00    +0.000 S 
BRANCH  23  24
ATOM     24  C   UNL     1      -6.862  11.132  20.406  0.00  0.00    +0.000 C 
ATOM     25  N   UNL     1      -6.222  11.881  21.234  0.00  0.00    +0.000 NA
ATOM     26  N   UNL     1      -7.632  10.048  20.896  0.00  0.00    +0.000 N 
ATOM     27  H   UNL     1      -5.685  12.701  20.919  0.00  0.00    +0.000 HD
ATOM     28  H   UNL     1      -8.178   9.467  20.245  0.00  0.00    +0.000 HD
ATOM     29  H   UNL     1      -7.694   9.868  21.908  0.00  0.00    +0.000 HD
ENDBRANCH  23  24
ENDBRANCH  22  23
ENDBRANCH   9  22
TORSDOF 6
ENDMDL
MODEL 7
REMARK VINA RESULT:      -6.7      3.587      4.685
REMARK  Name = 
REMARK  6 active torsions:
REMARK  status: ('A' for Active; 'I' for Inactive)
REMARK    1  A    between atoms: C_2  and  S_4
REMARK    2  A    between atoms: S_4  and  C_5
REMARK    3  A    between atoms: C_5  and  C_6
REMARK    4  A    between atoms: C_14  and  C_15
REMARK    5  A    between atoms: C_15  and  S_16
REMARK    6  A    between atoms: S_16  and  C_17
REMARK                            x       y       z     vdW  Elec       q    Type
REMARK                         _______ _______ _______ _____ _____    ______ ____
ROOT
ATOM      1  C   UNL     1       1.023   9.909  19.495  0.00  0.00    +0.000 A 
ATOM      2  C   UNL     1       0.109  10.104  20.557  0.00  0.00    +0.000 A 
ATOM      3  C   UNL     1      -0.139   9.075  21.493  0.00  0.00    +0.000 A 
ATOM      4  C   UNL     1       0.523   7.838  21.391  0.00  0.00    +0.000 A 
ATOM      5  C   UNL     1       1.420   7.670  20.337  0.00  0.00    +0.000 A 
ATOM      6  C   UNL     1       1.660   8.666  19.416  0.00  0.00    +0.000 A 
ATOM      7  O   UNL     1       2.541   8.273  18.512  0.00  0.00    +0.000 OA
ATOM      8  C   UNL     1       2.888   7.039  18.826  0.00  0.00    +0.000 A 
ATOM      9  C   UNL     1       3.798   6.207  18.157  0.00  0.00    +0.000 A 
ATOM     10  C   UNL     1       4.020   4.923  18.713  0.00  0.00    +0.000 A 
ATOM     11  C   UNL     1       3.336   4.505  19.877  0.00  0.00    +0.000 A 
ATOM     12  C   UNL     1       2.417   5.357  20.515  0.00  0.00    +0.000 A 
ATOM     13  C   UNL     1       2.221   6.620  19.963  0.00  0.00    +0.000 A 
ENDROOT
BRANCH   1  14
ATOM     14  C   UNL     1       1.313  10.994  18.494  0.00  0.00    +0.000 C 
BRANCH  14  15
ATOM     15  S   UNL     1       1.257  12.628  19.316  0.00  0.00    +0.000 S 
BRANCH  15  17
ATOM     16  N   UNL     1      -0.793  12.571  17.564  0.00  0.00    +0.000 NA
ATOM     17  C   UNL     1      -0.160  13.295  18.416  0.00  0.00    +0.000 C 
ATOM     18  N   UNL     1      -0.531  14.650  18.615  0.00  0.00    +0.000 N 
ATOM     19  H   UNL     1      -1.589  12.942  17.025  0.00  0.00    +0.000 HD
ATOM     20  H   UNL     1      -1.303  15.071  18.078  0.00  0.00    +0.000 HD
ATOM     21  H   UNL     1      -0.008  15.239  19.280  0.00  0.00    +0.000 HD
ENDBRANCH  15  17
ENDBRANCH  14  15
ENDBRANCH   1  14
BRANCH   9  22
ATOM     22  C   UNL     1       4.512   6.639  16.895  0.00  0.00    +0.000 C 
BRANCH  22  23
ATOM     23  S   UNL     1       5.243   5.163  16.090  0.00  0.00    +0.000 S 
BRANCH  23  24
ATOM     24  C   UNL     1       6.963   5.447  16.560  0.00  0.00    +0.000 C 
ATOM     25  N   UNL     1       7.449   6.639  16.563  0.00  0.00    +0.000 NA
ATOM     26  N   UNL     1       7.761   4.367  17.013  0.00  0.00    +0.000 N 
ATOM     27  H   UNL     1       6.887   7.453  16.279  0.00  0.00    +0.000 HD
ATOM     28  H   UNL     1       7.369   3.416  17.050  0.00  0.00    +0.000 HD
ATOM     29  H   UNL     1       8.717   4.533  17.360  0.00  0.00    +0.000 HD
ENDBRANCH  23  24
ENDBRANCH  22  23
ENDBRANCH   9  22
TORSDOF 6
ENDMDL
MODEL 8
REMARK VINA RESULT:      -6.7      3.052      4.303
REMARK  Name = 
REMARK  6 active torsions:
REMARK  status: ('A' for Active; 'I' for Inactive)
REMARK    1  A    between atoms: C_2  and  S_4
REMARK    2  A    between atoms: S_4  and  C_5
REMARK    3  A    between atoms: C_5  and  C_6
REMARK    4  A    between atoms: C_14  and  C_15
REMARK    5  A    between atoms: C_15  and  S_16
REMARK    6  A    between atoms: S_16  and  C_17
REMARK                            x       y       z     vdW  Elec       q    Type
REMARK                         _______ _______ _______ _____ _____    ______ ____
ROOT
ATOM      1  C   UNL     1       1.860   4.982  20.049  0.00  0.00    +0.000 A 
ATOM      2  C   UNL     1       0.932   3.920  20.158  0.00  0.00    +0.000 A 
ATOM      3  C   UNL     1       0.915   2.875  19.207  0.00  0.00    +0.000 A 
ATOM      4  C   UNL     1       1.826   2.866  18.135  0.00  0.00    +0.000 A 
ATOM      5  C   UNL     1       2.731   3.923  18.049  0.00  0.00    +0.000 A 
ATOM      6  C   UNL     1       2.748   4.950  18.968  0.00  0.00    +0.000 A 
ATOM      7  O   UNL     1       3.687   5.833  18.675  0.00  0.00    +0.000 OA
ATOM      8  C   UNL     1       4.291   5.402  17.585  0.00  0.00    +0.000 A 
ATOM      9  C   UNL     1       5.354   6.007  16.897  0.00  0.00    +0.000 A 
ATOM     10  C   UNL     1       5.849   5.327  15.758  0.00  0.00    +0.000 A 
ATOM     11  C   UNL     1       5.278   4.106  15.332  0.00  0.00    +0.000 A 
ATOM     12  C   UNL     1       4.202   3.534  16.033  0.00  0.00    +0.000 A 
ATOM     13  C   UNL     1       3.737   4.209  17.159  0.00  0.00    +0.000 A 
ENDROOT
BRANCH   1  14
ATOM     14  C   UNL     1       1.904   6.098  21.056  0.00  0.00    +0.000 C 
BRANCH  14  15
ATOM     15  S   UNL     1       1.671   7.705  20.212  0.00  0.00    +0.000 S 
BRANCH  15  17
ATOM     16  N   UNL     1       1.810   9.165  22.476  0.00  0.00    +0.000 NA
ATOM     17  C   UNL     1       1.016   8.620  21.625  0.00  0.00    +0.000 C 
ATOM     18  N   UNL     1      -0.388   8.679  21.820  0.00  0.00    +0.000 N 
ATOM     19  H   UNL     1       1.453   9.670  23.300  0.00  0.00    +0.000 HD
ATOM     20  H   UNL     1      -0.787   9.150  22.645  0.00  0.00    +0.000 HD
ATOM     21  H   UNL     1      -1.025   8.221  21.152  0.00  0.00    +0.000 HD
ENDBRANCH  15  17
ENDBRANCH  14  15
ENDBRANCH   1  14
BRANCH   9  22
ATOM     22  C   UNL     1       5.952   7.327  17.333  0.00  0.00    +0.000 C 
BRANCH  22  23
ATOM     23  S   UNL     1       7.734   7.085  17.687  0.00  0.00    +0.000 S 
BRANCH  23  24
ATOM     24  C   UNL     1       7.597   5.548  18.625  0.00  0.00    +0.000 C 
ATOM     25  N   UNL     1       6.978   5.527  19.754  0.00  0.00    +0.000 NA
ATOM     26  N   UNL     1       8.092   4.338  18.079  0.00  0.00    +0.000 N 
ATOM     27  H   UNL     1       6.570   6.379  20.163  0.00  0.00    +0.000 HD
ATOM     28  H   UNL     1       8.554   4.338  17.159  0.00  0.00    +0.000 HD
ATOM     29  H   UNL     1       7.946   3.444  18.570  0.00  0.00    +0.000 HD
ENDBRANCH  23  24
ENDBRANCH  22  23
ENDBRANCH   9  22
TORSDOF 6
ENDMDL
MODEL 9
REMARK VINA RESULT:      -6.7      4.121      5.448
REMARK  Name = 
REMARK  6 active torsions:
REMARK  status: ('A' for Active; 'I' for Inactive)
REMARK    1  A    between atoms: C_2  and  S_4
REMARK    2  A    between atoms: S_4  and  C_5
REMARK    3  A    between atoms: C_5  and  C_6
REMARK    4  A    between atoms: C_14  and  C_15
REMARK    5  A    between atoms: C_15  and  S_16
REMARK    6  A    between atoms: S_16  and  C_17
REMARK                            x       y       z     vdW  Elec       q    Type
REMARK                         _______ _______ _______ _____ _____    ______ ____
ROOT
ATOM      1  C   UNL     1       4.491   6.826  17.438  0.00  0.00    +0.000 A 
ATOM      2  C   UNL     1       3.855   8.066  17.196  0.00  0.00    +0.000 A 
ATOM      3  C   UNL     1       2.667   8.414  17.879  0.00  0.00    +0.000 A 
ATOM      4  C   UNL     1       2.098   7.535  18.818  0.00  0.00    +0.000 A 
ATOM      5  C   UNL     1       2.743   6.320  19.040  0.00  0.00    +0.000 A 
ATOM      6  C   UNL     1       3.897   5.971  18.372  0.00  0.00    +0.000 A 
ATOM      7  O   UNL     1       4.318   4.775  18.745  0.00  0.00    +0.000 OA
ATOM      8  C   UNL     1       3.466   4.335  19.651  0.00  0.00    +0.000 A 
ATOM      9  C   UNL     1       3.499   3.111  20.336  0.00  0.00    +0.000 A 
ATOM     10  C   UNL     1       2.475   2.882  21.289  0.00  0.00    +0.000 A 
ATOM     11  C   UNL     1       1.462   3.842  21.514  0.00  0.00    +0.000 A 
ATOM     12  C   UNL     1       1.447   5.052  20.798  0.00  0.00    +0.000 A 
ATOM     13  C   UNL     1       2.469   5.266  19.876  0.00  0.00    +0.000 A 
ENDROOT
BRANCH   1  14
ATOM     14  C   UNL     1       5.762   6.440  16.732  0.00  0.00    +0.000 C 
BRANCH  14  15
ATOM     15  S   UNL     1       7.207   7.038  17.683  0.00  0.00    +0.000 S 
BRANCH  15  17
ATOM     16  N   UNL     1       7.277   4.363  18.019  0.00  0.00    +0.000 NA
ATOM     17  C   UNL     1       7.573   5.496  18.549  0.00  0.00    +0.000 C 
ATOM     18  N   UNL     1       8.138   5.549  19.850  0.00  0.00    +0.000 N 
ATOM     19  H   UNL     1       7.458   3.474  18.509  0.00  0.00    +0.000 HD
ATOM     20  H   UNL     1       8.310   4.687  20.386  0.00  0.00    +0.000 HD
ATOM     21  H   UNL     1       8.352   6.458  20.285  0.00  0.00    +0.000 HD
ENDBRANCH  15  17
ENDBRANCH  14  15
ENDBRANCH   1  14
BRANCH   9  22
ATOM     22  C   UNL     1       4.565   2.069  20.080  0.00  0.00    +0.000 C 
BRANCH  22  23
ATOM     23  S   UNL     1       3.962   0.904  18.798  0.00  0.00    +0.000 S 
BRANCH  23  24
ATOM     24  C   UNL     1       3.702   2.103  17.472  0.00  0.00    +0.000 C 
ATOM     25  N   UNL     1       2.509   2.440  17.125  0.00  0.00    +0.000 NA
ATOM     26  N   UNL     1       4.813   2.745  16.870  0.00  0.00    +0.000 N 
ATOM     27  H   UNL     1       1.679   2.025  17.568  0.00  0.00    +0.000 HD
ATOM     28  H   UNL     1       5.769   2.509  17.169  0.00  0.00    +0.000 HD
ATOM     29  H   UNL     1       4.670   3.488  16.171  0.00  0.00    +0.000 HD
ENDBRANCH  23  24
ENDBRANCH  22  23
ENDBRANCH   9  22
TORSDOF 6
ENDMDL
