MODEL 1
REMARK VINA RESULT:      -7.5      0.000      0.000
REMARK  Name = 
REMARK  3 active torsions:
REMARK  status: ('A' for Active; 'I' for Inactive)
REMARK    1  A    between atoms: C_4  and  O_5
REMARK    2  A    between atoms: O_5  and  C_6
REMARK    3  A    between atoms: C_6  and  C_7
REMARK                            x       y       z     vdW  Elec       q    Type
REMARK                         _______ _______ _______ _____ _____    ______ ____
ROOT
ATOM      1  O   UNL     1       2.306   6.647  19.794  0.00  0.00    +0.000 OA
ATOM      2  C   UNL     1       2.761   5.851  18.978  0.00  0.00    +0.000 A 
ATOM      3  C   UNL     1       3.811   6.289  18.057  0.00  0.00    +0.000 A 
ATOM      4  C   UNL     1       4.332   5.405  17.197  0.00  0.00    +0.000 A 
ATOM      5  N   UNL     1       3.962   4.085  17.179  0.00  0.00    +0.000 NA
ATOM      6  C   UNL     1       3.023   3.699  17.981  0.00  0.00    +0.000 A 
ATOM      7  N   UNL     1       2.359   4.547  18.842  0.00  0.00    +0.000 N 
ATOM      8  C   UNL     1       1.370   4.039  19.780  0.00  0.00    +0.000 C 
ATOM      9  C   UNL     1       0.734   2.739  19.315  0.00  0.00    +0.000 C 
ATOM     10  O   UNL     1       1.762   1.791  19.032  0.00  0.00    +0.000 OA
ATOM     11  C   UNL     1       2.562   2.236  17.947  0.00  0.00    +0.000 C 
ENDROOT
BRANCH   4  12
ATOM     12  O   UNL     1       5.275   5.744  16.246  0.00  0.00    +0.000 OA
BRANCH  12  13
ATOM     13  C   UNL     1       6.325   4.802  16.020  0.00  0.00    +0.000 C 
BRANCH  13  14
ATOM     14  C   UNL     1       6.592   4.647  14.542  0.00  0.00    +0.000 A 
ATOM     15  C   UNL     1       7.578   5.409  13.899  0.00  0.00    +0.000 A 
ATOM     16  C   UNL     1       7.867   5.207  12.549  0.00  0.00    +0.000 A 
ATOM     17  C   UNL     1       7.181   4.231  11.829  0.00  0.00    +0.000 A 
ATOM     18  C   UNL     1       6.206   3.461  12.461  0.00  0.00    +0.000 A 
ATOM     19 CL   UNL     1       5.368   2.248  11.577  0.00  0.00    +0.000 Cl
ATOM     20  C   UNL     1       5.914   3.659  13.811  0.00  0.00    +0.000 A 
ENDBRANCH  13  14
ENDBRANCH  12  13
ENDBRANCH   4  12
TORSDOF 3
ENDMDL
MODEL 2
REMARK VINA RESULT:      -7.5      1.705      1.907
REMARK  Name = 
REMARK  3 active torsions:
REMARK  status: ('A' for Active; 'I' for Inactive)
REMARK    1  A    between atoms: C_4  and  O_5
REMARK    2  A    between atoms: O_5  and  C_6
REMARK    3  A    between atoms: C_6  and  C_7
REMARK                            x       y       z     vdW  Elec       q    Type
REMARK                         _______ _______ _______ _____ _____    ______ ____
ROOT
ATOM      1  O   UNL     1       0.772   4.112  17.476  0.00  0.00    +0.000 OA
ATOM      2  C   UNL     1       1.883   3.767  17.869  0.00  0.00    +0.000 A 
ATOM      3  C   UNL     1       3.017   3.812  16.946  0.00  0.00    +0.000 A 
ATOM      4  C   UNL     1       4.233   3.474  17.392  0.00  0.00    +0.000 A 
ATOM      5  N   UNL     1       4.473   3.137  18.699  0.00  0.00    +0.000 NA
ATOM      6  C   UNL     1       3.470   3.080  19.514  0.00  0.00    +0.000 A 
ATOM      7  N   UNL     1       2.166   3.323  19.135  0.00  0.00    +0.000 N 
ATOM      8  C   UNL     1       1.090   3.325  20.114  0.00  0.00    +0.000 C 
ATOM      9  C   UNL     1       1.407   2.481  21.337  0.00  0.00    +0.000 C 
ATOM     10  O   UNL     1       2.653   2.906  21.888  0.00  0.00    +0.000 OA
ATOM     11  C   UNL     1       3.709   2.662  20.970  0.00  0.00    +0.000 C 
ENDROOT
BRANCH   4  12
ATOM     12  O   UNL     1       5.348   3.420  16.578  0.00  0.00    +0.000 OA
BRANCH  12  13
ATOM     13  C   UNL     1       5.849   4.667  16.093  0.00  0.00    +0.000 C 
BRANCH  13  14
ATOM     14  C   UNL     1       6.270   4.547  14.648  0.00  0.00    +0.000 A 
ATOM     15  C   UNL     1       7.360   5.271  14.147  0.00  0.00    +0.000 A 
ATOM     16  C   UNL     1       7.787   5.098  12.830  0.00  0.00    +0.000 A 
ATOM     17  C   UNL     1       7.133   4.187  12.001  0.00  0.00    +0.000 A 
ATOM     18  C   UNL     1       6.055   3.454  12.493  0.00  0.00    +0.000 A 
ATOM     19 CL   UNL     1       5.256   2.321  11.476  0.00  0.00    +0.000 Cl
ATOM     20  C   UNL     1       5.625   3.624  13.810  0.00  0.00    +0.000 A 
ENDBRANCH  13  14
ENDBRANCH  12  13
ENDBRANCH   4  12
TORSDOF 3
ENDMDL
MODEL 3
REMARK VINA RESULT:      -7.5      1.169      2.196
REMARK  Name = 
REMARK  3 active torsions:
REMARK  status: ('A' for Active; 'I' for Inactive)
REMARK    1  A    between atoms: C_4  and  O_5
REMARK    2  A    between atoms: O_5  and  C_6
REMARK    3  A    between atoms: C_6  and  C_7
REMARK                            x       y       z     vdW  Elec       q    Type
REMARK                         _______ _______ _______ _____ _____    ______ ____
ROOT
ATOM      1  O   UNL     1       3.536   1.335  18.086  0.00  0.00    +0.000 OA
ATOM      2  C   UNL     1       3.586   2.561  18.129  0.00  0.00    +0.000 A 
ATOM      3  C   UNL     1       4.412   3.279  17.156  0.00  0.00    +0.000 A 
ATOM      4  C   UNL     1       4.430   4.617  17.182  0.00  0.00    +0.000 A 
ATOM      5  N   UNL     1       3.661   5.350  18.048  0.00  0.00    +0.000 NA
ATOM      6  C   UNL     1       2.944   4.719  18.919  0.00  0.00    +0.000 A 
ATOM      7  N   UNL     1       2.922   3.345  19.037  0.00  0.00    +0.000 N 
ATOM      8  C   UNL     1       2.032   2.687  19.980  0.00  0.00    +0.000 C 
ATOM      9  C   UNL     1       1.654   3.579  21.151  0.00  0.00    +0.000 C 
ATOM     10  O   UNL     1       1.120   4.804  20.651  0.00  0.00    +0.000 OA
ATOM     11  C   UNL     1       2.111   5.519  19.929  0.00  0.00    +0.000 C 
ENDROOT
BRANCH   4  12
ATOM     12  O   UNL     1       5.231   5.377  16.350  0.00  0.00    +0.000 OA
BRANCH  12  13
ATOM     13  C   UNL     1       6.530   4.858  16.062  0.00  0.00    +0.000 C 
BRANCH  13  14
ATOM     14  C   UNL     1       6.729   4.718  14.572  0.00  0.00    +0.000 A 
ATOM     15  C   UNL     1       7.685   5.487  13.892  0.00  0.00    +0.000 A 
ATOM     16  C   UNL     1       7.912   5.299  12.529  0.00  0.00    +0.000 A 
ATOM     17  C   UNL     1       7.193   4.330  11.831  0.00  0.00    +0.000 A 
ATOM     18  C   UNL     1       6.248   3.554  12.499  0.00  0.00    +0.000 A 
ATOM     19 CL   UNL     1       5.370   2.350  11.642  0.00  0.00    +0.000 Cl
ATOM     20  C   UNL     1       6.018   3.738  13.863  0.00  0.00    +0.000 A 
ENDBRANCH  13  14
ENDBRANCH  12  13
ENDBRANCH   4  12
TORSDOF 3
ENDMDL
MODEL 4
REMARK VINA RESULT:      -7.4      1.128      1.128
REMARK  Name = 
REMARK  3 active torsions:
REMARK  status: ('A' for Active; 'I' for Inactive)
REMARK    1  A    between atoms: C_4  and  O_5
REMARK    2  A    between atoms: O_5  and  C_6
REMARK    3  A    between atoms: C_6  and  C_7
REMARK                            x       y       z     vdW  Elec       q    Type
REMARK                         _______ _______ _______ _____ _____    ______ ____
ROOT
ATOM      1  O   UNL     1       2.218   7.252  19.658  0.00  0.00    +0.000 OA
ATOM      2  C   UNL     1       2.848   6.308  19.192  0.00  0.00    +0.000 A 
ATOM      3  C   UNL     1       3.674   6.514  18.001  0.00  0.00    +0.000 A 
ATOM      4  C   UNL     1       4.392   5.490  17.522  0.00  0.00    +0.000 A 
ATOM      5  N   UNL     1       4.430   4.265  18.135  0.00  0.00    +0.000 NA
ATOM      6  C   UNL     1       3.688   4.074  19.177  0.00  0.00    +0.000 A 
ATOM      7  N   UNL     1       2.846   5.033  19.698  0.00  0.00    +0.000 N 
ATOM      8  C   UNL     1       2.098   4.790  20.923  0.00  0.00    +0.000 C 
ATOM      9  C   UNL     1       1.856   3.311  21.177  0.00  0.00    +0.000 C 
ATOM     10  O   UNL     1       3.104   2.621  21.147  0.00  0.00    +0.000 OA
ATOM     11  C   UNL     1       3.681   2.697  19.852  0.00  0.00    +0.000 C 
ENDROOT
BRANCH   4  12
ATOM     12  O   UNL     1       5.144   5.572  16.366  0.00  0.00    +0.000 OA
BRANCH  12  13
ATOM     13  C   UNL     1       6.011   4.471  16.086  0.00  0.00    +0.000 C 
BRANCH  13  14
ATOM     14  C   UNL     1       6.359   4.430  14.618  0.00  0.00    +0.000 A 
ATOM     15  C   UNL     1       7.399   5.213  14.096  0.00  0.00    +0.000 A 
ATOM     16  C   UNL     1       7.762   5.113  12.753  0.00  0.00    +0.000 A 
ATOM     17  C   UNL     1       7.096   4.219  11.917  0.00  0.00    +0.000 A 
ATOM     18  C   UNL     1       6.068   3.429  12.428  0.00  0.00    +0.000 A 
ATOM     19 CL   UNL     1       5.255   2.315  11.400  0.00  0.00    +0.000 Cl
ATOM     20  C   UNL     1       5.702   3.524  13.770  0.00  0.00    +0.000 A 
ENDBRANCH  13  14
ENDBRANCH  12  13
ENDBRANCH   4  12
TORSDOF 3
ENDMDL
MODEL 5
REMARK VINA RESULT:      -7.2      6.295      7.397
REMARK  Name = 
REMARK  3 active torsions:
REMARK  status: ('A' for Active; 'I' for Inactive)
REMARK    1  A    between atoms: C_4  and  O_5
REMARK    2  A    between atoms: O_5  and  C_6
REMARK    3  A    between atoms: C_6  and  C_7
REMARK                            x       y       z     vdW  Elec       q    Type
REMARK                         _______ _______ _______ _____ _____    ______ ____
ROOT
ATOM      1  O   UNL     1       7.641   5.153  19.990  0.00  0.00    +0.000 OA
ATOM      2  C   UNL     1       7.375   5.870  19.030  0.00  0.00    +0.000 A 
ATOM      3  C   UNL     1       8.096   7.131  18.853  0.00  0.00    +0.000 A 
ATOM      4  C   UNL     1       7.830   7.888  17.781  0.00  0.00    +0.000 A 
ATOM      5  N   UNL     1       6.946   7.503  16.807  0.00  0.00    +0.000 NA
ATOM      6  C   UNL     1       6.296   6.397  16.968  0.00  0.00    +0.000 A 
ATOM      7  N   UNL     1       6.429   5.589  18.077  0.00  0.00    +0.000 N 
ATOM      8  C   UNL     1       5.733   4.315  18.165  0.00  0.00    +0.000 C 
ATOM      9  C   UNL     1       4.477   4.272  17.311  0.00  0.00    +0.000 C 
ATOM     10  O   UNL     1       4.810   4.627  15.970  0.00  0.00    +0.000 OA
ATOM     11  C   UNL     1       5.269   5.970  15.912  0.00  0.00    +0.000 C 
ENDROOT
BRANCH   4  12
ATOM     12  O   UNL     1       8.409   9.124  17.568  0.00  0.00    +0.000 OA
BRANCH  12  13
ATOM     13  C   UNL     1       9.024   9.747  18.697  0.00  0.00    +0.000 C 
BRANCH  13  14
ATOM     14  C   UNL     1       9.520  11.127  18.338  0.00  0.00    +0.000 A 
ATOM     15  C   UNL     1      10.860  11.349  17.988  0.00  0.00    +0.000 A 
ATOM     16  C   UNL     1      11.292  12.613  17.587  0.00  0.00    +0.000 A 
ATOM     17  C   UNL     1      10.385  13.670  17.521  0.00  0.00    +0.000 A 
ATOM     18  C   UNL     1       9.050  13.458  17.857  0.00  0.00    +0.000 A 
ATOM     19 CL   UNL     1       7.928  14.758  17.763  0.00  0.00    +0.000 Cl
ATOM     20  C   UNL     1       8.613  12.195  18.258  0.00  0.00    +0.000 A 
ENDBRANCH  13  14
ENDBRANCH  12  13
ENDBRANCH   4  12
TORSDOF 3
ENDMDL
MODEL 6
REMARK VINA RESULT:      -7.2      1.775      2.073
REMARK  Name = 
REMARK  3 active torsions:
REMARK  status: ('A' for Active; 'I' for Inactive)
REMARK    1  A    between atoms: C_4  and  O_5
REMARK    2  A    between atoms: O_5  and  C_6
REMARK    3  A    between atoms: C_6  and  C_7
REMARK                            x       y       z     vdW  Elec       q    Type
REMARK                         _______ _______ _______ _____ _____    ______ ____
ROOT
ATOM      1  O   UNL     1       2.061   6.940  19.571  0.00  0.00    +0.000 OA
ATOM      2  C   UNL     1       2.747   5.996  19.189  0.00  0.00    +0.000 A 
ATOM      3  C   UNL     1       3.544   6.135  17.969  0.00  0.00    +0.000 A 
ATOM      4  C   UNL     1       4.321   5.117  17.582  0.00  0.00    +0.000 A 
ATOM      5  N   UNL     1       4.446   3.963  18.312  0.00  0.00    +0.000 NA
ATOM      6  C   UNL     1       3.731   3.831  19.381  0.00  0.00    +0.000 A 
ATOM      7  N   UNL     1       2.833   4.781  19.819  0.00  0.00    +0.000 N 
ATOM      8  C   UNL     1       2.117   4.614  21.075  0.00  0.00    +0.000 C 
ATOM      9  C   UNL     1       1.975   3.156  21.479  0.00  0.00    +0.000 C 
ATOM     10  O   UNL     1       3.265   2.547  21.495  0.00  0.00    +0.000 OA
ATOM     11  C   UNL     1       3.821   2.530  20.189  0.00  0.00    +0.000 C 
ENDROOT
BRANCH   4  12
ATOM     12  O   UNL     1       5.053   5.130  16.410  0.00  0.00    +0.000 OA
BRANCH  12  13
ATOM     13  C   UNL     1       5.565   3.875  15.959  0.00  0.00    +0.000 C 
BRANCH  13  14
ATOM     14  C   UNL     1       6.131   4.001  14.565  0.00  0.00    +0.000 A 
ATOM     15  C   UNL     1       5.530   3.355  13.476  0.00  0.00    +0.000 A 
ATOM     16  C   UNL     1       6.017   3.537  12.181  0.00  0.00    +0.000 A 
ATOM     17  C   UNL     1       7.106   4.378  11.959  0.00  0.00    +0.000 A 
ATOM     18  C   UNL     1       7.704   5.032  13.034  0.00  0.00    +0.000 A 
ATOM     19 CL   UNL     1       9.040   6.081  12.759  0.00  0.00    +0.000 Cl
ATOM     20  C   UNL     1       7.220   4.855  14.330  0.00  0.00    +0.000 A 
ENDBRANCH  13  14
ENDBRANCH  12  13
ENDBRANCH   4  12
TORSDOF 3
ENDMDL
MODEL 7
REMARK VINA RESULT:      -7.1      3.499      6.980
REMARK  Name = 
REMARK  3 active torsions:
REMARK  status: ('A' for Active; 'I' for Inactive)
REMARK    1  A    between atoms: C_4  and  O_5
REMARK    2  A    between atoms: O_5  and  C_6
REMARK    3  A    between atoms: C_6  and  C_7
REMARK                            x       y       z     vdW  Elec       q    Type
REMARK                         _______ _______ _______ _____ _____    ______ ____
ROOT
ATOM      1  O   UNL     1       6.311   5.729  14.528  0.00  0.00    +0.000 OA
ATOM      2  C   UNL     1       6.059   5.274  15.640  0.00  0.00    +0.000 A 
ATOM      3  C   UNL     1       5.125   4.154  15.763  0.00  0.00    +0.000 A 
ATOM      4  C   UNL     1       4.887   3.635  16.974  0.00  0.00    +0.000 A 
ATOM      5  N   UNL     1       5.526   4.075  18.104  0.00  0.00    +0.000 NA
ATOM      6  C   UNL     1       6.339   5.075  18.002  0.00  0.00    +0.000 A 
ATOM      7  N   UNL     1       6.587   5.738  16.818  0.00  0.00    +0.000 N 
ATOM      8  C   UNL     1       7.576   6.803  16.748  0.00  0.00    +0.000 C 
ATOM      9  C   UNL     1       7.803   7.481  18.089  0.00  0.00    +0.000 C 
ATOM     10  O   UNL     1       8.127   6.492  19.064  0.00  0.00    +0.000 OA
ATOM     11  C   UNL     1       7.031   5.612  19.261  0.00  0.00    +0.000 C 
ENDROOT
BRANCH   4  12
ATOM     12  O   UNL     1       3.970   2.626  17.195  0.00  0.00    +0.000 OA
BRANCH  12  13
ATOM     13  C   UNL     1       2.593   3.004  17.222  0.00  0.00    +0.000 C 
BRANCH  13  14
ATOM     14  C   UNL     1       2.156   3.317  18.633  0.00  0.00    +0.000 A 
ATOM     15  C   UNL     1       1.983   2.299  19.582  0.00  0.00    +0.000 A 
ATOM     16  C   UNL     1       1.650   2.605  20.902  0.00  0.00    +0.000 A 
ATOM     17  C   UNL     1       1.497   3.934  21.291  0.00  0.00    +0.000 A 
ATOM     18  C   UNL     1       1.676   4.954  20.358  0.00  0.00    +0.000 A 
ATOM     19 CL   UNL     1       1.500   6.595  20.840  0.00  0.00    +0.000 Cl
ATOM     20  C   UNL     1       2.010   4.653  19.037  0.00  0.00    +0.000 A 
ENDBRANCH  13  14
ENDBRANCH  12  13
ENDBRANCH   4  12
TORSDOF 3
ENDMDL
MODEL 8
REMARK VINA RESULT:      -7.1      1.465      1.893
REMARK  Name = 
REMARK  3 active torsions:
REMARK  status: ('A' for Active; 'I' for Inactive)
REMARK    1  A    between atoms: C_4  and  O_5
REMARK    2  A    between atoms: O_5  and  C_6
REMARK    3  A    between atoms: C_6  and  C_7
REMARK                            x       y       z     vdW  Elec       q    Type
REMARK                         _______ _______ _______ _____ _____    ______ ____
ROOT
ATOM      1  O   UNL     1       5.182   2.321  20.285  0.00  0.00    +0.000 OA
ATOM      2  C   UNL     1       4.505   2.950  19.477  0.00  0.00    +0.000 A 
ATOM      3  C   UNL     1       5.159   3.578  18.328  0.00  0.00    +0.000 A 
ATOM      4  C   UNL     1       4.410   4.227  17.428  0.00  0.00    +0.000 A 
ATOM      5  N   UNL     1       3.043   4.283  17.508  0.00  0.00    +0.000 NA
ATOM      6  C   UNL     1       2.463   3.744  18.531  0.00  0.00    +0.000 A 
ATOM      7  N   UNL     1       3.148   3.129  19.558  0.00  0.00    +0.000 N 
ATOM      8  C   UNL     1       2.438   2.466  20.641  0.00  0.00    +0.000 C 
ATOM      9  C   UNL     1       1.041   3.023  20.854  0.00  0.00    +0.000 C 
ATOM     10  O   UNL     1       0.327   2.980  19.620  0.00  0.00    +0.000 OA
ATOM     11  C   UNL     1       0.938   3.833  18.663  0.00  0.00    +0.000 C 
ENDROOT
BRANCH   4  12
ATOM     12  O   UNL     1       4.945   4.908  16.352  0.00  0.00    +0.000 OA
BRANCH  12  13
ATOM     13  C   UNL     1       6.333   4.697  16.085  0.00  0.00    +0.000 C 
BRANCH  13  14
ATOM     14  C   UNL     1       6.579   4.593  14.599  0.00  0.00    +0.000 A 
ATOM     15  C   UNL     1       7.563   5.369  13.970  0.00  0.00    +0.000 A 
ATOM     16  C   UNL     1       7.833   5.212  12.610  0.00  0.00    +0.000 A 
ATOM     17  C   UNL     1       7.129   4.268  11.865  0.00  0.00    +0.000 A 
ATOM     18  C   UNL     1       6.156   3.485  12.483  0.00  0.00    +0.000 A 
ATOM     19 CL   UNL     1       5.295   2.311  11.567  0.00  0.00    +0.000 Cl
ATOM     20  C   UNL     1       5.883   3.637  13.843  0.00  0.00    +0.000 A 
ENDBRANCH  13  14
ENDBRANCH  12  13
ENDBRANCH   4  12
TORSDOF 3
ENDMDL
MODEL 9
REMARK VINA RESULT:      -7.1      2.983      3.956
REMARK  Name = 
REMARK  3 active torsions:
REMARK  status: ('A' for Active; 'I' for Inactive)
REMARK    1  A    between atoms: C_4  and  O_5
REMARK    2  A    between atoms: O_5  and  C_6
REMARK    3  A    between atoms: C_6  and  C_7
REMARK                            x       y       z     vdW  Elec       q    Type
REMARK                         _______ _______ _______ _____ _____    ______ ____
ROOT
ATOM      1  O   UNL     1       2.429   7.176  19.469  0.00  0.00    +0.000 OA
ATOM      2  C   UNL     1       2.854   6.126  18.995  0.00  0.00    +0.000 A 
ATOM      3  C   UNL     1       3.607   6.159  17.740  0.00  0.00    +0.000 A 
ATOM      4  C   UNL     1       4.104   5.017  17.250  0.00  0.00    +0.000 A 
ATOM      5  N   UNL     1       3.983   3.818  17.904  0.00  0.00    +0.000 NA
ATOM      6  C   UNL     1       3.304   3.783  19.004  0.00  0.00    +0.000 A 
ATOM      7  N   UNL     1       2.678   4.884  19.548  0.00  0.00    +0.000 N 
ATOM      8  C   UNL     1       1.998   4.802  20.832  0.00  0.00    +0.000 C 
ATOM      9  C   UNL     1       1.532   3.393  21.160  0.00  0.00    +0.000 C 
ATOM     10  O   UNL     1       2.640   2.500  21.065  0.00  0.00    +0.000 OA
ATOM     11  C   UNL     1       3.119   2.444  19.729  0.00  0.00    +0.000 C 
ENDROOT
BRANCH   4  12
ATOM     12  O   UNL     1       4.766   4.940  16.040  0.00  0.00    +0.000 OA
BRANCH  12  13
ATOM     13  C   UNL     1       6.153   4.599  16.089  0.00  0.00    +0.000 C 
BRANCH  13  14
ATOM     14  C   UNL     1       6.865   5.414  17.141  0.00  0.00    +0.000 A 
ATOM     15  C   UNL     1       7.445   4.804  18.262  0.00  0.00    +0.000 A 
ATOM     16  C   UNL     1       8.164   5.556  19.192  0.00  0.00    +0.000 A 
ATOM     17  C   UNL     1       8.320   6.928  19.004  0.00  0.00    +0.000 A 
ATOM     18  C   UNL     1       7.755   7.543  17.889  0.00  0.00    +0.000 A 
ATOM     19 CL   UNL     1       7.959   9.234  17.650  0.00  0.00    +0.000 Cl
ATOM     20  C   UNL     1       7.037   6.795  16.956  0.00  0.00    +0.000 A 
ENDBRANCH  13  14
ENDBRANCH  12  13
ENDBRANCH   4  12
TORSDOF 3
ENDMDL
