MODEL 1
REMARK VINA RESULT:      -8.2      0.000      0.000
REMARK  Name = 
REMARK  8 active torsions:
REMARK  status: ('A' for Active; 'I' for Inactive)
REMARK    1  A    between atoms: C_1  and  O_2
REMARK    2  A    between atoms: O_2  and  C_3
REMARK    3  A    between atoms: C_7  and  O_8
REMARK    4  A    between atoms: O_8  and  C_9
REMARK    5  A    between atoms: C_10  and  C_11
REMARK    6  A    between atoms: N_17  and  C_18
REMARK    7  A    between atoms: C_18  and  C_19
REMARK    8  A    between atoms: C_23  and  C_24
REMARK                            x       y       z     vdW  Elec       q    Type
REMARK                         _______ _______ _______ _____ _____    ______ ____
ROOT
ATOM      1  C   UNL     1       4.657   4.089  18.404  0.00  0.00    +0.000 C 
ATOM      2  C   UNL     1       4.518   2.905  17.439  0.00  0.00    +0.000 C 
ATOM      3  C   UNL     1       3.781   1.803  18.172  0.00  0.00    +0.000 C 
ATOM      4  C   UNL     1       2.403   2.290  18.553  0.00  0.00    +0.000 C 
ATOM      5  C   UNL     1       2.301   3.712  19.087  0.00  0.00    +0.000 C 
ATOM      6  O   UNL     1       1.253   4.002  19.667  0.00  0.00    +0.000 OA
ATOM      7  N   UNL     1       3.349   4.616  18.857  0.00  0.00    +0.000 N 
ENDROOT
BRANCH   1  13
ATOM      8  C   UNL     1       6.680   5.605  18.722  0.00  0.00    +0.000 A 
ATOM      9  C   UNL     1       7.611   6.525  18.241  0.00  0.00    +0.000 A 
ATOM     10  C   UNL     1       7.480   6.968  16.944  0.00  0.00    +0.000 A 
ATOM     11  N   UNL     1       6.508   6.553  16.118  0.00  0.00    +0.000 NA
ATOM     12  C   UNL     1       5.622   5.639  16.584  0.00  0.00    +0.000 A 
ATOM     13  C   UNL     1       5.656   5.118  17.882  0.00  0.00    +0.000 A 
BRANCH   8  15
ATOM     14  C   UNL     1       7.984   5.185  20.670  0.00  0.00    +0.000 C 
ATOM     15  O   UNL     1       6.728   5.106  20.002  0.00  0.00    +0.000 OA
ENDBRANCH   8  15
BRANCH  12  16
ATOM     16  O   UNL     1       4.642   5.212  15.712  0.00  0.00    +0.000 OA
ATOM     17  C   UNL     1       5.174   4.653  14.509  0.00  0.00    +0.000 C 
ENDBRANCH  12  16
ENDBRANCH   1  13
BRANCH   7  18
ATOM     18  C   UNL     1       3.428   5.797  19.736  0.00  0.00    +0.000 C 
BRANCH  18  19
ATOM     19  C   UNL     1       2.700   7.063  19.354  0.00  0.00    +0.000 A 
ATOM     20  C   UNL     1       2.703   7.504  18.019  0.00  0.00    +0.000 A 
ATOM     21  C   UNL     1       1.996   8.643  17.653  0.00  0.00    +0.000 A 
ATOM     22  C   UNL     1       1.254   9.340  18.613  0.00  0.00    +0.000 A 
ATOM     23  C   UNL     1       1.205   8.919  19.952  0.00  0.00    +0.000 A 
ATOM     24  C   UNL     1       1.956   7.782  20.304  0.00  0.00    +0.000 A 
BRANCH  23  25
ATOM     25  C   UNL     1       0.380   9.634  20.954  0.00  0.00    +0.000 A 
ATOM     26  C   UNL     1       0.292   9.183  22.285  0.00  0.00    +0.000 A 
ATOM     27  C   UNL     1      -0.489   9.854  23.235  0.00  0.00    +0.000 A 
ATOM     28  C   UNL     1      -1.187  10.999  22.877  0.00  0.00    +0.000 A 
ATOM     29  C   UNL     1      -1.107  11.480  21.574  0.00  0.00    +0.000 A 
ATOM     30  C   UNL     1      -0.337  10.798  20.626  0.00  0.00    +0.000 A 
ENDBRANCH  23  25
ENDBRANCH  18  19
ENDBRANCH   7  18
TORSDOF 6
ENDMDL
MODEL 2
REMARK VINA RESULT:      -7.8      0.525      2.484
REMARK  Name = 
REMARK  8 active torsions:
REMARK  status: ('A' for Active; 'I' for Inactive)
REMARK    1  A    between atoms: C_1  and  O_2
REMARK    2  A    between atoms: O_2  and  C_3
REMARK    3  A    between atoms: C_7  and  O_8
REMARK    4  A    between atoms: O_8  and  C_9
REMARK    5  A    between atoms: C_10  and  C_11
REMARK    6  A    between atoms: N_17  and  C_18
REMARK    7  A    between atoms: C_18  and  C_19
REMARK    8  A    between atoms: C_23  and  C_24
REMARK                            x       y       z     vdW  Elec       q    Type
REMARK                         _______ _______ _______ _____ _____    ______ ____
ROOT
ATOM      1  C   UNL     1       4.600   3.999  18.509  0.00  0.00    +0.000 C 
ATOM      2  C   UNL     1       4.465   2.816  17.543  0.00  0.00    +0.000 C 
ATOM      3  C   UNL     1       3.684   1.731  18.256  0.00  0.00    +0.000 C 
ATOM      4  C   UNL     1       2.306   2.248  18.595  0.00  0.00    +0.000 C 
ATOM      5  C   UNL     1       2.218   3.672  19.123  0.00  0.00    +0.000 C 
ATOM      6  O   UNL     1       1.160   3.986  19.671  0.00  0.00    +0.000 OA
ATOM      7  N   UNL     1       3.290   4.554  18.922  0.00  0.00    +0.000 N 
ENDROOT
BRANCH   1  13
ATOM      8  C   UNL     1       5.584   5.483  16.686  0.00  0.00    +0.000 A 
ATOM      9  C   UNL     1       6.511   6.423  16.237  0.00  0.00    +0.000 A 
ATOM     10  C   UNL     1       7.491   6.840  17.109  0.00  0.00    +0.000 A 
ATOM     11  N   UNL     1       7.595   6.395  18.369  0.00  0.00    +0.000 NA
ATOM     12  C   UNL     1       6.674   5.500  18.807  0.00  0.00    +0.000 A 
ATOM     13  C   UNL     1       5.635   5.006  18.013  0.00  0.00    +0.000 A 
BRANCH   8  15
ATOM     14  C   UNL     1       4.939   4.556  14.588  0.00  0.00    +0.000 C 
ATOM     15  O   UNL     1       4.571   5.007  15.889  0.00  0.00    +0.000 OA
ENDBRANCH   8  15
BRANCH  12  16
ATOM     16  O   UNL     1       6.787   5.070  20.113  0.00  0.00    +0.000 OA
ATOM     17  C   UNL     1       8.100   5.254  20.647  0.00  0.00    +0.000 C 
ENDBRANCH  12  16
ENDBRANCH   1  13
BRANCH   7  18
ATOM     18  C   UNL     1       3.368   5.736  19.800  0.00  0.00    +0.000 C 
BRANCH  18  19
ATOM     19  C   UNL     1       2.668   7.012  19.399  0.00  0.00    +0.000 A 
ATOM     20  C   UNL     1       2.687   7.437  18.060  0.00  0.00    +0.000 A 
ATOM     21  C   UNL     1       2.004   8.587  17.677  0.00  0.00    +0.000 A 
ATOM     22  C   UNL     1       1.271   9.308  18.625  0.00  0.00    +0.000 A 
ATOM     23  C   UNL     1       1.207   8.904  19.969  0.00  0.00    +0.000 A 
ATOM     24  C   UNL     1       1.933   7.756  20.337  0.00  0.00    +0.000 A 
BRANCH  23  25
ATOM     25  C   UNL     1       0.391   9.647  20.957  0.00  0.00    +0.000 A 
ATOM     26  C   UNL     1      -0.287  10.830  20.604  0.00  0.00    +0.000 A 
ATOM     27  C   UNL     1      -1.057  11.538  21.535  0.00  0.00    +0.000 A 
ATOM     28  C   UNL     1      -1.179  11.069  22.836  0.00  0.00    +0.000 A 
ATOM     29  C   UNL     1      -0.534   9.895  23.212  0.00  0.00    +0.000 A 
ATOM     30  C   UNL     1       0.245   9.199  22.282  0.00  0.00    +0.000 A 
ENDBRANCH  23  25
ENDBRANCH  18  19
ENDBRANCH   7  18
TORSDOF 6
ENDMDL
MODEL 3
REMARK VINA RESULT:      -7.4      6.791      9.678
REMARK  Name = 
REMARK  8 active torsions:
REMARK  status: ('A' for Active; 'I' for Inactive)
REMARK    1  A    between atoms: C_1  and  O_2
REMARK    2  A    between atoms: O_2  and  C_3
REMARK    3  A    between atoms: C_7  and  O_8
REMARK    4  A    between atoms: O_8  and  C_9
REMARK    5  A    between atoms: C_10  and  C_11
REMARK    6  A    between atoms: N_17  and  C_18
REMARK    7  A    between atoms: C_18  and  C_19
REMARK    8  A    between atoms: C_23  and  C_24
REMARK                            x       y       z     vdW  Elec       q    Type
REMARK                         _______ _______ _______ _____ _____    ______ ____
ROOT
ATOM      1  C   UNL     1       0.272  12.839  21.248  0.00  0.00    +0.000 C 
ATOM      2  C   UNL     1       0.936  14.216  21.371  0.00  0.00    +0.000 C 
ATOM      3  C   UNL     1       2.410  14.040  21.065  0.00  0.00    +0.000 C 
ATOM      4  C   UNL     1       2.571  13.542  19.648  0.00  0.00    +0.000 C 
ATOM      5  C   UNL     1       1.600  12.466  19.185  0.00  0.00    +0.000 C 
ATOM      6  O   UNL     1       1.910  11.857  18.159  0.00  0.00    +0.000 OA
ATOM      7  N   UNL     1       0.407  12.257  19.893  0.00  0.00    +0.000 N 
ENDROOT
BRANCH   1  13
ATOM      8  C   UNL     1      -1.466  11.955  22.888  0.00  0.00    +0.000 A 
ATOM      9  C   UNL     1      -2.741  11.975  23.453  0.00  0.00    +0.000 A 
ATOM     10  C   UNL     1      -3.667  12.856  22.943  0.00  0.00    +0.000 A 
ATOM     11  N   UNL     1      -3.405  13.701  21.936  0.00  0.00    +0.000 NA
ATOM     12  C   UNL     1      -2.155  13.694  21.407  0.00  0.00    +0.000 A 
ATOM     13  C   UNL     1      -1.134  12.845  21.844  0.00  0.00    +0.000 A 
BRANCH   8  15
ATOM     14  C   UNL     1      -0.687   9.717  23.123  0.00  0.00    +0.000 C 
ATOM     15  O   UNL     1      -0.476  11.111  23.329  0.00  0.00    +0.000 OA
ENDBRANCH   8  15
BRANCH  12  16
ATOM     16  O   UNL     1      -1.901  14.584  20.385  0.00  0.00    +0.000 OA
ATOM     17  C   UNL     1      -2.306  15.919  20.697  0.00  0.00    +0.000 C 
ENDBRANCH  12  16
ENDBRANCH   1  13
BRANCH   7  18
ATOM     18  C   UNL     1      -0.273  10.961  19.705  0.00  0.00    +0.000 C 
BRANCH  18  19
ATOM     19  C   UNL     1      -1.368  10.834  18.674  0.00  0.00    +0.000 A 
ATOM     20  C   UNL     1      -1.174  10.037  17.533  0.00  0.00    +0.000 A 
ATOM     21  C   UNL     1      -2.196   9.879  16.604  0.00  0.00    +0.000 A 
ATOM     22  C   UNL     1      -3.433  10.494  16.819  0.00  0.00    +0.000 A 
ATOM     23  C   UNL     1      -3.676  11.279  17.958  0.00  0.00    +0.000 A 
ATOM     24  C   UNL     1      -2.615  11.451  18.867  0.00  0.00    +0.000 A 
BRANCH  23  25
ATOM     25  C   UNL     1      -5.004  11.890  18.203  0.00  0.00    +0.000 A 
ATOM     26  C   UNL     1      -5.788  12.383  17.143  0.00  0.00    +0.000 A 
ATOM     27  C   UNL     1      -7.043  12.964  17.369  0.00  0.00    +0.000 A 
ATOM     28  C   UNL     1      -7.546  13.049  18.659  0.00  0.00    +0.000 A 
ATOM     29  C   UNL     1      -6.802  12.557  19.727  0.00  0.00    +0.000 A 
ATOM     30  C   UNL     1      -5.544  11.990  19.497  0.00  0.00    +0.000 A 
ENDBRANCH  23  25
ENDBRANCH  18  19
ENDBRANCH   7  18
TORSDOF 6
ENDMDL
MODEL 4
REMARK VINA RESULT:      -7.3      1.352      2.716
REMARK  Name = 
REMARK  8 active torsions:
REMARK  status: ('A' for Active; 'I' for Inactive)
REMARK    1  A    between atoms: C_1  and  O_2
REMARK    2  A    between atoms: O_2  and  C_3
REMARK    3  A    between atoms: C_7  and  O_8
REMARK    4  A    between atoms: O_8  and  C_9
REMARK    5  A    between atoms: C_10  and  C_11
REMARK    6  A    between atoms: N_17  and  C_18
REMARK    7  A    between atoms: C_18  and  C_19
REMARK    8  A    between atoms: C_23  and  C_24
REMARK                            x       y       z     vdW  Elec       q    Type
REMARK                         _______ _______ _______ _____ _____    ______ ____
ROOT
ATOM      1  C   UNL     1       4.030   4.174  19.571  0.00  0.00    +0.000 C 
ATOM      2  C   UNL     1       3.480   2.756  19.761  0.00  0.00    +0.000 C 
ATOM      3  C   UNL     1       2.924   2.666  21.168  0.00  0.00    +0.000 C 
ATOM      4  C   UNL     1       1.793   3.657  21.322  0.00  0.00    +0.000 C 
ATOM      5  C   UNL     1       1.998   5.034  20.708  0.00  0.00    +0.000 C 
ATOM      6  O   UNL     1       1.226   5.918  21.082  0.00  0.00    +0.000 OA
ATOM      7  N   UNL     1       2.992   5.218  19.735  0.00  0.00    +0.000 N 
ENDROOT
BRANCH   1  13
ATOM      8  C   UNL     1       4.331   4.033  17.044  0.00  0.00    +0.000 A 
ATOM      9  C   UNL     1       5.110   4.146  15.894  0.00  0.00    +0.000 A 
ATOM     10  C   UNL     1       6.443   4.460  16.037  0.00  0.00    +0.000 A 
ATOM     11  N   UNL     1       7.028   4.669  17.226  0.00  0.00    +0.000 NA
ATOM     12  C   UNL     1       6.258   4.582  18.339  0.00  0.00    +0.000 A 
ATOM     13  C   UNL     1       4.894   4.272  18.316  0.00  0.00    +0.000 A 
BRANCH   8  15
ATOM     14  C   UNL     1       2.658   2.340  16.941  0.00  0.00    +0.000 C 
ATOM     15  O   UNL     1       2.992   3.724  17.002  0.00  0.00    +0.000 OA
ENDBRANCH   8  15
BRANCH  12  16
ATOM     16  O   UNL     1       6.874   4.819  19.550  0.00  0.00    +0.000 OA
ATOM     17  C   UNL     1       7.846   5.865  19.483  0.00  0.00    +0.000 C 
ENDBRANCH  12  16
ENDBRANCH   1  13
BRANCH   7  18
ATOM     18  C   UNL     1       3.458   6.597  19.497  0.00  0.00    +0.000 C 
BRANCH  18  19
ATOM     19  C   UNL     1       2.460   7.674  19.146  0.00  0.00    +0.000 A 
ATOM     20  C   UNL     1       2.142   7.930  17.801  0.00  0.00    +0.000 A 
ATOM     21  C   UNL     1       1.188   8.888  17.475  0.00  0.00    +0.000 A 
ATOM     22  C   UNL     1       0.522   9.581  18.491  0.00  0.00    +0.000 A 
ATOM     23  C   UNL     1       0.793   9.337  19.848  0.00  0.00    +0.000 A 
ATOM     24  C   UNL     1       1.785   8.386  20.152  0.00  0.00    +0.000 A 
BRANCH  23  25
ATOM     25  C   UNL     1       0.050  10.041  20.920  0.00  0.00    +0.000 A 
ATOM     26  C   UNL     1      -0.086   9.480  22.204  0.00  0.00    +0.000 A 
ATOM     27  C   UNL     1      -0.790  10.140  23.220  0.00  0.00    +0.000 A 
ATOM     28  C   UNL     1      -1.360  11.382  22.977  0.00  0.00    +0.000 A 
ATOM     29  C   UNL     1      -1.229  11.969  21.722  0.00  0.00    +0.000 A 
ATOM     30  C   UNL     1      -0.537  11.300  20.707  0.00  0.00    +0.000 A 
ENDBRANCH  23  25
ENDBRANCH  18  19
ENDBRANCH   7  18
TORSDOF 6
ENDMDL
MODEL 5
REMARK VINA RESULT:      -7.2      1.402      1.853
REMARK  Name = 
REMARK  8 active torsions:
REMARK  status: ('A' for Active; 'I' for Inactive)
REMARK    1  A    between atoms: C_1  and  O_2
REMARK    2  A    between atoms: O_2  and  C_3
REMARK    3  A    between atoms: C_7  and  O_8
REMARK    4  A    between atoms: O_8  and  C_9
REMARK    5  A    between atoms: C_10  and  C_11
REMARK    6  A    between atoms: N_17  and  C_18
REMARK    7  A    between atoms: C_18  and  C_19
REMARK    8  A    between atoms: C_23  and  C_24
REMARK                            x       y       z     vdW  Elec       q    Type
REMARK                         _______ _______ _______ _____ _____    ______ ____
ROOT
ATOM      1  C   UNL     1       3.964   4.201  19.593  0.00  0.00    +0.000 C 
ATOM      2  C   UNL     1       3.401   2.790  19.805  0.00  0.00    +0.000 C 
ATOM      3  C   UNL     1       2.854   2.724  21.216  0.00  0.00    +0.000 C 
ATOM      4  C   UNL     1       1.734   3.728  21.366  0.00  0.00    +0.000 C 
ATOM      5  C   UNL     1       1.949   5.095  20.733  0.00  0.00    +0.000 C 
ATOM      6  O   UNL     1       1.189   5.992  21.102  0.00  0.00    +0.000 OA
ATOM      7  N   UNL     1       2.938   5.258  19.752  0.00  0.00    +0.000 N 
ENDROOT
BRANCH   1  13
ATOM      8  C   UNL     1       6.180   4.642  18.416  0.00  0.00    +0.000 A 
ATOM      9  C   UNL     1       6.973   4.684  17.270  0.00  0.00    +0.000 A 
ATOM     10  C   UNL     1       6.385   4.395  16.059  0.00  0.00    +0.000 A 
ATOM     11  N   UNL     1       5.092   4.066  15.927  0.00  0.00    +0.000 NA
ATOM     12  C   UNL     1       4.333   4.002  17.049  0.00  0.00    +0.000 A 
ATOM     13  C   UNL     1       4.820   4.274  18.331  0.00  0.00    +0.000 A 
BRANCH   8  15
ATOM     14  C   UNL     1       7.891   5.659  19.724  0.00  0.00    +0.000 C 
ATOM     15  O   UNL     1       6.677   4.915  19.668  0.00  0.00    +0.000 OA
ENDBRANCH   8  15
BRANCH  12  16
ATOM     16  O   UNL     1       3.010   3.644  16.894  0.00  0.00    +0.000 OA
ATOM     17  C   UNL     1       2.810   2.229  16.928  0.00  0.00    +0.000 C 
ENDBRANCH  12  16
ENDBRANCH   1  13
BRANCH   7  18
ATOM     18  C   UNL     1       3.416   6.628  19.493  0.00  0.00    +0.000 C 
BRANCH  18  19
ATOM     19  C   UNL     1       2.425   7.713  19.147  0.00  0.00    +0.000 A 
ATOM     20  C   UNL     1       2.086   7.957  17.805  0.00  0.00    +0.000 A 
ATOM     21  C   UNL     1       1.139   8.923  17.484  0.00  0.00    +0.000 A 
ATOM     22  C   UNL     1       0.499   9.636  18.503  0.00  0.00    +0.000 A 
ATOM     23  C   UNL     1       0.792   9.405  19.857  0.00  0.00    +0.000 A 
ATOM     24  C   UNL     1       1.777   8.446  20.155  0.00  0.00    +0.000 A 
BRANCH  23  25
ATOM     25  C   UNL     1       0.076  10.131  20.933  0.00  0.00    +0.000 A 
ATOM     26  C   UNL     1      -0.200   9.517  22.170  0.00  0.00    +0.000 A 
ATOM     27  C   UNL     1      -0.879  10.198  23.189  0.00  0.00    +0.000 A 
ATOM     28  C   UNL     1      -1.281  11.513  22.998  0.00  0.00    +0.000 A 
ATOM     29  C   UNL     1      -1.008  12.152  21.793  0.00  0.00    +0.000 A 
ATOM     30  C   UNL     1      -0.343  11.463  20.773  0.00  0.00    +0.000 A 
ENDBRANCH  23  25
ENDBRANCH  18  19
ENDBRANCH   7  18
TORSDOF 6
ENDMDL
MODEL 6
REMARK VINA RESULT:      -7.1      5.849      9.146
REMARK  Name = 
REMARK  8 active torsions:
REMARK  status: ('A' for Active; 'I' for Inactive)
REMARK    1  A    between atoms: C_1  and  O_2
REMARK    2  A    between atoms: O_2  and  C_3
REMARK    3  A    between atoms: C_7  and  O_8
REMARK    4  A    between atoms: O_8  and  C_9
REMARK    5  A    between atoms: C_10  and  C_11
REMARK    6  A    between atoms: N_17  and  C_18
REMARK    7  A    between atoms: C_18  and  C_19
REMARK    8  A    between atoms: C_23  and  C_24
REMARK                            x       y       z     vdW  Elec       q    Type
REMARK                         _______ _______ _______ _____ _____    ______ ____
ROOT
ATOM      1  C   UNL     1      -0.796  11.265  21.532  0.00  0.00    +0.000 C 
ATOM      2  C   UNL     1      -0.386  10.568  22.835  0.00  0.00    +0.000 C 
ATOM      3  C   UNL     1      -0.482   9.074  22.603  0.00  0.00    +0.000 C 
ATOM      4  C   UNL     1       0.481   8.676  21.508  0.00  0.00    +0.000 C 
ATOM      5  C   UNL     1       0.563   9.595  20.299  0.00  0.00    +0.000 C 
ATOM      6  O   UNL     1       1.107   9.130  19.296  0.00  0.00    +0.000 OA
ATOM      7  N   UNL     1       0.078  10.908  20.391  0.00  0.00    +0.000 N 
ENDROOT
BRANCH   1  13
ATOM      8  C   UNL     1       0.041  13.656  21.809  0.00  0.00    +0.000 A 
ATOM      9  C   UNL     1      -0.183  15.021  21.985  0.00  0.00    +0.000 A 
ATOM     10  C   UNL     1      -1.480  15.455  22.138  0.00  0.00    +0.000 A 
ATOM     11  N   UNL     1      -2.540  14.634  22.119  0.00  0.00    +0.000 NA
ATOM     12  C   UNL     1      -2.317  13.310  21.922  0.00  0.00    +0.000 A 
ATOM     13  C   UNL     1      -1.044  12.755  21.754  0.00  0.00    +0.000 A 
BRANCH   8  15
ATOM     14  C   UNL     1       2.230  13.912  20.906  0.00  0.00    +0.000 C 
ATOM     15  O   UNL     1       1.300  13.129  21.649  0.00  0.00    +0.000 OA
ENDBRANCH   8  15
BRANCH  12  16
ATOM     16  O   UNL     1      -3.421  12.485  21.886  0.00  0.00    +0.000 OA
ATOM     17  C   UNL     1      -4.431  12.868  22.823  0.00  0.00    +0.000 C 
ENDBRANCH  12  16
ENDBRANCH   1  13
BRANCH   7  18
ATOM     18  C   UNL     1      -0.235  11.605  19.130  0.00  0.00    +0.000 C 
BRANCH  18  19
ATOM     19  C   UNL     1      -1.440  11.183  18.323  0.00  0.00    +0.000 A 
ATOM     20  C   UNL     1      -1.329  10.147  17.380  0.00  0.00    +0.000 A 
ATOM     21  C   UNL     1      -2.446   9.723  16.668  0.00  0.00    +0.000 A 
ATOM     22  C   UNL     1      -3.691  10.312  16.911  0.00  0.00    +0.000 A 
ATOM     23  C   UNL     1      -3.848  11.334  17.862  0.00  0.00    +0.000 A 
ATOM     24  C   UNL     1      -2.697  11.768  18.546  0.00  0.00    +0.000 A 
BRANCH  23  25
ATOM     25  C   UNL     1      -5.178  11.922  18.148  0.00  0.00    +0.000 A 
ATOM     26  C   UNL     1      -5.735  11.876  19.441  0.00  0.00    +0.000 A 
ATOM     27  C   UNL     1      -6.993  12.427  19.715  0.00  0.00    +0.000 A 
ATOM     28  C   UNL     1      -7.715  13.049  18.706  0.00  0.00    +0.000 A 
ATOM     29  C   UNL     1      -7.185  13.124  17.422  0.00  0.00    +0.000 A 
ATOM     30  C   UNL     1      -5.934  12.560  17.149  0.00  0.00    +0.000 A 
ENDBRANCH  23  25
ENDBRANCH  18  19
ENDBRANCH   7  18
TORSDOF 6
ENDMDL
MODEL 7
REMARK VINA RESULT:      -7.1      6.861      9.798
REMARK  Name = 
REMARK  8 active torsions:
REMARK  status: ('A' for Active; 'I' for Inactive)
REMARK    1  A    between atoms: C_1  and  O_2
REMARK    2  A    between atoms: O_2  and  C_3
REMARK    3  A    between atoms: C_7  and  O_8
REMARK    4  A    between atoms: O_8  and  C_9
REMARK    5  A    between atoms: C_10  and  C_11
REMARK    6  A    between atoms: N_17  and  C_18
REMARK    7  A    between atoms: C_18  and  C_19
REMARK    8  A    between atoms: C_23  and  C_24
REMARK                            x       y       z     vdW  Elec       q    Type
REMARK                         _______ _______ _______ _____ _____    ______ ____
ROOT
ATOM      1  C   UNL     1       0.344  12.999  21.257  0.00  0.00    +0.000 C 
ATOM      2  C   UNL     1       0.883  14.427  21.402  0.00  0.00    +0.000 C 
ATOM      3  C   UNL     1       2.350  14.401  21.025  0.00  0.00    +0.000 C 
ATOM      4  C   UNL     1       2.489  13.966  19.585  0.00  0.00    +0.000 C 
ATOM      5  C   UNL     1       1.600  12.820  19.125  0.00  0.00    +0.000 C 
ATOM      6  O   UNL     1       1.916  12.277  18.065  0.00  0.00    +0.000 OA
ATOM      7  N   UNL     1       0.467  12.476  19.876  0.00  0.00    +0.000 N 
ENDROOT
BRANCH   1  13
ATOM      8  C   UNL     1      -2.086  13.710  21.548  0.00  0.00    +0.000 A 
ATOM      9  C   UNL     1      -3.346  13.563  22.127  0.00  0.00    +0.000 A 
ATOM     10  C   UNL     1      -3.514  12.590  23.086  0.00  0.00    +0.000 A 
ATOM     11  N   UNL     1      -2.530  11.771  23.486  0.00  0.00    +0.000 NA
ATOM     12  C   UNL     1      -1.313  11.902  22.900  0.00  0.00    +0.000 A 
ATOM     13  C   UNL     1      -1.027  12.853  21.915  0.00  0.00    +0.000 A 
BRANCH   8  15
ATOM     14  C   UNL     1      -2.444  15.924  20.747  0.00  0.00    +0.000 C 
ATOM     15  O   UNL     1      -1.822  14.652  20.583  0.00  0.00    +0.000 OA
ENDBRANCH   8  15
BRANCH  12  16
ATOM     16  O   UNL     1      -0.321  11.038  23.311  0.00  0.00    +0.000 OA
ATOM     17  C   UNL     1      -0.638   9.667  23.059  0.00  0.00    +0.000 C 
ENDBRANCH  12  16
ENDBRANCH   1  13
BRANCH   7  18
ATOM     18  C   UNL     1      -0.098  11.130  19.671  0.00  0.00    +0.000 C 
BRANCH  18  19
ATOM     19  C   UNL     1      -1.224  10.934  18.684  0.00  0.00    +0.000 A 
ATOM     20  C   UNL     1      -1.050  10.090  17.575  0.00  0.00    +0.000 A 
ATOM     21  C   UNL     1      -2.099   9.870  16.688  0.00  0.00    +0.000 A 
ATOM     22  C   UNL     1      -3.342  10.469  16.918  0.00  0.00    +0.000 A 
ATOM     23  C   UNL     1      -3.563  11.301  18.029  0.00  0.00    +0.000 A 
ATOM     24  C   UNL     1      -2.477  11.534  18.893  0.00  0.00    +0.000 A 
BRANCH  23  25
ATOM     25  C   UNL     1      -4.895  11.895  18.291  0.00  0.00    +0.000 A 
ATOM     26  C   UNL     1      -5.289  12.260  19.593  0.00  0.00    +0.000 A 
ATOM     27  C   UNL     1      -6.548  12.819  19.847  0.00  0.00    +0.000 A 
ATOM     28  C   UNL     1      -7.433  13.040  18.801  0.00  0.00    +0.000 A 
ATOM     29  C   UNL     1      -7.068  12.706  17.501  0.00  0.00    +0.000 A 
ATOM     30  C   UNL     1      -5.814  12.134  17.255  0.00  0.00    +0.000 A 
ENDBRANCH  23  25
ENDBRANCH  18  19
ENDBRANCH   7  18
TORSDOF 6
ENDMDL
MODEL 8
REMARK VINA RESULT:      -7.0      4.320      9.253
REMARK  Name = 
REMARK  8 active torsions:
REMARK  status: ('A' for Active; 'I' for Inactive)
REMARK    1  A    between atoms: C_1  and  O_2
REMARK    2  A    between atoms: O_2  and  C_3
REMARK    3  A    between atoms: C_7  and  O_8
REMARK    4  A    between atoms: O_8  and  C_9
REMARK    5  A    between atoms: C_10  and  C_11
REMARK    6  A    between atoms: N_17  and  C_18
REMARK    7  A    between atoms: C_18  and  C_19
REMARK    8  A    between atoms: C_23  and  C_24
REMARK                            x       y       z     vdW  Elec       q    Type
REMARK                         _______ _______ _______ _____ _____    ______ ____
ROOT
ATOM      1  C   UNL     1      -1.776  12.446  19.205  0.00  0.00    +0.000 C 
ATOM      2  C   UNL     1      -3.278  12.556  19.492  0.00  0.00    +0.000 C 
ATOM      3  C   UNL     1      -4.014  12.127  18.239  0.00  0.00    +0.000 C 
ATOM      4  C   UNL     1      -3.676  10.687  17.928  0.00  0.00    +0.000 C 
ATOM      5  C   UNL     1      -2.222  10.272  18.095  0.00  0.00    +0.000 C 
ATOM      6  O   UNL     1      -1.895   9.208  17.567  0.00  0.00    +0.000 OA
ATOM      7  N   UNL     1      -1.356  11.068  18.860  0.00  0.00    +0.000 N 
ENDROOT
BRANCH   1  13
ATOM      8  C   UNL     1      -0.215  14.314  19.958  0.00  0.00    +0.000 A 
ATOM      9  C   UNL     1       0.517  14.980  20.941  0.00  0.00    +0.000 A 
ATOM     10  C   UNL     1       0.529  14.454  22.213  0.00  0.00    +0.000 A 
ATOM     11  N   UNL     1      -0.134  13.340  22.557  0.00  0.00    +0.000 NA
ATOM     12  C   UNL     1      -0.865  12.713  21.603  0.00  0.00    +0.000 A 
ATOM     13  C   UNL     1      -0.952  13.154  20.279  0.00  0.00    +0.000 A 
BRANCH   8  15
ATOM     14  C   UNL     1      -0.196  16.170  18.466  0.00  0.00    +0.000 C 
ATOM     15  O   UNL     1      -0.286  14.762  18.661  0.00  0.00    +0.000 OA
ENDBRANCH   8  15
BRANCH  12  16
ATOM     16  O   UNL     1      -1.554  11.580  21.982  0.00  0.00    +0.000 OA
ATOM     17  C   UNL     1      -2.166  11.707  23.267  0.00  0.00    +0.000 C 
ENDBRANCH  12  16
ENDBRANCH   1  13
BRANCH   7  18
ATOM     18  C   UNL     1       0.092  10.898  18.640  0.00  0.00    +0.000 C 
BRANCH  18  19
ATOM     19  C   UNL     1       0.806   9.714  19.245  0.00  0.00    +0.000 A 
ATOM     20  C   UNL     1       0.582   9.365  20.588  0.00  0.00    +0.000 A 
ATOM     21  C   UNL     1       1.202   8.247  21.136  0.00  0.00    +0.000 A 
ATOM     22  C   UNL     1       2.030   7.450  20.339  0.00  0.00    +0.000 A 
ATOM     23  C   UNL     1       2.260   7.750  18.987  0.00  0.00    +0.000 A 
ATOM     24  C   UNL     1       1.648   8.904  18.464  0.00  0.00    +0.000 A 
BRANCH  23  25
ATOM     25  C   UNL     1       3.101   6.874  18.137  0.00  0.00    +0.000 A 
ATOM     26  C   UNL     1       2.915   5.478  18.117  0.00  0.00    +0.000 A 
ATOM     27  C   UNL     1       3.710   4.646  17.318  0.00  0.00    +0.000 A 
ATOM     28  C   UNL     1       4.695   5.194  16.509  0.00  0.00    +0.000 A 
ATOM     29  C   UNL     1       4.893   6.571  16.494  0.00  0.00    +0.000 A 
ATOM     30  C   UNL     1       4.106   7.397  17.305  0.00  0.00    +0.000 A 
ENDBRANCH  23  25
ENDBRANCH  18  19
ENDBRANCH   7  18
TORSDOF 6
ENDMDL
MODEL 9
REMARK VINA RESULT:      -6.9      6.759     11.487
REMARK  Name = 
REMARK  8 active torsions:
REMARK  status: ('A' for Active; 'I' for Inactive)
REMARK    1  A    between atoms: C_1  and  O_2
REMARK    2  A    between atoms: O_2  and  C_3
REMARK    3  A    between atoms: C_7  and  O_8
REMARK    4  A    between atoms: O_8  and  C_9
REMARK    5  A    between atoms: C_10  and  C_11
REMARK    6  A    between atoms: N_17  and  C_18
REMARK    7  A    between atoms: C_18  and  C_19
REMARK    8  A    between atoms: C_23  and  C_24
REMARK                            x       y       z     vdW  Elec       q    Type
REMARK                         _______ _______ _______ _____ _____    ______ ____
ROOT
ATOM      1  C   UNL     1      -6.170  13.070  20.773  0.00  0.00    +0.000 C 
ATOM      2  C   UNL     1      -6.583  12.540  22.151  0.00  0.00    +0.000 C 
ATOM      3  C   UNL     1      -7.916  11.838  21.990  0.00  0.00    +0.000 C 
ATOM      4  C   UNL     1      -7.756  10.673  21.043  0.00  0.00    +0.000 C 
ATOM      5  C   UNL     1      -6.904  10.906  19.804  0.00  0.00    +0.000 C 
ATOM      6  O   UNL     1      -7.016  10.076  18.901  0.00  0.00    +0.000 OA
ATOM      7  N   UNL     1      -6.019  11.994  19.766  0.00  0.00    +0.000 N 
ENDROOT
BRANCH   1  13
ATOM      8  C   UNL     1      -5.181  15.397  20.458  0.00  0.00    +0.000 A 
ATOM      9  C   UNL     1      -4.136  16.313  20.580  0.00  0.00    +0.000 A 
ATOM     10  C   UNL     1      -2.936  15.869  21.088  0.00  0.00    +0.000 A 
ATOM     11  N   UNL     1      -2.723  14.603  21.478  0.00  0.00    +0.000 NA
ATOM     12  C   UNL     1      -3.752  13.725  21.381  0.00  0.00    +0.000 A 
ATOM     13  C   UNL     1      -5.014  14.061  20.882  0.00  0.00    +0.000 A 
BRANCH   8  15
ATOM     14  C   UNL     1      -6.944  16.997  20.392  0.00  0.00    +0.000 C 
ATOM     15  O   UNL     1      -6.414  15.746  19.963  0.00  0.00    +0.000 OA
ENDBRANCH   8  15
BRANCH  12  16
ATOM     16  O   UNL     1      -3.517  12.433  21.805  0.00  0.00    +0.000 OA
ATOM     17  C   UNL     1      -2.724  12.374  22.993  0.00  0.00    +0.000 C 
ENDBRANCH  12  16
ENDBRANCH   1  13
BRANCH   7  18
ATOM     18  C   UNL     1      -5.559  12.446  18.441  0.00  0.00    +0.000 C 
BRANCH  18  19
ATOM     19  C   UNL     1      -4.436  11.713  17.748  0.00  0.00    +0.000 A 
ATOM     20  C   UNL     1      -4.494  11.479  16.363  0.00  0.00    +0.000 A 
ATOM     21  C   UNL     1      -3.440  10.845  15.713  0.00  0.00    +0.000 A 
ATOM     22  C   UNL     1      -2.305  10.463  16.436  0.00  0.00    +0.000 A 
ATOM     23  C   UNL     1      -2.199  10.700  17.817  0.00  0.00    +0.000 A 
ATOM     24  C   UNL     1      -3.291  11.313  18.458  0.00  0.00    +0.000 A 
BRANCH  23  25
ATOM     25  C   UNL     1      -0.974  10.334  18.567  0.00  0.00    +0.000 A 
ATOM     26  C   UNL     1      -0.866  10.574  19.950  0.00  0.00    +0.000 A 
ATOM     27  C   UNL     1       0.291  10.234  20.664  0.00  0.00    +0.000 A 
ATOM     28  C   UNL     1       1.357   9.631  20.011  0.00  0.00    +0.000 A 
ATOM     29  C   UNL     1       1.275   9.366  18.648  0.00  0.00    +0.000 A 
ATOM     30  C   UNL     1       0.123   9.721  17.937  0.00  0.00    +0.000 A 
ENDBRANCH  23  25
ENDBRANCH  18  19
ENDBRANCH   7  18
TORSDOF 6
ENDMDL
