MODEL 1
REMARK VINA RESULT:      -8.7      0.000      0.000
REMARK  Name = 
REMARK  8 active torsions:
REMARK  status: ('A' for Active; 'I' for Inactive)
REMARK    1  A    between atoms: C_1  and  C_2
REMARK    2  A    between atoms: N_4  and  C_5
REMARK    3  A    between atoms: C_5  and  C_6
REMARK    4  A    between atoms: C_5  and  C_7
REMARK    5  A    between atoms: C_10  and  O_11
REMARK    6  A    between atoms: O_11  and  C_12
REMARK    7  A    between atoms: C_23  and  C_24
REMARK    8  A    between atoms: C_23  and  C_25
REMARK                            x       y       z     vdW  Elec       q    Type
REMARK                         _______ _______ _______ _____ _____    ______ ____
ROOT
ATOM      1  C   UNL     1       2.715   6.139  18.958  0.00  0.00    +0.000 C 
ATOM      2  C   UNL     1       2.382   7.146  17.848  0.00  0.00    +0.000 C 
ATOM      3  C   UNL     1       2.088   8.475  18.557  0.00  0.00    +0.000 C 
ATOM      4  N   UNL     1       1.551   8.063  19.841  0.00  0.00    +0.000 N 
ATOM      5  C   UNL     1       1.067   8.970  20.772  0.00  0.00    +0.000 A 
ATOM      6  C   UNL     1       0.698   8.528  22.030  0.00  0.00    +0.000 A 
ATOM      7  C   UNL     1       0.222   9.452  22.920  0.00  0.00    +0.000 A 
ATOM      8  N   UNL     1       0.096  10.746  22.630  0.00  0.00    +0.000 NA
ATOM      9  C   UNL     1       0.428  11.135  21.385  0.00  0.00    +0.000 A 
ATOM     10  N   UNL     1       0.280  12.507  21.098  0.00  0.00    +0.000 N 
ATOM     11  C   UNL     1      -0.381  13.466  21.942  0.00  0.00    +0.000 C 
ATOM     12  C   UNL     1      -1.231  13.904  20.735  0.00  0.00    +0.000 C 
ATOM     13  C   UNL     1      -1.220  15.400  20.435  0.00  0.00    +0.000 C 
ATOM     14  C   UNL     1      -2.664  13.368  20.789  0.00  0.00    +0.000 C 
ATOM     15  C   UNL     1      -0.257  13.049  19.886  0.00  0.00    +0.000 C 
ATOM     16  N   UNL     1       0.897  10.275  20.443  0.00  0.00    +0.000 NA
ATOM     17  C   UNL     1       2.050   6.741  20.212  0.00  0.00    +0.000 C 
ENDROOT
BRANCH   1  18
ATOM     18  O   UNL     1       4.142   5.987  19.075  0.00  0.00    +0.000 OA
BRANCH  18  22
ATOM     19  C   UNL     1       5.938   4.566  15.537  0.00  0.00    +0.000 A 
ATOM     20  C   UNL     1       4.882   3.886  16.154  0.00  0.00    +0.000 A 
ATOM     21  C   UNL     1       4.314   4.379  17.347  0.00  0.00    +0.000 A 
ATOM     22  C   UNL     1       4.804   5.542  17.951  0.00  0.00    +0.000 A 
ATOM     23  C   UNL     1       5.872   6.204  17.350  0.00  0.00    +0.000 A 
ATOM     24  C   UNL     1       6.429   5.722  16.159  0.00  0.00    +0.000 A 
BRANCH  19  25
ATOM     25  C   UNL     1       6.511   4.121  14.195  0.00  0.00    +0.000 C 
ATOM     26  C   UNL     1       7.573   5.120  13.700  0.00  0.00    +0.000 C 
BRANCH  25  30
ATOM     27  C   UNL     1       4.172   3.235  11.335  0.00  0.00    +0.000 C 
ATOM     28  C   UNL     1       5.443   3.176  12.139  0.00  0.00    +0.000 C 
ATOM     29  O   UNL     1       6.393   2.473  11.818  0.00  0.00    +0.000 OA
ATOM     30  N   UNL     1       5.413   3.992  13.243  0.00  0.00    +0.000 N 
ATOM     31  H   UNL     1       4.518   4.372  13.523  0.00  0.00    +0.000 HD
ENDBRANCH  25  30
ENDBRANCH  19  25
ENDBRANCH  18  22
ENDBRANCH   1  18
TORSDOF 4
ENDMDL
MODEL 2
REMARK VINA RESULT:      -8.1      3.493      5.613
REMARK  Name = 
REMARK  8 active torsions:
REMARK  status: ('A' for Active; 'I' for Inactive)
REMARK    1  A    between atoms: C_1  and  C_2
REMARK    2  A    between atoms: N_4  and  C_5
REMARK    3  A    between atoms: C_5  and  C_6
REMARK    4  A    between atoms: C_5  and  C_7
REMARK    5  A    between atoms: C_10  and  O_11
REMARK    6  A    between atoms: O_11  and  C_12
REMARK    7  A    between atoms: C_23  and  C_24
REMARK    8  A    between atoms: C_23  and  C_25
REMARK                            x       y       z     vdW  Elec       q    Type
REMARK                         _______ _______ _______ _____ _____    ______ ____
ROOT
ATOM      1  C   UNL     1       0.825  10.242  19.322  0.00  0.00    +0.000 C 
ATOM      2  C   UNL     1       0.590  11.332  20.378  0.00  0.00    +0.000 C 
ATOM      3  C   UNL     1      -0.924  11.581  20.401  0.00  0.00    +0.000 C 
ATOM      4  N   UNL     1      -1.337  11.286  19.041  0.00  0.00    +0.000 N 
ATOM      5  C   UNL     1      -2.639  11.472  18.600  0.00  0.00    +0.000 A 
ATOM      6  C   UNL     1      -3.001  11.042  17.336  0.00  0.00    +0.000 A 
ATOM      7  C   UNL     1      -4.293  11.246  16.936  0.00  0.00    +0.000 A 
ATOM      8  N   UNL     1      -5.209  11.837  17.702  0.00  0.00    +0.000 NA
ATOM      9  C   UNL     1      -4.813  12.277  18.910  0.00  0.00    +0.000 A 
ATOM     10  N   UNL     1      -5.796  12.905  19.701  0.00  0.00    +0.000 N 
ATOM     11  C   UNL     1      -7.104  13.294  19.246  0.00  0.00    +0.000 C 
ATOM     12  C   UNL     1      -6.847  14.708  19.799  0.00  0.00    +0.000 C 
ATOM     13  C   UNL     1      -7.916  15.245  20.747  0.00  0.00    +0.000 C 
ATOM     14  C   UNL     1      -6.529  15.728  18.702  0.00  0.00    +0.000 C 
ATOM     15  C   UNL     1      -5.602  14.090  20.482  0.00  0.00    +0.000 C 
ATOM     16  N   UNL     1      -3.544  12.121  19.374  0.00  0.00    +0.000 NA
ATOM     17  C   UNL     1      -0.418  10.338  18.414  0.00  0.00    +0.000 C 
ENDROOT
BRANCH   1  18
ATOM     18  O   UNL     1       0.979   8.961  19.960  0.00  0.00    +0.000 OA
BRANCH  18  22
ATOM     19  C   UNL     1       3.677   6.411  17.965  0.00  0.00    +0.000 A 
ATOM     20  C   UNL     1       3.229   7.608  17.392  0.00  0.00    +0.000 A 
ATOM     21  C   UNL     1       2.313   8.429  18.079  0.00  0.00    +0.000 A 
ATOM     22  C   UNL     1       1.815   8.062  19.334  0.00  0.00    +0.000 A 
ATOM     23  C   UNL     1       2.241   6.859  19.892  0.00  0.00    +0.000 A 
ATOM     24  C   UNL     1       3.160   6.047  19.216  0.00  0.00    +0.000 A 
BRANCH  19  25
ATOM     25  C   UNL     1       4.744   5.546  17.300  0.00  0.00    +0.000 C 
ATOM     26  C   UNL     1       4.164   4.174  16.912  0.00  0.00    +0.000 C 
BRANCH  25  30
ATOM     27  C   UNL     1       8.058   5.724  19.148  0.00  0.00    +0.000 C 
ATOM     28  C   UNL     1       7.081   6.034  18.046  0.00  0.00    +0.000 C 
ATOM     29  O   UNL     1       7.363   6.763  17.103  0.00  0.00    +0.000 OA
ATOM     30  N   UNL     1       5.870   5.412  18.217  0.00  0.00    +0.000 N 
ATOM     31  H   UNL     1       5.676   4.999  19.121  0.00  0.00    +0.000 HD
ENDBRANCH  25  30
ENDBRANCH  19  25
ENDBRANCH  18  22
ENDBRANCH   1  18
TORSDOF 4
ENDMDL
MODEL 3
REMARK VINA RESULT:      -8.1      3.389      5.438
REMARK  Name = 
REMARK  8 active torsions:
REMARK  status: ('A' for Active; 'I' for Inactive)
REMARK    1  A    between atoms: C_1  and  C_2
REMARK    2  A    between atoms: N_4  and  C_5
REMARK    3  A    between atoms: C_5  and  C_6
REMARK    4  A    between atoms: C_5  and  C_7
REMARK    5  A    between atoms: C_10  and  O_11
REMARK    6  A    between atoms: O_11  and  C_12
REMARK    7  A    between atoms: C_23  and  C_24
REMARK    8  A    between atoms: C_23  and  C_25
REMARK                            x       y       z     vdW  Elec       q    Type
REMARK                         _______ _______ _______ _____ _____    ______ ____
ROOT
ATOM      1  C   UNL     1       0.724  10.340  18.733  0.00  0.00    +0.000 C 
ATOM      2  C   UNL     1       0.802  11.743  19.353  0.00  0.00    +0.000 C 
ATOM      3  C   UNL     1      -0.630  12.101  19.772  0.00  0.00    +0.000 C 
ATOM      4  N   UNL     1      -1.452  11.386  18.814  0.00  0.00    +0.000 N 
ATOM      5  C   UNL     1      -2.834  11.508  18.780  0.00  0.00    +0.000 A 
ATOM      6  C   UNL     1      -3.571  10.696  17.936  0.00  0.00    +0.000 A 
ATOM      7  C   UNL     1      -4.931  10.848  17.929  0.00  0.00    +0.000 A 
ATOM      8  N   UNL     1      -5.570  11.737  18.688  0.00  0.00    +0.000 NA
ATOM      9  C   UNL     1      -4.819  12.536  19.468  0.00  0.00    +0.000 A 
ATOM     10  N   UNL     1      -5.514  13.473  20.259  0.00  0.00    +0.000 N 
ATOM     11  C   UNL     1      -6.915  13.780  20.143  0.00  0.00    +0.000 C 
ATOM     12  C   UNL     1      -6.553  15.274  20.047  0.00  0.00    +0.000 C 
ATOM     13  C   UNL     1      -7.274  16.187  21.036  0.00  0.00    +0.000 C 
ATOM     14  C   UNL     1      -6.657  15.823  18.622  0.00  0.00    +0.000 C 
ATOM     15  C   UNL     1      -5.127  14.836  20.465  0.00  0.00    +0.000 C 
ATOM     16  N   UNL     1      -3.463  12.453  19.522  0.00  0.00    +0.000 NA
ATOM     17  C   UNL     1      -0.750  10.212  18.301  0.00  0.00    +0.000 C 
ENDROOT
BRANCH   1  18
ATOM     18  O   UNL     1       1.135   9.352  19.695  0.00  0.00    +0.000 OA
BRANCH  18  22
ATOM     19  C   UNL     1       3.617   6.326  18.131  0.00  0.00    +0.000 A 
ATOM     20  C   UNL     1       3.341   7.498  17.417  0.00  0.00    +0.000 A 
ATOM     21  C   UNL     1       2.493   8.483  17.962  0.00  0.00    +0.000 A 
ATOM     22  C   UNL     1       1.892   8.306  19.213  0.00  0.00    +0.000 A 
ATOM     23  C   UNL     1       2.147   7.128  19.911  0.00  0.00    +0.000 A 
ATOM     24  C   UNL     1       2.998   6.154  19.377  0.00  0.00    +0.000 A 
BRANCH  19  25
ATOM     25  C   UNL     1       4.608   5.284  17.621  0.00  0.00    +0.000 C 
ATOM     26  C   UNL     1       5.084   5.638  16.200  0.00  0.00    +0.000 C 
BRANCH  25  30
ATOM     27  C   UNL     1       3.407   1.769  18.417  0.00  0.00    +0.000 C 
ATOM     28  C   UNL     1       4.215   3.024  18.617  0.00  0.00    +0.000 C 
ATOM     29  O   UNL     1       5.008   3.155  19.541  0.00  0.00    +0.000 OA
ATOM     30  N   UNL     1       3.966   3.975  17.659  0.00  0.00    +0.000 N 
ATOM     31  H   UNL     1       3.157   3.846  17.066  0.00  0.00    +0.000 HD
ENDBRANCH  25  30
ENDBRANCH  19  25
ENDBRANCH  18  22
ENDBRANCH   1  18
TORSDOF 4
ENDMDL
MODEL 4
REMARK VINA RESULT:      -8.0      1.098      1.425
REMARK  Name = 
REMARK  8 active torsions:
REMARK  status: ('A' for Active; 'I' for Inactive)
REMARK    1  A    between atoms: C_1  and  C_2
REMARK    2  A    between atoms: N_4  and  C_5
REMARK    3  A    between atoms: C_5  and  C_6
REMARK    4  A    between atoms: C_5  and  C_7
REMARK    5  A    between atoms: C_10  and  O_11
REMARK    6  A    between atoms: O_11  and  C_12
REMARK    7  A    between atoms: C_23  and  C_24
REMARK    8  A    between atoms: C_23  and  C_25
REMARK                            x       y       z     vdW  Elec       q    Type
REMARK                         _______ _______ _______ _____ _____    ______ ____
ROOT
ATOM      1  C   UNL     1       2.044   7.393  18.527  0.00  0.00    +0.000 C 
ATOM      2  C   UNL     1       1.636   8.600  17.670  0.00  0.00    +0.000 C 
ATOM      3  C   UNL     1       1.362   9.746  18.654  0.00  0.00    +0.000 C 
ATOM      4  N   UNL     1       0.903   9.063  19.849  0.00  0.00    +0.000 N 
ATOM      5  C   UNL     1       0.457   9.745  20.972  0.00  0.00    +0.000 A 
ATOM      6  C   UNL     1       0.164   9.042  22.127  0.00  0.00    +0.000 A 
ATOM      7  C   UNL     1      -0.275   9.749  23.213  0.00  0.00    +0.000 A 
ATOM      8  N   UNL     1      -0.435  11.072  23.206  0.00  0.00    +0.000 NA
ATOM      9  C   UNL     1      -0.178  11.719  22.054  0.00  0.00    +0.000 A 
ATOM     10  N   UNL     1      -0.360  13.116  22.067  0.00  0.00    +0.000 N 
ATOM     11  C   UNL     1      -0.987  13.862  23.125  0.00  0.00    +0.000 C 
ATOM     12  C   UNL     1      -1.908  14.519  22.080  0.00  0.00    +0.000 C 
ATOM     13  C   UNL     1      -1.935  16.045  22.099  0.00  0.00    +0.000 C 
ATOM     14  C   UNL     1      -3.328  13.948  22.094  0.00  0.00    +0.000 C 
ATOM     15  C   UNL     1      -0.970  13.884  21.024  0.00  0.00    +0.000 C 
ATOM     16  N   UNL     1       0.252  11.085  20.931  0.00  0.00    +0.000 NA
ATOM     17  C   UNL     1       1.440   7.705  19.911  0.00  0.00    +0.000 C 
ENDROOT
BRANCH   1  18
ATOM     18  O   UNL     1       3.476   7.257  18.537  0.00  0.00    +0.000 OA
BRANCH  18  22
ATOM     19  C   UNL     1       5.344   4.933  15.557  0.00  0.00    +0.000 A 
ATOM     20  C   UNL     1       5.349   6.333  15.515  0.00  0.00    +0.000 A 
ATOM     21  C   UNL     1       4.700   7.080  16.519  0.00  0.00    +0.000 A 
ATOM     22  C   UNL     1       4.021   6.446  17.564  0.00  0.00    +0.000 A 
ATOM     23  C   UNL     1       3.994   5.053  17.591  0.00  0.00    +0.000 A 
ATOM     24  C   UNL     1       4.648   4.310  16.602  0.00  0.00    +0.000 A 
BRANCH  19  25
ATOM     25  C   UNL     1       6.120   4.092  14.548  0.00  0.00    +0.000 C 
ATOM     26  C   UNL     1       7.378   4.841  14.071  0.00  0.00    +0.000 C 
BRANCH  25  30
ATOM     27  C   UNL     1       4.536   3.041  11.259  0.00  0.00    +0.000 C 
ATOM     28  C   UNL     1       5.665   3.292  12.222  0.00  0.00    +0.000 C 
ATOM     29  O   UNL     1       6.837   3.089  11.929  0.00  0.00    +0.000 OA
ATOM     30  N   UNL     1       5.235   3.771  13.434  0.00  0.00    +0.000 N 
ATOM     31  H   UNL     1       4.245   3.713  13.639  0.00  0.00    +0.000 HD
ENDBRANCH  25  30
ENDBRANCH  19  25
ENDBRANCH  18  22
ENDBRANCH   1  18
TORSDOF 4
ENDMDL
MODEL 5
REMARK VINA RESULT:      -7.9      4.787      9.970
REMARK  Name = 
REMARK  8 active torsions:
REMARK  status: ('A' for Active; 'I' for Inactive)
REMARK    1  A    between atoms: C_1  and  C_2
REMARK    2  A    between atoms: N_4  and  C_5
REMARK    3  A    between atoms: C_5  and  C_6
REMARK    4  A    between atoms: C_5  and  C_7
REMARK    5  A    between atoms: C_10  and  O_11
REMARK    6  A    between atoms: O_11  and  C_12
REMARK    7  A    between atoms: C_23  and  C_24
REMARK    8  A    between atoms: C_23  and  C_25
REMARK                            x       y       z     vdW  Elec       q    Type
REMARK                         _______ _______ _______ _____ _____    ______ ____
ROOT
ATOM      1  C   UNL     1      -0.362  12.092  21.312  0.00  0.00    +0.000 C 
ATOM      2  C   UNL     1      -0.669  10.958  22.301  0.00  0.00    +0.000 C 
ATOM      3  C   UNL     1       0.282   9.810  21.940  0.00  0.00    +0.000 C 
ATOM      4  N   UNL     1       0.485   9.975  20.512  0.00  0.00    +0.000 N 
ATOM      5  C   UNL     1       1.224   9.077  19.755  0.00  0.00    +0.000 A 
ATOM      6  C   UNL     1       1.497   9.362  18.429  0.00  0.00    +0.000 A 
ATOM      7  C   UNL     1       2.226   8.451  17.716  0.00  0.00    +0.000 A 
ATOM      8  N   UNL     1       2.678   7.310  18.235  0.00  0.00    +0.000 NA
ATOM      9  C   UNL     1       2.361   7.047  19.516  0.00  0.00    +0.000 A 
ATOM     10  N   UNL     1       2.843   5.832  20.044  0.00  0.00    +0.000 N 
ATOM     11  C   UNL     1       3.453   4.778  19.277  0.00  0.00    +0.000 C 
ATOM     12  C   UNL     1       2.467   3.781  19.915  0.00  0.00    +0.000 C 
ATOM     13  C   UNL     1       3.105   2.559  20.570  0.00  0.00    +0.000 C 
ATOM     14  C   UNL     1       1.341   3.366  18.966  0.00  0.00    +0.000 C 
ATOM     15  C   UNL     1       2.102   4.937  20.879  0.00  0.00    +0.000 C 
ATOM     16  N   UNL     1       1.632   7.897  20.286  0.00  0.00    +0.000 NA
ATOM     17  C   UNL     1       0.292  11.369  20.117  0.00  0.00    +0.000 C 
ENDROOT
BRANCH   1  18
ATOM     18  O   UNL     1       0.490  13.071  21.933  0.00  0.00    +0.000 OA
BRANCH  18  22
ATOM     19  C   UNL     1       2.686  15.657  19.432  0.00  0.00    +0.000 A 
ATOM     20  C   UNL     1       1.310  15.818  19.636  0.00  0.00    +0.000 A 
ATOM     21  C   UNL     1       0.602  14.925  20.466  0.00  0.00    +0.000 A 
ATOM     22  C   UNL     1       1.248  13.850  21.085  0.00  0.00    +0.000 A 
ATOM     23  C   UNL     1       2.612  13.675  20.861  0.00  0.00    +0.000 A 
ATOM     24  C   UNL     1       3.319  14.568  20.047  0.00  0.00    +0.000 A 
BRANCH  19  25
ATOM     25  C   UNL     1       3.505  16.660  18.625  0.00  0.00    +0.000 C 
ATOM     26  C   UNL     1       2.847  16.922  17.258  0.00  0.00    +0.000 C 
BRANCH  25  30
ATOM     27  C   UNL     1       7.253  16.043  18.584  0.00  0.00    +0.000 C 
ATOM     28  C   UNL     1       5.992  16.822  18.844  0.00  0.00    +0.000 C 
ATOM     29  O   UNL     1       6.000  17.947  19.327  0.00  0.00    +0.000 OA
ATOM     30  N   UNL     1       4.859  16.139  18.476  0.00  0.00    +0.000 N 
ATOM     31  H   UNL     1       4.949  15.151  18.277  0.00  0.00    +0.000 HD
ENDBRANCH  25  30
ENDBRANCH  19  25
ENDBRANCH  18  22
ENDBRANCH   1  18
TORSDOF 4
ENDMDL
MODEL 6
REMARK VINA RESULT:      -7.9      3.617      5.257
REMARK  Name = 
REMARK  8 active torsions:
REMARK  status: ('A' for Active; 'I' for Inactive)
REMARK    1  A    between atoms: C_1  and  C_2
REMARK    2  A    between atoms: N_4  and  C_5
REMARK    3  A    between atoms: C_5  and  C_6
REMARK    4  A    between atoms: C_5  and  C_7
REMARK    5  A    between atoms: C_10  and  O_11
REMARK    6  A    between atoms: O_11  and  C_12
REMARK    7  A    between atoms: C_23  and  C_24
REMARK    8  A    between atoms: C_23  and  C_25
REMARK                            x       y       z     vdW  Elec       q    Type
REMARK                         _______ _______ _______ _____ _____    ______ ____
ROOT
ATOM      1  C   UNL     1       1.261   9.860  19.102  0.00  0.00    +0.000 C 
ATOM      2  C   UNL     1       0.878  11.066  19.972  0.00  0.00    +0.000 C 
ATOM      3  C   UNL     1      -0.650  11.184  19.884  0.00  0.00    +0.000 C 
ATOM      4  N   UNL     1      -0.955  10.661  18.565  0.00  0.00    +0.000 N 
ATOM      5  C   UNL     1      -2.238  10.669  18.039  0.00  0.00    +0.000 A 
ATOM      6  C   UNL     1      -2.487  10.031  16.836  0.00  0.00    +0.000 A 
ATOM      7  C   UNL     1      -3.765  10.063  16.348  0.00  0.00    +0.000 A 
ATOM      8  N   UNL     1      -4.769  10.677  16.972  0.00  0.00    +0.000 NA
ATOM      9  C   UNL     1      -4.484  11.318  18.119  0.00  0.00    +0.000 A 
ATOM     10  N   UNL     1      -5.559  11.967  18.760  0.00  0.00    +0.000 N 
ATOM     11  C   UNL     1      -6.864  12.171  18.189  0.00  0.00    +0.000 C 
ATOM     12  C   UNL     1      -6.753  13.667  18.536  0.00  0.00    +0.000 C 
ATOM     13  C   UNL     1      -7.916  14.240  19.341  0.00  0.00    +0.000 C 
ATOM     14  C   UNL     1      -6.449  14.542  17.317  0.00  0.00    +0.000 C 
ATOM     15  C   UNL     1      -5.507  13.263  19.364  0.00  0.00    +0.000 C 
ATOM     16  N   UNL     1      -3.237  11.342  18.662  0.00  0.00    +0.000 NA
ATOM     17  C   UNL     1       0.072   9.716  18.131  0.00  0.00    +0.000 C 
ENDROOT
BRANCH   1  18
ATOM     18  O   UNL     1       1.476   8.703  19.930  0.00  0.00    +0.000 OA
BRANCH  18  22
ATOM     19  C   UNL     1       3.402   5.364  18.225  0.00  0.00    +0.000 A 
ATOM     20  C   UNL     1       2.666   5.267  19.412  0.00  0.00    +0.000 A 
ATOM     21  C   UNL     1       2.048   6.407  19.965  0.00  0.00    +0.000 A 
ATOM     22  C   UNL     1       2.172   7.661  19.357  0.00  0.00    +0.000 A 
ATOM     23  C   UNL     1       2.926   7.762  18.190  0.00  0.00    +0.000 A 
ATOM     24  C   UNL     1       3.530   6.628  17.632  0.00  0.00    +0.000 A 
BRANCH  19  25
ATOM     25  C   UNL     1       3.998   4.138  17.541  0.00  0.00    +0.000 C 
ATOM     26  C   UNL     1       3.374   2.847  18.102  0.00  0.00    +0.000 C 
BRANCH  25  30
ATOM     27  C   UNL     1       7.769   4.502  17.249  0.00  0.00    +0.000 C 
ATOM     28  C   UNL     1       6.340   4.581  16.781  0.00  0.00    +0.000 C 
ATOM     29  O   UNL     1       6.035   4.978  15.664  0.00  0.00    +0.000 OA
ATOM     30  N   UNL     1       5.444   4.158  17.732  0.00  0.00    +0.000 N 
ATOM     31  H   UNL     1       5.782   4.043  18.678  0.00  0.00    +0.000 HD
ENDBRANCH  25  30
ENDBRANCH  19  25
ENDBRANCH  18  22
ENDBRANCH   1  18
TORSDOF 4
ENDMDL
MODEL 7
REMARK VINA RESULT:      -7.9      2.688      4.555
REMARK  Name = 
REMARK  8 active torsions:
REMARK  status: ('A' for Active; 'I' for Inactive)
REMARK    1  A    between atoms: C_1  and  C_2
REMARK    2  A    between atoms: N_4  and  C_5
REMARK    3  A    between atoms: C_5  and  C_6
REMARK    4  A    between atoms: C_5  and  C_7
REMARK    5  A    between atoms: C_10  and  O_11
REMARK    6  A    between atoms: O_11  and  C_12
REMARK    7  A    between atoms: C_23  and  C_24
REMARK    8  A    between atoms: C_23  and  C_25
REMARK                            x       y       z     vdW  Elec       q    Type
REMARK                         _______ _______ _______ _____ _____    ______ ____
ROOT
ATOM      1  C   UNL     1       1.472   8.501  21.042  0.00  0.00    +0.000 C 
ATOM      2  C   UNL     1       1.537   9.167  22.424  0.00  0.00    +0.000 C 
ATOM      3  C   UNL     1       0.251   9.995  22.557  0.00  0.00    +0.000 C 
ATOM      4  N   UNL     1      -0.054  10.369  21.188  0.00  0.00    +0.000 N 
ATOM      5  C   UNL     1      -1.107  11.211  20.862  0.00  0.00    +0.000 A 
ATOM      6  C   UNL     1      -1.430  11.418  19.533  0.00  0.00    +0.000 A 
ATOM      7  C   UNL     1      -2.475  12.257  19.252  0.00  0.00    +0.000 A 
ATOM      8  N   UNL     1      -3.184  12.879  20.192  0.00  0.00    +0.000 NA
ATOM      9  C   UNL     1      -2.818  12.684  21.472  0.00  0.00    +0.000 A 
ATOM     10  N   UNL     1      -3.578  13.356  22.450  0.00  0.00    +0.000 N 
ATOM     11  C   UNL     1      -4.557  14.377  22.184  0.00  0.00    +0.000 C 
ATOM     12  C   UNL     1      -3.850  15.285  23.207  0.00  0.00    +0.000 C 
ATOM     13  C   UNL     1      -4.745  15.863  24.299  0.00  0.00    +0.000 C 
ATOM     14  C   UNL     1      -3.013  16.385  22.549  0.00  0.00    +0.000 C 
ATOM     15  C   UNL     1      -3.049  14.020  23.603  0.00  0.00    +0.000 C 
ATOM     16  N   UNL     1      -1.786  11.875  21.830  0.00  0.00    +0.000 NA
ATOM     17  C   UNL     1       0.502   9.398  20.248  0.00  0.00    +0.000 C 
ENDROOT
BRANCH   1  18
ATOM     18  O   UNL     1       1.028   7.138  21.172  0.00  0.00    +0.000 OA
BRANCH  18  22
ATOM     19  C   UNL     1       3.080   4.455  18.652  0.00  0.00    +0.000 A 
ATOM     20  C   UNL     1       3.253   5.841  18.554  0.00  0.00    +0.000 A 
ATOM     21  C   UNL     1       2.538   6.712  19.401  0.00  0.00    +0.000 A 
ATOM     22  C   UNL     1       1.628   6.217  20.341  0.00  0.00    +0.000 A 
ATOM     23  C   UNL     1       1.437   4.839  20.421  0.00  0.00    +0.000 A 
ATOM     24  C   UNL     1       2.155   3.972  19.588  0.00  0.00    +0.000 A 
BRANCH  19  25
ATOM     25  C   UNL     1       3.909   3.477  17.825  0.00  0.00    +0.000 C 
ATOM     26  C   UNL     1       3.593   2.024  18.226  0.00  0.00    +0.000 C 
BRANCH  25  30
ATOM     27  C   UNL     1       7.529   4.594  17.536  0.00  0.00    +0.000 C 
ATOM     28  C   UNL     1       6.114   4.383  17.066  0.00  0.00    +0.000 C 
ATOM     29  O   UNL     1       5.735   4.711  15.949  0.00  0.00    +0.000 OA
ATOM     30  N   UNL     1       5.321   3.789  18.017  0.00  0.00    +0.000 N 
ATOM     31  H   UNL     1       5.675   3.743  18.964  0.00  0.00    +0.000 HD
ENDBRANCH  25  30
ENDBRANCH  19  25
ENDBRANCH  18  22
ENDBRANCH   1  18
TORSDOF 4
ENDMDL
MODEL 8
REMARK VINA RESULT:      -7.9      3.741     11.520
REMARK  Name = 
REMARK  8 active torsions:
REMARK  status: ('A' for Active; 'I' for Inactive)
REMARK    1  A    between atoms: C_1  and  C_2
REMARK    2  A    between atoms: N_4  and  C_5
REMARK    3  A    between atoms: C_5  and  C_6
REMARK    4  A    between atoms: C_5  and  C_7
REMARK    5  A    between atoms: C_10  and  O_11
REMARK    6  A    between atoms: O_11  and  C_12
REMARK    7  A    between atoms: C_23  and  C_24
REMARK    8  A    between atoms: C_23  and  C_25
REMARK                            x       y       z     vdW  Elec       q    Type
REMARK                         _______ _______ _______ _____ _____    ______ ____
ROOT
ATOM      1  C   UNL     1       0.552  10.586  19.919  0.00  0.00    +0.000 C 
ATOM      2  C   UNL     1       1.550  11.000  18.828  0.00  0.00    +0.000 C 
ATOM      3  C   UNL     1       2.030   9.696  18.175  0.00  0.00    +0.000 C 
ATOM      4  N   UNL     1       1.945   8.727  19.253  0.00  0.00    +0.000 N 
ATOM      5  C   UNL     1       2.377   7.416  19.112  0.00  0.00    +0.000 A 
ATOM      6  C   UNL     1       2.142   6.506  20.128  0.00  0.00    +0.000 A 
ATOM      7  C   UNL     1       2.586   5.224  19.953  0.00  0.00    +0.000 A 
ATOM      8  N   UNL     1       3.232   4.818  18.861  0.00  0.00    +0.000 NA
ATOM      9  C   UNL     1       3.477   5.738  17.910  0.00  0.00    +0.000 A 
ATOM     10  N   UNL     1       4.166   5.289  16.766  0.00  0.00    +0.000 N 
ATOM     11  C   UNL     1       4.800   4.004  16.630  0.00  0.00    +0.000 C 
ATOM     12  C   UNL     1       6.092   4.718  16.190  0.00  0.00    +0.000 C 
ATOM     13  C   UNL     1       6.688   4.237  14.870  0.00  0.00    +0.000 C 
ATOM     14  C   UNL     1       7.157   4.754  17.289  0.00  0.00    +0.000 C 
ATOM     15  C   UNL     1       5.218   5.994  16.099  0.00  0.00    +0.000 C 
ATOM     16  N   UNL     1       3.077   7.033  18.015  0.00  0.00    +0.000 NA
ATOM     17  C   UNL     1       0.935   9.125  20.231  0.00  0.00    +0.000 C 
ENDROOT
BRANCH   1  18
ATOM     18  O   UNL     1      -0.796  10.742  19.440  0.00  0.00    +0.000 OA
BRANCH  18  22
ATOM     19  C   UNL     1      -3.506  13.166  21.572  0.00  0.00    +0.000 A 
ATOM     20  C   UNL     1      -3.613  12.977  20.189  0.00  0.00    +0.000 A 
ATOM     21  C   UNL     1      -2.680  12.173  19.503  0.00  0.00    +0.000 A 
ATOM     22  C   UNL     1      -1.617  11.565  20.180  0.00  0.00    +0.000 A 
ATOM     23  C   UNL     1      -1.496  11.775  21.552  0.00  0.00    +0.000 A 
ATOM     24  C   UNL     1      -2.429  12.562  22.236  0.00  0.00    +0.000 A 
BRANCH  19  25
ATOM     25  C   UNL     1      -4.553  13.943  22.365  0.00  0.00    +0.000 C 
ATOM     26  C   UNL     1      -3.913  14.617  23.592  0.00  0.00    +0.000 C 
BRANCH  25  30
ATOM     27  C   UNL     1      -7.734  11.896  22.721  0.00  0.00    +0.000 C 
ATOM     28  C   UNL     1      -6.828  12.934  22.113  0.00  0.00    +0.000 C 
ATOM     29  O   UNL     1      -7.161  13.617  21.153  0.00  0.00    +0.000 OA
ATOM     30  N   UNL     1      -5.617  13.024  22.753  0.00  0.00    +0.000 N 
ATOM     31  H   UNL     1      -5.369  12.285  23.398  0.00  0.00    +0.000 HD
ENDBRANCH  25  30
ENDBRANCH  19  25
ENDBRANCH  18  22
ENDBRANCH   1  18
TORSDOF 4
ENDMDL
MODEL 9
REMARK VINA RESULT:      -7.9      3.452      4.808
REMARK  Name = 
REMARK  8 active torsions:
REMARK  status: ('A' for Active; 'I' for Inactive)
REMARK    1  A    between atoms: C_1  and  C_2
REMARK    2  A    between atoms: N_4  and  C_5
REMARK    3  A    between atoms: C_5  and  C_6
REMARK    4  A    between atoms: C_5  and  C_7
REMARK    5  A    between atoms: C_10  and  O_11
REMARK    6  A    between atoms: O_11  and  C_12
REMARK    7  A    between atoms: C_23  and  C_24
REMARK    8  A    between atoms: C_23  and  C_25
REMARK                            x       y       z     vdW  Elec       q    Type
REMARK                         _______ _______ _______ _____ _____    ______ ____
ROOT
ATOM      1  C   UNL     1       1.289   9.283  18.745  0.00  0.00    +0.000 C 
ATOM      2  C   UNL     1       0.848  10.070  19.988  0.00  0.00    +0.000 C 
ATOM      3  C   UNL     1      -0.668  10.268  19.850  0.00  0.00    +0.000 C 
ATOM      4  N   UNL     1      -0.874  10.310  18.414  0.00  0.00    +0.000 N 
ATOM      5  C   UNL     1      -2.113  10.567  17.846  0.00  0.00    +0.000 A 
ATOM      6  C   UNL     1      -2.274  10.456  16.476  0.00  0.00    +0.000 A 
ATOM      7  C   UNL     1      -3.511  10.720  15.953  0.00  0.00    +0.000 A 
ATOM      8  N   UNL     1      -4.555  11.079  16.698  0.00  0.00    +0.000 NA
ATOM      9  C   UNL     1      -4.354  11.214  18.021  0.00  0.00    +0.000 A 
ATOM     10  N   UNL     1      -5.471  11.601  18.789  0.00  0.00    +0.000 N 
ATOM     11  C   UNL     1      -6.727  12.058  18.255  0.00  0.00    +0.000 C 
ATOM     12  C   UNL     1      -6.633  13.296  19.166  0.00  0.00    +0.000 C 
ATOM     13  C   UNL     1      -7.851  13.553  20.049  0.00  0.00    +0.000 C 
ATOM     14  C   UNL     1      -6.232  14.564  18.408  0.00  0.00    +0.000 C 
ATOM     15  C   UNL     1      -5.457  12.559  19.853  0.00  0.00    +0.000 C 
ATOM     16  N   UNL     1      -3.153  10.980  18.613  0.00  0.00    +0.000 NA
ATOM     17  C   UNL     1       0.177   9.571  17.716  0.00  0.00    +0.000 C 
ENDROOT
BRANCH   1  18
ATOM     18  O   UNL     1       1.432   7.889  19.069  0.00  0.00    +0.000 OA
BRANCH  18  22
ATOM     19  C   UNL     1       5.100   6.270  17.769  0.00  0.00    +0.000 A 
ATOM     20  C   UNL     1       4.464   7.308  17.078  0.00  0.00    +0.000 A 
ATOM     21  C   UNL     1       3.229   7.816  17.531  0.00  0.00    +0.000 A 
ATOM     22  C   UNL     1       2.601   7.283  18.662  0.00  0.00    +0.000 A 
ATOM     23  C   UNL     1       3.222   6.232  19.333  0.00  0.00    +0.000 A 
ATOM     24  C   UNL     1       4.454   5.735  18.893  0.00  0.00    +0.000 A 
BRANCH  19  25
ATOM     25  C   UNL     1       6.483   5.763  17.371  0.00  0.00    +0.000 C 
ATOM     26  C   UNL     1       7.574   6.743  17.840  0.00  0.00    +0.000 C 
BRANCH  25  30
ATOM     27  C   UNL     1       6.309   4.506  13.791  0.00  0.00    +0.000 C 
ATOM     28  C   UNL     1       6.202   4.406  15.289  0.00  0.00    +0.000 C 
ATOM     29  O   UNL     1       5.876   3.372  15.858  0.00  0.00    +0.000 OA
ATOM     30  N   UNL     1       6.512   5.583  15.925  0.00  0.00    +0.000 N 
ATOM     31  H   UNL     1       6.572   6.421  15.361  0.00  0.00    +0.000 HD
ENDBRANCH  25  30
ENDBRANCH  19  25
ENDBRANCH  18  22
ENDBRANCH   1  18
TORSDOF 4
ENDMDL
