MODEL 1
REMARK VINA RESULT:      -7.2      0.000      0.000
REMARK  Name = 
REMARK  2 active torsions:
REMARK  status: ('A' for Active; 'I' for Inactive)
REMARK    1  A    between atoms: C_1  and  C_2
REMARK    2  A    between atoms: C_2  and  N_3
REMARK                            x       y       z     vdW  Elec       q    Type
REMARK                         _______ _______ _______ _____ _____    ______ ____
ROOT
ATOM      1  N   UNL     1       2.183   3.937  19.374  0.00  0.00    +0.000 N 
ATOM      2  C   UNL     1       2.534   5.254  18.882  0.00  0.00    +0.000 A 
ATOM      3  C   UNL     1       2.014   6.469  19.323  0.00  0.00    +0.000 A 
ATOM      4  C   UNL     1       2.513   7.640  18.729  0.00  0.00    +0.000 A 
ATOM      5  C   UNL     1       3.495   7.606  17.724  0.00  0.00    +0.000 A 
ATOM      6  C   UNL     1       4.004   6.378  17.276  0.00  0.00    +0.000 A 
ATOM      7  C   UNL     1       4.977   6.207  16.275  0.00  0.00    +0.000 A 
ATOM      8  C   UNL     1       5.403   4.918  15.902  0.00  0.00    +0.000 A 
ATOM      9  C   UNL     1       4.877   3.766  16.508  0.00  0.00    +0.000 A 
ATOM     10  C   UNL     1       3.922   3.969  17.494  0.00  0.00    +0.000 A 
ATOM     11  C   UNL     1       3.505   5.236  17.871  0.00  0.00    +0.000 A 
ATOM     12  S   UNL     1       3.029   2.794  18.459  0.00  0.00    +0.000 S 
ATOM     13  O   UNL     1       4.131   2.178  19.153  0.00  0.00    +0.000 OA
ATOM     14  O   UNL     1       2.248   2.184  17.412  0.00  0.00    +0.000 OA
ENDROOT
BRANCH   1  16
ATOM     15  C   UNL     1       1.499   2.847  21.436  0.00  0.00    +0.000 C 
ATOM     16  C   UNL     1       1.037   3.568  20.184  0.00  0.00    +0.000 C 
ENDBRANCH   1  16
TORSDOF 1
ENDMDL
MODEL 2
REMARK VINA RESULT:      -6.8      1.855      4.190
REMARK  Name = 
REMARK  2 active torsions:
REMARK  status: ('A' for Active; 'I' for Inactive)
REMARK    1  A    between atoms: C_1  and  C_2
REMARK    2  A    between atoms: C_2  and  N_3
REMARK                            x       y       z     vdW  Elec       q    Type
REMARK                         _______ _______ _______ _____ _____    ______ ____
ROOT
ATOM      1  N   UNL     1       4.409   5.769  17.820  0.00  0.00    +0.000 N 
ATOM      2  C   UNL     1       3.409   6.056  18.830  0.00  0.00    +0.000 A 
ATOM      3  C   UNL     1       2.743   7.265  19.017  0.00  0.00    +0.000 A 
ATOM      4  C   UNL     1       1.785   7.323  20.042  0.00  0.00    +0.000 A 
ATOM      5  C   UNL     1       1.501   6.217  20.861  0.00  0.00    +0.000 A 
ATOM      6  C   UNL     1       2.185   5.007  20.675  0.00  0.00    +0.000 A 
ATOM      7  C   UNL     1       2.002   3.834  21.430  0.00  0.00    +0.000 A 
ATOM      8  C   UNL     1       2.759   2.680  21.154  0.00  0.00    +0.000 A 
ATOM      9  C   UNL     1       3.717   2.656  20.128  0.00  0.00    +0.000 A 
ATOM     10  C   UNL     1       3.871   3.828  19.401  0.00  0.00    +0.000 A 
ATOM     11  C   UNL     1       3.122   4.964  19.662  0.00  0.00    +0.000 A 
ATOM     12  S   UNL     1       4.966   4.192  18.067  0.00  0.00    +0.000 S 
ATOM     13  O   UNL     1       4.485   3.236  17.103  0.00  0.00    +0.000 OA
ATOM     14  O   UNL     1       6.220   4.116  18.774  0.00  0.00    +0.000 OA
ENDROOT
BRANCH   1  16
ATOM     15  C   UNL     1       5.290   6.181  15.592  0.00  0.00    +0.000 C 
ATOM     16  C   UNL     1       5.144   6.718  17.004  0.00  0.00    +0.000 C 
ENDBRANCH   1  16
TORSDOF 1
ENDMDL
MODEL 3
REMARK VINA RESULT:      -6.7      1.395      3.870
REMARK  Name = 
REMARK  2 active torsions:
REMARK  status: ('A' for Active; 'I' for Inactive)
REMARK    1  A    between atoms: C_1  and  C_2
REMARK    2  A    between atoms: C_2  and  N_3
REMARK                            x       y       z     vdW  Elec       q    Type
REMARK                         _______ _______ _______ _____ _____    ______ ____
ROOT
ATOM      1  N   UNL     1       4.747   4.263  17.400  0.00  0.00    +0.000 N 
ATOM      2  C   UNL     1       4.045   5.478  17.764  0.00  0.00    +0.000 A 
ATOM      3  C   UNL     1       4.162   6.720  17.144  0.00  0.00    +0.000 A 
ATOM      4  C   UNL     1       3.366   7.767  17.640  0.00  0.00    +0.000 A 
ATOM      5  C   UNL     1       2.486   7.587  18.721  0.00  0.00    +0.000 A 
ATOM      6  C   UNL     1       2.384   6.336  19.347  0.00  0.00    +0.000 A 
ATOM      7  C   UNL     1       1.552   6.030  20.439  0.00  0.00    +0.000 A 
ATOM      8  C   UNL     1       1.544   4.734  20.991  0.00  0.00    +0.000 A 
ATOM      9  C   UNL     1       2.359   3.712  20.480  0.00  0.00    +0.000 A 
ATOM     10  C   UNL     1       3.164   4.047  19.401  0.00  0.00    +0.000 A 
ATOM     11  C   UNL     1       3.170   5.318  18.848  0.00  0.00    +0.000 A 
ATOM     12  S   UNL     1       4.320   3.059  18.506  0.00  0.00    +0.000 S 
ATOM     13  O   UNL     1       3.419   2.065  17.982  0.00  0.00    +0.000 OA
ATOM     14  O   UNL     1       5.293   2.846  19.548  0.00  0.00    +0.000 OA
ENDROOT
BRANCH   1  16
ATOM     15  C   UNL     1       7.138   4.676  17.255  0.00  0.00    +0.000 C 
ATOM     16  C   UNL     1       5.913   4.134  16.544  0.00  0.00    +0.000 C 
ENDBRANCH   1  16
TORSDOF 1
ENDMDL
MODEL 4
REMARK VINA RESULT:      -6.7      1.691      4.073
REMARK  Name = 
REMARK  2 active torsions:
REMARK  status: ('A' for Active; 'I' for Inactive)
REMARK    1  A    between atoms: C_1  and  C_2
REMARK    2  A    between atoms: C_2  and  N_3
REMARK                            x       y       z     vdW  Elec       q    Type
REMARK                         _______ _______ _______ _____ _____    ______ ____
ROOT
ATOM      1  N   UNL     1       4.747   5.472  17.080  0.00  0.00    +0.000 N 
ATOM      2  C   UNL     1       3.831   6.391  17.726  0.00  0.00    +0.000 A 
ATOM      3  C   UNL     1       3.544   7.694  17.324  0.00  0.00    +0.000 A 
ATOM      4  C   UNL     1       2.600   8.410  18.079  0.00  0.00    +0.000 A 
ATOM      5  C   UNL     1       1.963   7.851  19.201  0.00  0.00    +0.000 A 
ATOM      6  C   UNL     1       2.267   6.543  19.605  0.00  0.00    +0.000 A 
ATOM      7  C   UNL     1       1.709   5.874  20.710  0.00  0.00    +0.000 A 
ATOM      8  C   UNL     1       2.104   4.559  21.024  0.00  0.00    +0.000 A 
ATOM      9  C   UNL     1       3.058   3.874  20.257  0.00  0.00    +0.000 A 
ATOM     10  C   UNL     1       3.585   4.560  19.172  0.00  0.00    +0.000 A 
ATOM     11  C   UNL     1       3.195   5.852  18.854  0.00  0.00    +0.000 A 
ATOM     12  S   UNL     1       4.800   4.053  17.999  0.00  0.00    +0.000 S 
ATOM     13  O   UNL     1       4.103   2.939  17.409  0.00  0.00    +0.000 OA
ATOM     14  O   UNL     1       5.941   3.963  18.875  0.00  0.00    +0.000 OA
ENDROOT
BRANCH   1  16
ATOM     15  C   UNL     1       5.638   4.844  14.908  0.00  0.00    +0.000 C 
ATOM     16  C   UNL     1       5.766   5.780  16.094  0.00  0.00    +0.000 C 
ENDBRANCH   1  16
TORSDOF 1
ENDMDL
MODEL 5
REMARK VINA RESULT:      -6.6      2.906      4.884
REMARK  Name = 
REMARK  2 active torsions:
REMARK  status: ('A' for Active; 'I' for Inactive)
REMARK    1  A    between atoms: C_1  and  C_2
REMARK    2  A    between atoms: C_2  and  N_3
REMARK                            x       y       z     vdW  Elec       q    Type
REMARK                         _______ _______ _______ _____ _____    ______ ____
ROOT
ATOM      1  N   UNL     1       5.624   4.654  16.374  0.00  0.00    +0.000 N 
ATOM      2  C   UNL     1       4.399   4.215  17.012  0.00  0.00    +0.000 A 
ATOM      3  C   UNL     1       3.959   2.899  17.144  0.00  0.00    +0.000 A 
ATOM      4  C   UNL     1       2.749   2.687  17.825  0.00  0.00    +0.000 A 
ATOM      5  C   UNL     1       1.995   3.750  18.353  0.00  0.00    +0.000 A 
ATOM      6  C   UNL     1       2.438   5.072  18.205  0.00  0.00    +0.000 A 
ATOM      7  C   UNL     1       1.775   6.219  18.677  0.00  0.00    +0.000 A 
ATOM      8  C   UNL     1       2.316   7.500  18.456  0.00  0.00    +0.000 A 
ATOM      9  C   UNL     1       3.523   7.680  17.763  0.00  0.00    +0.000 A 
ATOM     10  C   UNL     1       4.153   6.528  17.314  0.00  0.00    +0.000 A 
ATOM     11  C   UNL     1       3.630   5.264  17.535  0.00  0.00    +0.000 A 
ATOM     12  S   UNL     1       5.653   6.344  16.404  0.00  0.00    +0.000 S 
ATOM     13  O   UNL     1       6.574   6.905  17.359  0.00  0.00    +0.000 OA
ATOM     14  O   UNL     1       5.246   6.961  15.166  0.00  0.00    +0.000 OA
ENDROOT
BRANCH   1  16
ATOM     15  C   UNL     1       5.928   3.905  14.082  0.00  0.00    +0.000 C 
ATOM     16  C   UNL     1       6.488   3.893  15.491  0.00  0.00    +0.000 C 
ENDBRANCH   1  16
TORSDOF 1
ENDMDL
MODEL 6
REMARK VINA RESULT:      -6.6      2.695      3.634
REMARK  Name = 
REMARK  2 active torsions:
REMARK  status: ('A' for Active; 'I' for Inactive)
REMARK    1  A    between atoms: C_1  and  C_2
REMARK    2  A    between atoms: C_2  and  N_3
REMARK                            x       y       z     vdW  Elec       q    Type
REMARK                         _______ _______ _______ _____ _____    ______ ____
ROOT
ATOM      1  N   UNL     1       3.819   3.284  17.793  0.00  0.00    +0.000 N 
ATOM      2  C   UNL     1       4.742   3.852  16.831  0.00  0.00    +0.000 A 
ATOM      3  C   UNL     1       4.703   3.688  15.448  0.00  0.00    +0.000 A 
ATOM      4  C   UNL     1       5.683   4.351  14.690  0.00  0.00    +0.000 A 
ATOM      5  C   UNL     1       6.675   5.147  15.288  0.00  0.00    +0.000 A 
ATOM      6  C   UNL     1       6.715   5.296  16.682  0.00  0.00    +0.000 A 
ATOM      7  C   UNL     1       7.658   6.054  17.400  0.00  0.00    +0.000 A 
ATOM      8  C   UNL     1       7.602   6.119  18.806  0.00  0.00    +0.000 A 
ATOM      9  C   UNL     1       6.616   5.437  19.536  0.00  0.00    +0.000 A 
ATOM     10  C   UNL     1       5.700   4.702  18.796  0.00  0.00    +0.000 A 
ATOM     11  C   UNL     1       5.745   4.641  17.412  0.00  0.00    +0.000 A 
ATOM     12  S   UNL     1       4.346   3.711  19.341  0.00  0.00    +0.000 S 
ATOM     13  O   UNL     1       3.553   4.731  19.978  0.00  0.00    +0.000 OA
ATOM     14  O   UNL     1       5.082   2.673  20.019  0.00  0.00    +0.000 OA
ENDROOT
BRANCH   1  16
ATOM     15  C   UNL     1       1.601   2.478  18.376  0.00  0.00    +0.000 C 
ATOM     16  C   UNL     1       2.865   2.210  17.582  0.00  0.00    +0.000 C 
ENDBRANCH   1  16
TORSDOF 1
ENDMDL
MODEL 7
REMARK VINA RESULT:      -6.5      2.424      4.834
REMARK  Name = 
REMARK  2 active torsions:
REMARK  status: ('A' for Active; 'I' for Inactive)
REMARK    1  A    between atoms: C_1  and  C_2
REMARK    2  A    between atoms: C_2  and  N_3
REMARK                            x       y       z     vdW  Elec       q    Type
REMARK                         _______ _______ _______ _____ _____    ______ ____
ROOT
ATOM      1  N   UNL     1       4.682   4.168  17.287  0.00  0.00    +0.000 N 
ATOM      2  C   UNL     1       3.542   3.487  17.869  0.00  0.00    +0.000 A 
ATOM      3  C   UNL     1       3.111   2.195  17.574  0.00  0.00    +0.000 A 
ATOM      4  C   UNL     1       1.994   1.711  18.275  0.00  0.00    +0.000 A 
ATOM      5  C   UNL     1       1.323   2.488  19.235  0.00  0.00    +0.000 A 
ATOM      6  C   UNL     1       1.756   3.791  19.517  0.00  0.00    +0.000 A 
ATOM      7  C   UNL     1       1.168   4.671  20.444  0.00  0.00    +0.000 A 
ATOM      8  C   UNL     1       1.689   5.966  20.632  0.00  0.00    +0.000 A 
ATOM      9  C   UNL     1       2.801   6.424  19.908  0.00  0.00    +0.000 A 
ATOM     10  C   UNL     1       3.359   5.531  19.005  0.00  0.00    +0.000 A 
ATOM     11  C   UNL     1       2.855   4.252  18.822  0.00  0.00    +0.000 A 
ATOM     12  S   UNL     1       4.730   5.737  17.915  0.00  0.00    +0.000 S 
ATOM     13  O   UNL     1       5.770   5.954  18.888  0.00  0.00    +0.000 OA
ATOM     14  O   UNL     1       4.177   6.738  17.038  0.00  0.00    +0.000 OA
ENDROOT
BRANCH   1  16
ATOM     15  C   UNL     1       6.816   4.396  16.146  0.00  0.00    +0.000 C 
ATOM     16  C   UNL     1       5.421   3.802  16.093  0.00  0.00    +0.000 C 
ENDBRANCH   1  16
TORSDOF 1
ENDMDL
MODEL 8
REMARK VINA RESULT:      -6.3      2.495      4.136
REMARK  Name = 
REMARK  2 active torsions:
REMARK  status: ('A' for Active; 'I' for Inactive)
REMARK    1  A    between atoms: C_1  and  C_2
REMARK    2  A    between atoms: C_2  and  N_3
REMARK                            x       y       z     vdW  Elec       q    Type
REMARK                         _______ _______ _______ _____ _____    ______ ____
ROOT
ATOM      1  N   UNL     1       5.930   6.164  16.942  0.00  0.00    +0.000 N 
ATOM      2  C   UNL     1       4.577   6.470  17.363  0.00  0.00    +0.000 A 
ATOM      3  C   UNL     1       4.025   7.740  17.519  0.00  0.00    +0.000 A 
ATOM      4  C   UNL     1       2.678   7.815  17.912  0.00  0.00    +0.000 A 
ATOM      5  C   UNL     1       1.905   6.665  18.148  0.00  0.00    +0.000 A 
ATOM      6  C   UNL     1       2.473   5.391  18.001  0.00  0.00    +0.000 A 
ATOM      7  C   UNL     1       1.813   4.167  18.216  0.00  0.00    +0.000 A 
ATOM      8  C   UNL     1       2.495   2.947  18.046  0.00  0.00    +0.000 A 
ATOM      9  C   UNL     1       3.844   2.905  17.662  0.00  0.00    +0.000 A 
ATOM     10  C   UNL     1       4.464   4.129  17.455  0.00  0.00    +0.000 A 
ATOM     11  C   UNL     1       3.796   5.333  17.613  0.00  0.00    +0.000 A 
ATOM     12  S   UNL     1       6.128   4.486  16.991  0.00  0.00    +0.000 S 
ATOM     13  O   UNL     1       6.148   3.854  15.696  0.00  0.00    +0.000 OA
ATOM     14  O   UNL     1       6.803   4.008  18.171  0.00  0.00    +0.000 OA
ENDROOT
BRANCH   1  16
ATOM     15  C   UNL     1       7.770   7.094  18.230  0.00  0.00    +0.000 C 
ATOM     16  C   UNL     1       7.067   7.064  16.886  0.00  0.00    +0.000 C 
ENDBRANCH   1  16
TORSDOF 1
ENDMDL
MODEL 9
REMARK VINA RESULT:      -6.2      1.981      2.941
REMARK  Name = 
REMARK  2 active torsions:
REMARK  status: ('A' for Active; 'I' for Inactive)
REMARK    1  A    between atoms: C_1  and  C_2
REMARK    2  A    between atoms: C_2  and  N_3
REMARK                            x       y       z     vdW  Elec       q    Type
REMARK                         _______ _______ _______ _____ _____    ______ ____
ROOT
ATOM      1  N   UNL     1       4.390   3.441  19.301  0.00  0.00    +0.000 N 
ATOM      2  C   UNL     1       3.378   4.401  19.697  0.00  0.00    +0.000 A 
ATOM      3  C   UNL     1       2.428   4.236  20.703  0.00  0.00    +0.000 A 
ATOM      4  C   UNL     1       1.552   5.308  20.946  0.00  0.00    +0.000 A 
ATOM      5  C   UNL     1       1.614   6.503  20.208  0.00  0.00    +0.000 A 
ATOM      6  C   UNL     1       2.564   6.655  19.189  0.00  0.00    +0.000 A 
ATOM      7  C   UNL     1       2.722   7.792  18.375  0.00  0.00    +0.000 A 
ATOM      8  C   UNL     1       3.710   7.822  17.372  0.00  0.00    +0.000 A 
ATOM      9  C   UNL     1       4.564   6.731  17.147  0.00  0.00    +0.000 A 
ATOM     10  C   UNL     1       4.384   5.628  17.969  0.00  0.00    +0.000 A 
ATOM     11  C   UNL     1       3.419   5.595  18.963  0.00  0.00    +0.000 A 
ATOM     12  S   UNL     1       5.235   4.083  17.985  0.00  0.00    +0.000 S 
ATOM     13  O   UNL     1       6.560   4.550  18.302  0.00  0.00    +0.000 OA
ATOM     14  O   UNL     1       4.806   3.573  16.707  0.00  0.00    +0.000 OA
ENDROOT
BRANCH   1  16
ATOM     15  C   UNL     1       3.573   1.237  18.681  0.00  0.00    +0.000 C 
ATOM     16  C   UNL     1       4.451   2.029  19.631  0.00  0.00    +0.000 C 
ENDBRANCH   1  16
TORSDOF 1
ENDMDL
