MODEL 1
REMARK VINA RESULT:      -7.7      0.000      0.000
REMARK  Name = 
REMARK  4 active torsions:
REMARK  status: ('A' for Active; 'I' for Inactive)
REMARK    1  A    between atoms: C_2  and  C_16
REMARK    2  A    between atoms: N_3  and  C_4
REMARK    3  A    between atoms: C_4  and  C_5
REMARK    4  A    between atoms: C_5  and  O_7
REMARK                            x       y       z     vdW  Elec       q    Type
REMARK                         _______ _______ _______ _____ _____    ______ ____
ROOT
ATOM      1  O   UNL     1       2.982   7.689  17.251  0.00  0.00    +0.000 OA
ATOM      2  C   UNL     1       2.933   7.326  18.422  0.00  0.00    +0.000 C 
ATOM      3  N   UNL     1       3.720   6.314  18.925  0.00  0.00    +0.000 N 
ATOM      4  H   UNL     1       3.797   6.235  19.944  0.00  0.00    +0.000 HD
ENDROOT
BRANCH   2   5
ATOM      5  C   UNL     1       1.989   7.995  19.363  0.00  0.00    +0.000 A 
ATOM      6  C   UNL     1       1.619   7.244  20.492  0.00  0.00    +0.000 A 
ATOM      7  C   UNL     1       0.800   7.794  21.473  0.00  0.00    +0.000 A 
ATOM      8  C   UNL     1       0.348   9.100  21.332  0.00  0.00    +0.000 A 
ATOM      9  C   UNL     1       0.707   9.870  20.211  0.00  0.00    +0.000 A 
ATOM     10  C   UNL     1       1.565   9.337  19.222  0.00  0.00    +0.000 A 
ATOM     11  N   UNL     1       1.886  10.101  18.079  0.00  0.00    +0.000 N 
ATOM     12  C   UNL     1       1.794  11.548  18.227  0.00  0.00    +0.000 C 
ATOM     13  C   UNL     1       0.435  11.935  18.782  0.00  0.00    +0.000 C 
ATOM     14  C   UNL     1       0.242  11.305  20.154  0.00  0.00    +0.000 C 
ATOM     15  H   UNL     1       2.782   9.819  17.682  0.00  0.00    +0.000 HD
ENDBRANCH   2   5
BRANCH   3  16
ATOM     16  C   UNL     1       4.703   5.560  18.119  0.00  0.00    +0.000 C 
ATOM     17  C   UNL     1       4.026   4.633  17.068  0.00  0.00    +0.000 C 
ATOM     18  C   UNL     1       5.058   4.615  15.976  0.00  0.00    +0.000 A 
ATOM     19  C   UNL     1       5.170   3.718  14.929  0.00  0.00    +0.000 A 
ATOM     20  C   UNL     1       6.253   3.850  14.058  0.00  0.00    +0.000 A 
ATOM     21  C   UNL     1       7.191   4.878  14.233  0.00  0.00    +0.000 A 
ATOM     22  C   UNL     1       7.059   5.793  15.278  0.00  0.00    +0.000 A 
ATOM     23  C   UNL     1       5.993   5.643  16.146  0.00  0.00    +0.000 A 
ATOM     24  C   UNL     1       5.668   6.486  17.341  0.00  0.00    +0.000 C 
BRANCH  16  25
ATOM     25  C   UNL     1       5.539   4.744  19.147  0.00  0.00    +0.000 C 
ATOM     26  O   UNL     1       6.456   5.247  19.790  0.00  0.00    +0.000 OA
BRANCH  25  27
ATOM     27  O   UNL     1       5.250   3.430  19.287  0.00  0.00    +0.000 OA
ATOM     28  H   UNL     1       5.616   2.825  18.611  0.00  0.00    +0.000 HD
ENDBRANCH  25  27
ENDBRANCH  16  25
ENDBRANCH   3  16
TORSDOF 4
ENDMDL
MODEL 2
REMARK VINA RESULT:      -7.7      1.811      2.495
REMARK  Name = 
REMARK  4 active torsions:
REMARK  status: ('A' for Active; 'I' for Inactive)
REMARK    1  A    between atoms: C_2  and  C_16
REMARK    2  A    between atoms: N_3  and  C_4
REMARK    3  A    between atoms: C_4  and  C_5
REMARK    4  A    between atoms: C_5  and  O_7
REMARK                            x       y       z     vdW  Elec       q    Type
REMARK                         _______ _______ _______ _____ _____    ______ ____
ROOT
ATOM      1  O   UNL     1       2.165   8.737  18.332  0.00  0.00    +0.000 OA
ATOM      2  C   UNL     1       1.859   8.199  19.390  0.00  0.00    +0.000 C 
ATOM      3  N   UNL     1       2.234   6.914  19.712  0.00  0.00    +0.000 N 
ATOM      4  H   UNL     1       2.152   6.628  20.693  0.00  0.00    +0.000 HD
ENDROOT
BRANCH   2   5
ATOM      5  C   UNL     1       1.046   8.949  20.391  0.00  0.00    +0.000 A 
ATOM      6  C   UNL     1       1.291   8.629  21.738  0.00  0.00    +0.000 A 
ATOM      7  C   UNL     1       0.642   9.315  22.759  0.00  0.00    +0.000 A 
ATOM      8  C   UNL     1      -0.254  10.328  22.440  0.00  0.00    +0.000 A 
ATOM      9  C   UNL     1      -0.512  10.666  21.100  0.00  0.00    +0.000 A 
ATOM     10  C   UNL     1       0.163  10.000  20.052  0.00  0.00    +0.000 A 
ATOM     11  N   UNL     1      -0.134  10.316  18.707  0.00  0.00    +0.000 N 
ATOM     12  C   UNL     1      -0.675  11.647  18.465  0.00  0.00    +0.000 C 
ATOM     13  C   UNL     1      -1.869  11.902  19.365  0.00  0.00    +0.000 C 
ATOM     14  C   UNL     1      -1.440  11.823  20.824  0.00  0.00    +0.000 C 
ATOM     15  H   UNL     1       0.655  10.111  18.095  0.00  0.00    +0.000 HD
ENDBRANCH   2   5
BRANCH   3  16
ATOM     16  C   UNL     1       3.041   6.047  18.827  0.00  0.00    +0.000 C 
ATOM     17  C   UNL     1       3.440   6.756  17.501  0.00  0.00    +0.000 C 
ATOM     18  C   UNL     1       4.752   6.093  17.190  0.00  0.00    +0.000 A 
ATOM     19  C   UNL     1       5.428   6.073  15.983  0.00  0.00    +0.000 A 
ATOM     20  C   UNL     1       6.610   5.336  15.899  0.00  0.00    +0.000 A 
ATOM     21  C   UNL     1       7.106   4.649  17.017  0.00  0.00    +0.000 A 
ATOM     22  C   UNL     1       6.431   4.693  18.238  0.00  0.00    +0.000 A 
ATOM     23  C   UNL     1       5.252   5.412  18.306  0.00  0.00    +0.000 A 
ATOM     24  C   UNL     1       4.355   5.577  19.495  0.00  0.00    +0.000 C 
BRANCH  16  25
ATOM     25  C   UNL     1       2.157   4.794  18.562  0.00  0.00    +0.000 C 
ATOM     26  O   UNL     1       1.480   4.674  17.545  0.00  0.00    +0.000 OA
BRANCH  25  27
ATOM     27  O   UNL     1       2.123   3.839  19.520  0.00  0.00    +0.000 OA
ATOM     28  H   UNL     1       1.270   3.377  19.650  0.00  0.00    +0.000 HD
ENDBRANCH  25  27
ENDBRANCH  16  25
ENDBRANCH   3  16
TORSDOF 4
ENDMDL
MODEL 3
REMARK VINA RESULT:      -7.5      1.573      2.186
REMARK  Name = 
REMARK  4 active torsions:
REMARK  status: ('A' for Active; 'I' for Inactive)
REMARK    1  A    between atoms: C_2  and  C_16
REMARK    2  A    between atoms: N_3  and  C_4
REMARK    3  A    between atoms: C_4  and  C_5
REMARK    4  A    between atoms: C_5  and  O_7
REMARK                            x       y       z     vdW  Elec       q    Type
REMARK                         _______ _______ _______ _____ _____    ______ ____
ROOT
ATOM      1  O   UNL     1       1.733   8.297  17.890  0.00  0.00    +0.000 OA
ATOM      2  C   UNL     1       1.847   8.088  19.093  0.00  0.00    +0.000 C 
ATOM      3  N   UNL     1       2.609   7.061  19.604  0.00  0.00    +0.000 N 
ATOM      4  H   UNL     1       2.848   7.099  20.600  0.00  0.00    +0.000 HD
ENDROOT
BRANCH   2   5
ATOM      5  C   UNL     1       1.140   8.970  20.066  0.00  0.00    +0.000 A 
ATOM      6  C   UNL     1       0.808   8.377  21.297  0.00  0.00    +0.000 A 
ATOM      7  C   UNL     1       0.211   9.125  22.306  0.00  0.00    +0.000 A 
ATOM      8  C   UNL     1      -0.056  10.472  22.092  0.00  0.00    +0.000 A 
ATOM      9  C   UNL     1       0.269  11.085  20.869  0.00  0.00    +0.000 A 
ATOM     10  C   UNL     1       0.906  10.347  19.846  0.00  0.00    +0.000 A 
ATOM     11  N   UNL     1       1.190  10.960  18.605  0.00  0.00    +0.000 N 
ATOM     12  C   UNL     1       1.334  12.410  18.623  0.00  0.00    +0.000 C 
ATOM     13  C   UNL     1       0.130  13.050  19.288  0.00  0.00    +0.000 C 
ATOM     14  C   UNL     1       0.019  12.567  20.728  0.00  0.00    +0.000 C 
ATOM     15  H   UNL     1       1.976  10.508  18.139  0.00  0.00    +0.000 HD
ENDBRANCH   2   5
BRANCH   3  16
ATOM     16  C   UNL     1       3.369   6.107  18.769  0.00  0.00    +0.000 C 
ATOM     17  C   UNL     1       3.713   6.685  17.366  0.00  0.00    +0.000 C 
ATOM     18  C   UNL     1       5.005   5.981  17.060  0.00  0.00    +0.000 A 
ATOM     19  C   UNL     1       5.624   5.841  15.832  0.00  0.00    +0.000 A 
ATOM     20  C   UNL     1       6.796   5.086  15.764  0.00  0.00    +0.000 A 
ATOM     21  C   UNL     1       7.337   4.501  16.919  0.00  0.00    +0.000 A 
ATOM     22  C   UNL     1       6.720   4.667  18.158  0.00  0.00    +0.000 A 
ATOM     23  C   UNL     1       5.549   5.401  18.212  0.00  0.00    +0.000 A 
ATOM     24  C   UNL     1       4.709   5.687  19.419  0.00  0.00    +0.000 C 
BRANCH  16  25
ATOM     25  C   UNL     1       2.466   4.845  18.662  0.00  0.00    +0.000 C 
ATOM     26  O   UNL     1       2.524   3.928  19.478  0.00  0.00    +0.000 OA
BRANCH  25  27
ATOM     27  O   UNL     1       1.627   4.762  17.604  0.00  0.00    +0.000 OA
ATOM     28  H   UNL     1       1.380   3.863  17.308  0.00  0.00    +0.000 HD
ENDBRANCH  25  27
ENDBRANCH  16  25
ENDBRANCH   3  16
TORSDOF 4
ENDMDL
MODEL 4
REMARK VINA RESULT:      -7.4      1.766      2.307
REMARK  Name = 
REMARK  4 active torsions:
REMARK  status: ('A' for Active; 'I' for Inactive)
REMARK    1  A    between atoms: C_2  and  C_16
REMARK    2  A    between atoms: N_3  and  C_4
REMARK    3  A    between atoms: C_4  and  C_5
REMARK    4  A    between atoms: C_5  and  O_7
REMARK                            x       y       z     vdW  Elec       q    Type
REMARK                         _______ _______ _______ _____ _____    ______ ____
ROOT
ATOM      1  O   UNL     1       2.464   8.176  18.687  0.00  0.00    +0.000 OA
ATOM      2  C   UNL     1       1.971   7.758  19.729  0.00  0.00    +0.000 C 
ATOM      3  N   UNL     1       2.165   6.473  20.185  0.00  0.00    +0.000 N 
ATOM      4  H   UNL     1       1.929   6.277  21.163  0.00  0.00    +0.000 HD
ENDROOT
BRANCH   2   5
ATOM      5  C   UNL     1       1.123   8.662  20.559  0.00  0.00    +0.000 A 
ATOM      6  C   UNL     1       1.251   8.509  21.950  0.00  0.00    +0.000 A 
ATOM      7  C   UNL     1       0.561   9.346  22.822  0.00  0.00    +0.000 A 
ATOM      8  C   UNL     1      -0.259  10.343  22.307  0.00  0.00    +0.000 A 
ATOM      9  C   UNL     1      -0.399  10.514  20.919  0.00  0.00    +0.000 A 
ATOM     10  C   UNL     1       0.319   9.693  20.020  0.00  0.00    +0.000 A 
ATOM     11  N   UNL     1       0.140   9.844  18.627  0.00  0.00    +0.000 N 
ATOM     12  C   UNL     1      -0.317  11.152  18.177  0.00  0.00    +0.000 C 
ATOM     13  C   UNL     1      -1.562  11.566  18.939  0.00  0.00    +0.000 C 
ATOM     14  C   UNL     1      -1.248  11.661  20.425  0.00  0.00    +0.000 C 
ATOM     15  H   UNL     1       0.961   9.531  18.110  0.00  0.00    +0.000 HD
ENDBRANCH   2   5
BRANCH   3  16
ATOM     16  C   UNL     1       2.980   5.464  19.477  0.00  0.00    +0.000 C 
ATOM     17  C   UNL     1       2.675   5.415  17.952  0.00  0.00    +0.000 C 
ATOM     18  C   UNL     1       4.004   4.989  17.394  0.00  0.00    +0.000 A 
ATOM     19  C   UNL     1       4.270   4.469  16.140  0.00  0.00    +0.000 A 
ATOM     20  C   UNL     1       5.579   4.076  15.852  0.00  0.00    +0.000 A 
ATOM     21  C   UNL     1       6.597   4.225  16.805  0.00  0.00    +0.000 A 
ATOM     22  C   UNL     1       6.325   4.772  18.059  0.00  0.00    +0.000 A 
ATOM     23  C   UNL     1       5.023   5.141  18.342  0.00  0.00    +0.000 A 
ATOM     24  C   UNL     1       4.499   5.723  19.620  0.00  0.00    +0.000 C 
BRANCH  16  25
ATOM     25  C   UNL     1       2.652   4.110  20.170  0.00  0.00    +0.000 C 
ATOM     26  O   UNL     1       2.562   3.059  19.542  0.00  0.00    +0.000 OA
BRANCH  25  27
ATOM     27  O   UNL     1       2.424   4.128  21.503  0.00  0.00    +0.000 OA
ATOM     28  H   UNL     1       2.020   3.326  21.891  0.00  0.00    +0.000 HD
ENDBRANCH  25  27
ENDBRANCH  16  25
ENDBRANCH   3  16
TORSDOF 4
ENDMDL
MODEL 5
REMARK VINA RESULT:      -7.3      2.866      8.463
REMARK  Name = 
REMARK  4 active torsions:
REMARK  status: ('A' for Active; 'I' for Inactive)
REMARK    1  A    between atoms: C_2  and  C_16
REMARK    2  A    between atoms: N_3  and  C_4
REMARK    3  A    between atoms: C_4  and  C_5
REMARK    4  A    between atoms: C_5  and  O_7
REMARK                            x       y       z     vdW  Elec       q    Type
REMARK                         _______ _______ _______ _____ _____    ______ ____
ROOT
ATOM      1  O   UNL     1       1.651   8.416  20.924  0.00  0.00    +0.000 OA
ATOM      2  C   UNL     1       1.673   8.393  19.698  0.00  0.00    +0.000 C 
ATOM      3  N   UNL     1       1.028   9.329  18.921  0.00  0.00    +0.000 N 
ATOM      4  H   UNL     1       1.290   9.386  17.931  0.00  0.00    +0.000 HD
ENDROOT
BRANCH   2   5
ATOM      5  C   UNL     1       2.428   7.317  18.993  0.00  0.00    +0.000 A 
ATOM      6  C   UNL     1       3.186   7.730  17.884  0.00  0.00    +0.000 A 
ATOM      7  C   UNL     1       3.986   6.825  17.194  0.00  0.00    +0.000 A 
ATOM      8  C   UNL     1       4.033   5.499  17.611  0.00  0.00    +0.000 A 
ATOM      9  C   UNL     1       3.284   5.065  18.718  0.00  0.00    +0.000 A 
ATOM     10  C   UNL     1       2.492   5.980  19.449  0.00  0.00    +0.000 A 
ATOM     11  N   UNL     1       1.710   5.527  20.535  0.00  0.00    +0.000 N 
ATOM     12  C   UNL     1       2.165   4.307  21.189  0.00  0.00    +0.000 C 
ATOM     13  C   UNL     1       2.373   3.207  20.165  0.00  0.00    +0.000 C 
ATOM     14  C   UNL     1       3.437   3.631  19.163  0.00  0.00    +0.000 C 
ATOM     15  H   UNL     1       1.538   6.275  21.206  0.00  0.00    +0.000 HD
ENDBRANCH   2   5
BRANCH   3  16
ATOM     16  C   UNL     1       0.244  10.455  19.471  0.00  0.00    +0.000 C 
ATOM     17  C   UNL     1      -0.533  10.066  20.762  0.00  0.00    +0.000 C 
ATOM     18  C   UNL     1      -0.570  11.376  21.496  0.00  0.00    +0.000 A 
ATOM     19  C   UNL     1      -1.394  11.736  22.547  0.00  0.00    +0.000 A 
ATOM     20  C   UNL     1      -1.303  13.038  23.042  0.00  0.00    +0.000 A 
ATOM     21  C   UNL     1      -0.386  13.949  22.496  0.00  0.00    +0.000 A 
ATOM     22  C   UNL     1       0.458  13.571  21.451  0.00  0.00    +0.000 A 
ATOM     23  C   UNL     1       0.348  12.284  20.956  0.00  0.00    +0.000 A 
ATOM     24  C   UNL     1       1.128  11.672  19.833  0.00  0.00    +0.000 C 
BRANCH  16  25
ATOM     25  C   UNL     1      -0.722  10.881  18.328  0.00  0.00    +0.000 C 
ATOM     26  O   UNL     1      -1.477  10.084  17.778  0.00  0.00    +0.000 OA
BRANCH  25  27
ATOM     27  O   UNL     1      -0.678  12.170  17.919  0.00  0.00    +0.000 OA
ATOM     28  H   UNL     1      -0.926  12.849  18.578  0.00  0.00    +0.000 HD
ENDBRANCH  25  27
ENDBRANCH  16  25
ENDBRANCH   3  16
TORSDOF 4
ENDMDL
MODEL 6
REMARK VINA RESULT:      -7.3      2.688      8.137
REMARK  Name = 
REMARK  4 active torsions:
REMARK  status: ('A' for Active; 'I' for Inactive)
REMARK    1  A    between atoms: C_2  and  C_16
REMARK    2  A    between atoms: N_3  and  C_4
REMARK    3  A    between atoms: C_4  and  C_5
REMARK    4  A    between atoms: C_5  and  O_7
REMARK                            x       y       z     vdW  Elec       q    Type
REMARK                         _______ _______ _______ _____ _____    ______ ____
ROOT
ATOM      1  O   UNL     1       1.567   8.051  20.573  0.00  0.00    +0.000 OA
ATOM      2  C   UNL     1       1.917   8.054  19.397  0.00  0.00    +0.000 C 
ATOM      3  N   UNL     1       1.659   9.103  18.543  0.00  0.00    +0.000 N 
ATOM      4  H   UNL     1       2.185   9.138  17.664  0.00  0.00    +0.000 HD
ENDROOT
BRANCH   2   5
ATOM      5  C   UNL     1       2.658   6.883  18.845  0.00  0.00    +0.000 A 
ATOM      6  C   UNL     1       3.509   7.157  17.760  0.00  0.00    +0.000 A 
ATOM      7  C   UNL     1       4.303   6.156  17.210  0.00  0.00    +0.000 A 
ATOM      8  C   UNL     1       4.252   4.873  17.744  0.00  0.00    +0.000 A 
ATOM      9  C   UNL     1       3.409   4.578  18.829  0.00  0.00    +0.000 A 
ATOM     10  C   UNL     1       2.620   5.592  19.420  0.00  0.00    +0.000 A 
ATOM     11  N   UNL     1       1.745   5.277  20.483  0.00  0.00    +0.000 N 
ATOM     12  C   UNL     1       2.089   4.102  21.272  0.00  0.00    +0.000 C 
ATOM     13  C   UNL     1       2.305   2.904  20.366  0.00  0.00    +0.000 C 
ATOM     14  C   UNL     1       3.454   3.184  19.407  0.00  0.00    +0.000 C 
ATOM     15  H   UNL     1       1.569   6.090  21.072  0.00  0.00    +0.000 HD
ENDBRANCH   2   5
BRANCH   3  16
ATOM     16  C   UNL     1       0.940  10.330  18.943  0.00  0.00    +0.000 C 
ATOM     17  C   UNL     1      -0.474  10.429  18.300  0.00  0.00    +0.000 C 
ATOM     18  C   UNL     1      -1.226  11.202  19.346  0.00  0.00    +0.000 A 
ATOM     19  C   UNL     1      -2.429  11.870  19.206  0.00  0.00    +0.000 A 
ATOM     20  C   UNL     1      -2.920  12.583  20.301  0.00  0.00    +0.000 A 
ATOM     21  C   UNL     1      -2.217  12.604  21.515  0.00  0.00    +0.000 A 
ATOM     22  C   UNL     1      -1.017  11.908  21.655  0.00  0.00    +0.000 A 
ATOM     23  C   UNL     1      -0.529  11.220  20.560  0.00  0.00    +0.000 A 
ATOM     24  C   UNL     1       0.741  10.429  20.474  0.00  0.00    +0.000 C 
BRANCH  16  25
ATOM     25  C   UNL     1       1.855  11.507  18.497  0.00  0.00    +0.000 C 
ATOM     26  O   UNL     1       1.995  12.521  19.177  0.00  0.00    +0.000 OA
BRANCH  25  27
ATOM     27  O   UNL     1       2.472  11.402  17.298  0.00  0.00    +0.000 OA
ATOM     28  H   UNL     1       1.993  11.759  16.524  0.00  0.00    +0.000 HD
ENDBRANCH  25  27
ENDBRANCH  16  25
ENDBRANCH   3  16
TORSDOF 4
ENDMDL
MODEL 7
REMARK VINA RESULT:      -7.2      0.974      1.124
REMARK  Name = 
REMARK  4 active torsions:
REMARK  status: ('A' for Active; 'I' for Inactive)
REMARK    1  A    between atoms: C_2  and  C_16
REMARK    2  A    between atoms: N_3  and  C_4
REMARK    3  A    between atoms: C_4  and  C_5
REMARK    4  A    between atoms: C_5  and  O_7
REMARK                            x       y       z     vdW  Elec       q    Type
REMARK                         _______ _______ _______ _____ _____    ______ ____
ROOT
ATOM      1  O   UNL     1       2.920   7.954  17.791  0.00  0.00    +0.000 OA
ATOM      2  C   UNL     1       2.559   7.535  18.886  0.00  0.00    +0.000 C 
ATOM      3  N   UNL     1       2.987   6.333  19.404  0.00  0.00    +0.000 N 
ATOM      4  H   UNL     1       2.840   6.170  20.405  0.00  0.00    +0.000 HD
ENDROOT
BRANCH   2   5
ATOM      5  C   UNL     1       1.619   8.345  19.713  0.00  0.00    +0.000 A 
ATOM      6  C   UNL     1       1.135   7.719  20.875  0.00  0.00    +0.000 A 
ATOM      7  C   UNL     1       0.308   8.404  21.758  0.00  0.00    +0.000 A 
ATOM      8  C   UNL     1      -0.040   9.722  21.486  0.00  0.00    +0.000 A 
ATOM      9  C   UNL     1       0.434  10.368  20.331  0.00  0.00    +0.000 A 
ATOM     10  C   UNL     1       1.302   9.696  19.440  0.00  0.00    +0.000 A 
ATOM     11  N   UNL     1       1.739  10.337  18.260  0.00  0.00    +0.000 N 
ATOM     12  C   UNL     1       1.745  11.794  18.286  0.00  0.00    +0.000 C 
ATOM     13  C   UNL     1       0.392  12.319  18.727  0.00  0.00    +0.000 C 
ATOM     14  C   UNL     1       0.080  11.822  20.132  0.00  0.00    +0.000 C 
ATOM     15  H   UNL     1       2.631   9.961  17.941  0.00  0.00    +0.000 HD
ENDBRANCH   2   5
BRANCH   3  16
ATOM     16  C   UNL     1       3.919   5.423  18.707  0.00  0.00    +0.000 C 
ATOM     17  C   UNL     1       3.444   5.071  17.267  0.00  0.00    +0.000 C 
ATOM     18  C   UNL     1       4.754   4.856  16.563  0.00  0.00    +0.000 A 
ATOM     19  C   UNL     1       4.975   4.215  15.358  0.00  0.00    +0.000 A 
ATOM     20  C   UNL     1       6.291   4.070  14.917  0.00  0.00    +0.000 A 
ATOM     21  C   UNL     1       7.358   4.579  15.672  0.00  0.00    +0.000 A 
ATOM     22  C   UNL     1       7.127   5.245  16.875  0.00  0.00    +0.000 A 
ATOM     23  C   UNL     1       5.821   5.368  17.312  0.00  0.00    +0.000 A 
ATOM     24  C   UNL     1       5.341   6.018  18.574  0.00  0.00    +0.000 C 
BRANCH  16  25
ATOM     25  C   UNL     1       4.006   4.155  19.606  0.00  0.00    +0.000 C 
ATOM     26  O   UNL     1       5.012   3.452  19.648  0.00  0.00    +0.000 OA
BRANCH  25  27
ATOM     27  O   UNL     1       2.909   3.819  20.322  0.00  0.00    +0.000 OA
ATOM     28  H   UNL     1       2.123   4.392  20.218  0.00  0.00    +0.000 HD
ENDBRANCH  25  27
ENDBRANCH  16  25
ENDBRANCH   3  16
TORSDOF 4
ENDMDL
MODEL 8
REMARK VINA RESULT:      -7.2      2.161      3.803
REMARK  Name = 
REMARK  4 active torsions:
REMARK  status: ('A' for Active; 'I' for Inactive)
REMARK    1  A    between atoms: C_2  and  C_16
REMARK    2  A    between atoms: N_3  and  C_4
REMARK    3  A    between atoms: C_4  and  C_5
REMARK    4  A    between atoms: C_5  and  O_7
REMARK                            x       y       z     vdW  Elec       q    Type
REMARK                         _______ _______ _______ _____ _____    ______ ____
ROOT
ATOM      1  O   UNL     1       1.634   6.781  20.307  0.00  0.00    +0.000 OA
ATOM      2  C   UNL     1       2.007   7.633  19.506  0.00  0.00    +0.000 C 
ATOM      3  N   UNL     1       2.932   7.377  18.519  0.00  0.00    +0.000 N 
ATOM      4  H   UNL     1       3.007   8.054  17.753  0.00  0.00    +0.000 HD
ENDROOT
BRANCH   2   5
ATOM      5  C   UNL     1       1.447   9.013  19.583  0.00  0.00    +0.000 A 
ATOM      6  C   UNL     1       1.625   9.807  18.437  0.00  0.00    +0.000 A 
ATOM      7  C   UNL     1       1.082  11.086  18.369  0.00  0.00    +0.000 A 
ATOM      8  C   UNL     1       0.356  11.579  19.446  0.00  0.00    +0.000 A 
ATOM      9  C   UNL     1       0.165  10.801  20.602  0.00  0.00    +0.000 A 
ATOM     10  C   UNL     1       0.682   9.488  20.674  0.00  0.00    +0.000 A 
ATOM     11  N   UNL     1       0.522   8.728  21.854  0.00  0.00    +0.000 N 
ATOM     12  C   UNL     1      -0.608   9.090  22.701  0.00  0.00    +0.000 C 
ATOM     13  C   UNL     1      -0.585  10.576  23.003  0.00  0.00    +0.000 C 
ATOM     14  C   UNL     1      -0.694  11.367  21.707  0.00  0.00    +0.000 C 
ATOM     15  H   UNL     1       0.543   7.728  21.659  0.00  0.00    +0.000 HD
ENDBRANCH   2   5
BRANCH   3  16
ATOM     16  C   UNL     1       3.573   6.061  18.315  0.00  0.00    +0.000 C 
ATOM     17  C   UNL     1       4.018   5.400  19.651  0.00  0.00    +0.000 C 
ATOM     18  C   UNL     1       3.890   3.940  19.321  0.00  0.00    +0.000 A 
ATOM     19  C   UNL     1       4.444   2.866  19.995  0.00  0.00    +0.000 A 
ATOM     20  C   UNL     1       4.250   1.587  19.473  0.00  0.00    +0.000 A 
ATOM     21  C   UNL     1       3.497   1.397  18.304  0.00  0.00    +0.000 A 
ATOM     22  C   UNL     1       2.922   2.483  17.643  0.00  0.00    +0.000 A 
ATOM     23  C   UNL     1       3.135   3.748  18.158  0.00  0.00    +0.000 A 
ATOM     24  C   UNL     1       2.639   5.050  17.607  0.00  0.00    +0.000 C 
BRANCH  16  25
ATOM     25  C   UNL     1       4.786   6.335  17.380  0.00  0.00    +0.000 C 
ATOM     26  O   UNL     1       4.649   6.585  16.185  0.00  0.00    +0.000 OA
BRANCH  25  27
ATOM     27  O   UNL     1       6.024   6.247  17.919  0.00  0.00    +0.000 OA
ATOM     28  H   UNL     1       6.078   6.227  18.895  0.00  0.00    +0.000 HD
ENDBRANCH  25  27
ENDBRANCH  16  25
ENDBRANCH   3  16
TORSDOF 4
ENDMDL
MODEL 9
REMARK VINA RESULT:      -7.1      2.636      7.752
REMARK  Name = 
REMARK  4 active torsions:
REMARK  status: ('A' for Active; 'I' for Inactive)
REMARK    1  A    between atoms: C_2  and  C_16
REMARK    2  A    between atoms: N_3  and  C_4
REMARK    3  A    between atoms: C_4  and  C_5
REMARK    4  A    between atoms: C_5  and  O_7
REMARK                            x       y       z     vdW  Elec       q    Type
REMARK                         _______ _______ _______ _____ _____    ______ ____
ROOT
ATOM      1  O   UNL     1       1.912   8.369  18.820  0.00  0.00    +0.000 OA
ATOM      2  C   UNL     1       1.906   7.641  19.808  0.00  0.00    +0.000 C 
ATOM      3  N   UNL     1       1.339   8.012  21.006  0.00  0.00    +0.000 N 
ATOM      4  H   UNL     1       1.160   7.274  21.694  0.00  0.00    +0.000 HD
ENDROOT
BRANCH   2   5
ATOM      5  C   UNL     1       2.533   6.290  19.733  0.00  0.00    +0.000 A 
ATOM      6  C   UNL     1       2.013   5.327  20.615  0.00  0.00    +0.000 A 
ATOM      7  C   UNL     1       2.472   4.015  20.584  0.00  0.00    +0.000 A 
ATOM      8  C   UNL     1       3.453   3.655  19.668  0.00  0.00    +0.000 A 
ATOM      9  C   UNL     1       3.985   4.602  18.774  0.00  0.00    +0.000 A 
ATOM     10  C   UNL     1       3.506   5.931  18.772  0.00  0.00    +0.000 A 
ATOM     11  N   UNL     1       4.076   6.886  17.900  0.00  0.00    +0.000 N 
ATOM     12  C   UNL     1       4.706   6.360  16.696  0.00  0.00    +0.000 C 
ATOM     13  C   UNL     1       5.707   5.278  17.055  0.00  0.00    +0.000 C 
ATOM     14  C   UNL     1       4.995   4.130  17.756  0.00  0.00    +0.000 C 
ATOM     15  H   UNL     1       3.417   7.634  17.686  0.00  0.00    +0.000 HD
ENDBRANCH   2   5
BRANCH   3  16
ATOM     16  C   UNL     1       0.679   9.315  21.235  0.00  0.00    +0.000 C 
ATOM     17  C   UNL     1       1.648  10.517  21.039  0.00  0.00    +0.000 C 
ATOM     18  C   UNL     1       0.707  11.588  20.566  0.00  0.00    +0.000 A 
ATOM     19  C   UNL     1       0.923  12.953  20.534  0.00  0.00    +0.000 A 
ATOM     20  C   UNL     1      -0.122  13.778  20.113  0.00  0.00    +0.000 A 
ATOM     21  C   UNL     1      -1.350  13.230  19.715  0.00  0.00    +0.000 A 
ATOM     22  C   UNL     1      -1.552  11.850  19.727  0.00  0.00    +0.000 A 
ATOM     23  C   UNL     1      -0.518  11.043  20.164  0.00  0.00    +0.000 A 
ATOM     24  C   UNL     1      -0.518   9.549  20.282  0.00  0.00    +0.000 C 
BRANCH  16  25
ATOM     25  C   UNL     1       0.134   9.251  22.691  0.00  0.00    +0.000 C 
ATOM     26  O   UNL     1       0.724   9.771  23.634  0.00  0.00    +0.000 OA
BRANCH  25  27
ATOM     27  O   UNL     1      -1.008   8.557  22.901  0.00  0.00    +0.000 OA
ATOM     28  H   UNL     1      -1.686   8.986  23.461  0.00  0.00    +0.000 HD
ENDBRANCH  25  27
ENDBRANCH  16  25
ENDBRANCH   3  16
TORSDOF 4
ENDMDL
