MODEL 1
REMARK VINA RESULT:      -6.5      0.000      0.000
REMARK  Name = 
REMARK  4 active torsions:
REMARK  status: ('A' for Active; 'I' for Inactive)
REMARK    1  A    between atoms: C_1  and  C_2
REMARK    2  A    between atoms: C_2  and  C_3
REMARK    3  A    between atoms: C_3  and  N_4
REMARK    4  A    between atoms: C_16  and  C_17
REMARK                            x       y       z     vdW  Elec       q    Type
REMARK                         _______ _______ _______ _____ _____    ______ ____
ROOT
ATOM      1  C   UNL     1       2.212   5.471  19.400  0.00  0.00    +0.000 C 
ATOM      2  C   UNL     1       2.203   6.473  18.214  0.00  0.00    +0.000 C 
ATOM      3  C   UNL     1       2.575   7.911  18.586  0.00  0.00    +0.000 C 
ATOM      4  N   UNL     1       1.779   8.349  19.717  0.00  0.00    +0.000 N 
ATOM      5  C   UNL     1       0.872   9.364  19.662  0.00  0.00    +0.000 A 
ATOM      6  N   UNL     1       0.463  10.021  20.727  0.00  0.00    +0.000 NA
ATOM      7  C   UNL     1      -0.432  11.015  20.390  0.00  0.00    +0.000 A 
ATOM      8  C   UNL     1      -0.767  11.082  19.057  0.00  0.00    +0.000 A 
ATOM      9  S   UNL     1       0.104   9.889  18.197  0.00  0.00    +0.000 S 
ATOM     10  C   UNL     1       1.911   7.553  20.929  0.00  0.00    +0.000 C 
ATOM     11  C   UNL     1       1.460   6.121  20.612  0.00  0.00    +0.000 C 
ENDROOT
BRANCH   1  12
ATOM     12  N   UNL     1       1.598   4.145  19.055  0.00  0.00    +0.000 NA
ATOM     13  C   UNL     1       1.970   2.970  19.873  0.00  0.00    +0.000 C 
ATOM     14  C   UNL     1       3.218   2.209  19.390  0.00  0.00    +0.000 C 
ATOM     15  O   UNL     1       3.094   1.799  18.025  0.00  0.00    +0.000 OA
ATOM     16  C   UNL     1       2.819   2.914  17.171  0.00  0.00    +0.000 C 
ATOM     17  C   UNL     1       1.583   3.703  17.640  0.00  0.00    +0.000 C 
ENDBRANCH   1  12
BRANCH   8  18
ATOM     18  C   UNL     1      -1.715  11.991  18.380  0.00  0.00    +0.000 C 
ATOM     19  F   UNL     1      -2.588  12.556  19.255  0.00  0.00    +0.000 F 
ATOM     20  F   UNL     1      -1.087  13.015  17.746  0.00  0.00    +0.000 F 
ATOM     21  F   UNL     1      -2.465  11.350  17.448  0.00  0.00    +0.000 F 
ENDBRANCH   8  18
BRANCH   1  23
ATOM     22  C   UNL     1       4.756   5.460  18.708  0.00  0.00    +0.000 C 
ATOM     23  C   UNL     1       3.721   5.250  19.810  0.00  0.00    +0.000 C 
ENDBRANCH   1  23
TORSDOF 3
ENDMDL
MODEL 2
REMARK VINA RESULT:      -6.2      0.936      1.329
REMARK  Name = 
REMARK  4 active torsions:
REMARK  status: ('A' for Active; 'I' for Inactive)
REMARK    1  A    between atoms: C_1  and  C_2
REMARK    2  A    between atoms: C_2  and  C_3
REMARK    3  A    between atoms: C_3  and  N_4
REMARK    4  A    between atoms: C_16  and  C_17
REMARK                            x       y       z     vdW  Elec       q    Type
REMARK                         _______ _______ _______ _____ _____    ______ ____
ROOT
ATOM      1  C   UNL     1       3.158   5.493  18.470  0.00  0.00    +0.000 C 
ATOM      2  C   UNL     1       3.032   6.709  17.513  0.00  0.00    +0.000 C 
ATOM      3  C   UNL     1       3.097   8.075  18.200  0.00  0.00    +0.000 C 
ATOM      4  N   UNL     1       2.162   8.116  19.308  0.00  0.00    +0.000 N 
ATOM      5  C   UNL     1       1.082   8.945  19.364  0.00  0.00    +0.000 A 
ATOM      6  N   UNL     1       0.489   9.277  20.492  0.00  0.00    +0.000 NA
ATOM      7  C   UNL     1      -0.557  10.149  20.269  0.00  0.00    +0.000 A 
ATOM      8  C   UNL     1      -0.813  10.440  18.950  0.00  0.00    +0.000 A 
ATOM      9  S   UNL     1       0.323   9.630  17.962  0.00  0.00    +0.000 S 
ATOM     10  C   UNL     1       2.367   7.113  20.345  0.00  0.00    +0.000 C 
ATOM     11  C   UNL     1       2.220   5.727  19.704  0.00  0.00    +0.000 C 
ENDROOT
BRANCH   1  12
ATOM     12  N   UNL     1       2.832   4.186  17.807  0.00  0.00    +0.000 NA
ATOM     13  C   UNL     1       1.425   3.726  17.826  0.00  0.00    +0.000 C 
ATOM     14  C   UNL     1       1.030   2.889  19.056  0.00  0.00    +0.000 C 
ATOM     15  O   UNL     1       1.887   1.756  19.223  0.00  0.00    +0.000 OA
ATOM     16  C   UNL     1       3.260   2.150  19.300  0.00  0.00    +0.000 C 
ATOM     17  C   UNL     1       3.679   3.003  18.089  0.00  0.00    +0.000 C 
ENDBRANCH   1  12
BRANCH   8  18
ATOM     18  C   UNL     1      -1.873  11.295  18.374  0.00  0.00    +0.000 C 
ATOM     19  F   UNL     1      -2.753  11.716  19.319  0.00  0.00    +0.000 F 
ATOM     20  F   UNL     1      -1.374  12.413  17.786  0.00  0.00    +0.000 F 
ATOM     21  F   UNL     1      -2.602  10.644  17.430  0.00  0.00    +0.000 F 
ENDBRANCH   8  18
BRANCH   1  23
ATOM     22  C   UNL     1       5.723   5.811  17.953  0.00  0.00    +0.000 C 
ATOM     23  C   UNL     1       4.651   5.454  18.980  0.00  0.00    +0.000 C 
ENDBRANCH   1  23
TORSDOF 3
ENDMDL
MODEL 3
REMARK VINA RESULT:      -6.1      1.016      1.283
REMARK  Name = 
REMARK  4 active torsions:
REMARK  status: ('A' for Active; 'I' for Inactive)
REMARK    1  A    between atoms: C_1  and  C_2
REMARK    2  A    between atoms: C_2  and  C_3
REMARK    3  A    between atoms: C_3  and  N_4
REMARK    4  A    between atoms: C_16  and  C_17
REMARK                            x       y       z     vdW  Elec       q    Type
REMARK                         _______ _______ _______ _____ _____    ______ ____
ROOT
ATOM      1  C   UNL     1       2.503   5.668  19.170  0.00  0.00    +0.000 C 
ATOM      2  C   UNL     1       2.246   6.626  17.976  0.00  0.00    +0.000 C 
ATOM      3  C   UNL     1       2.467   8.109  18.284  0.00  0.00    +0.000 C 
ATOM      4  N   UNL     1       1.740   8.477  19.485  0.00  0.00    +0.000 N 
ATOM      5  C   UNL     1       0.710   9.368  19.508  0.00  0.00    +0.000 A 
ATOM      6  N   UNL     1       0.332   9.999  20.600  0.00  0.00    +0.000 NA
ATOM      7  C   UNL     1      -0.713  10.863  20.342  0.00  0.00    +0.000 A 
ATOM      8  C   UNL     1      -1.187  10.848  19.051  0.00  0.00    +0.000 A 
ATOM      9  S   UNL     1      -0.263   9.750  18.123  0.00  0.00    +0.000 S 
ATOM     10  C   UNL     1       2.095   7.738  20.689  0.00  0.00    +0.000 C 
ATOM     11  C   UNL     1       1.801   6.253  20.443  0.00  0.00    +0.000 C 
ENDROOT
BRANCH   1  12
ATOM     12  N   UNL     1       2.031   4.266  18.912  0.00  0.00    +0.000 NA
ATOM     13  C   UNL     1       0.887   3.759  19.702  0.00  0.00    +0.000 C 
ATOM     14  C   UNL     1       1.262   3.095  21.039  0.00  0.00    +0.000 C 
ATOM     15  O   UNL     1       2.203   2.033  20.859  0.00  0.00    +0.000 OA
ATOM     16  C   UNL     1       3.374   2.489  20.174  0.00  0.00    +0.000 C 
ATOM     17  C   UNL     1       3.027   3.171  18.839  0.00  0.00    +0.000 C 
ENDBRANCH   1  12
BRANCH   8  18
ATOM     18  C   UNL     1      -2.307  11.612  18.462  0.00  0.00    +0.000 C 
ATOM     19  F   UNL     1      -2.703  12.632  19.267  0.00  0.00    +0.000 F 
ATOM     20  F   UNL     1      -1.982  12.168  17.266  0.00  0.00    +0.000 F 
ATOM     21  F   UNL     1      -3.403  10.838  18.252  0.00  0.00    +0.000 F 
ENDBRANCH   8  18
BRANCH   1  23
ATOM     22  C   UNL     1       4.946   5.851  18.197  0.00  0.00    +0.000 C 
ATOM     23  C   UNL     1       4.061   5.649  19.424  0.00  0.00    +0.000 C 
ENDBRANCH   1  23
TORSDOF 3
ENDMDL
MODEL 4
REMARK VINA RESULT:      -6.1      4.847      7.690
REMARK  Name = 
REMARK  4 active torsions:
REMARK  status: ('A' for Active; 'I' for Inactive)
REMARK    1  A    between atoms: C_1  and  C_2
REMARK    2  A    between atoms: C_2  and  C_3
REMARK    3  A    between atoms: C_3  and  N_4
REMARK    4  A    between atoms: C_16  and  C_17
REMARK                            x       y       z     vdW  Elec       q    Type
REMARK                         _______ _______ _______ _____ _____    ______ ____
ROOT
ATOM      1  C   UNL     1       0.242   9.973  19.393  0.00  0.00    +0.000 C 
ATOM      2  C   UNL     1       0.427   8.983  20.574  0.00  0.00    +0.000 C 
ATOM      3  C   UNL     1       1.795   8.299  20.629  0.00  0.00    +0.000 C 
ATOM      4  N   UNL     1       2.108   7.718  19.337  0.00  0.00    +0.000 N 
ATOM      5  C   UNL     1       2.253   6.381  19.118  0.00  0.00    +0.000 A 
ATOM      6  N   UNL     1       2.918   5.890  18.093  0.00  0.00    +0.000 NA
ATOM      7  C   UNL     1       2.936   4.510  18.123  0.00  0.00    +0.000 A 
ATOM      8  C   UNL     1       2.223   3.933  19.148  0.00  0.00    +0.000 A 
ATOM      9  S   UNL     1       1.546   5.160  20.127  0.00  0.00    +0.000 S 
ATOM     10  C   UNL     1       2.148   8.651  18.218  0.00  0.00    +0.000 C 
ATOM     11  C   UNL     1       0.761   9.291  18.081  0.00  0.00    +0.000 C 
ENDROOT
BRANCH   1  12
ATOM     12  N   UNL     1      -1.180  10.423  19.219  0.00  0.00    +0.000 NA
ATOM     13  C   UNL     1      -2.059   9.630  18.331  0.00  0.00    +0.000 C 
ATOM     14  C   UNL     1      -2.034  10.046  16.849  0.00  0.00    +0.000 C 
ATOM     15  O   UNL     1      -2.342  11.433  16.683  0.00  0.00    +0.000 OA
ATOM     16  C   UNL     1      -1.462  12.256  17.454  0.00  0.00    +0.000 C 
ATOM     17  C   UNL     1      -1.456  11.852  18.940  0.00  0.00    +0.000 C 
ENDBRANCH   1  12
BRANCH   8  18
ATOM     18  C   UNL     1       2.008   2.499  19.439  0.00  0.00    +0.000 C 
ATOM     19  F   UNL     1       0.876   2.028  18.854  0.00  0.00    +0.000 F 
ATOM     20  F   UNL     1       3.027   1.722  18.991  0.00  0.00    +0.000 F 
ATOM     21  F   UNL     1       1.883   2.259  20.770  0.00  0.00    +0.000 F 
ENDBRANCH   8  18
BRANCH   1  23
ATOM     22  C   UNL     1       1.054  11.807  21.103  0.00  0.00    +0.000 C 
ATOM     23  C   UNL     1       1.147  11.231  19.693  0.00  0.00    +0.000 C 
ENDBRANCH   1  23
TORSDOF 3
ENDMDL
MODEL 5
REMARK VINA RESULT:      -6.0      4.812      8.089
REMARK  Name = 
REMARK  4 active torsions:
REMARK  status: ('A' for Active; 'I' for Inactive)
REMARK    1  A    between atoms: C_1  and  C_2
REMARK    2  A    between atoms: C_2  and  C_3
REMARK    3  A    between atoms: C_3  and  N_4
REMARK    4  A    between atoms: C_16  and  C_17
REMARK                            x       y       z     vdW  Elec       q    Type
REMARK                         _______ _______ _______ _____ _____    ______ ____
ROOT
ATOM      1  C   UNL     1       0.378  11.849  20.607  0.00  0.00    +0.000 C 
ATOM      2  C   UNL     1       0.494  11.451  19.111  0.00  0.00    +0.000 C 
ATOM      3  C   UNL     1       0.111  10.001  18.802  0.00  0.00    +0.000 C 
ATOM      4  N   UNL     1       0.821   9.103  19.693  0.00  0.00    +0.000 N 
ATOM      5  C   UNL     1       1.741   8.189  19.278  0.00  0.00    +0.000 A 
ATOM      6  N   UNL     1       2.072   7.130  19.988  0.00  0.00    +0.000 NA
ATOM      7  C   UNL     1       3.004   6.356  19.327  0.00  0.00    +0.000 A 
ATOM      8  C   UNL     1       3.443   6.858  18.124  0.00  0.00    +0.000 A 
ATOM      9  S   UNL     1       2.628   8.324  17.793  0.00  0.00    +0.000 S 
ATOM     10  C   UNL     1       0.583   9.308  21.116  0.00  0.00    +0.000 C 
ATOM     11  C   UNL     1       1.040  10.727  21.478  0.00  0.00    +0.000 C 
ENDROOT
BRANCH   1  12
ATOM     12  N   UNL     1       1.002  13.181  20.911  0.00  0.00    +0.000 NA
ATOM     13  C   UNL     1       0.276  14.402  20.498  0.00  0.00    +0.000 C 
ATOM     14  C   UNL     1       0.583  14.891  19.071  0.00  0.00    +0.000 C 
ATOM     15  O   UNL     1       1.985  15.100  18.872  0.00  0.00    +0.000 OA
ATOM     16  C   UNL     1       2.733  13.918  19.174  0.00  0.00    +0.000 C 
ATOM     17  C   UNL     1       2.433  13.397  20.592  0.00  0.00    +0.000 C 
ENDBRANCH   1  12
BRANCH   8  18
ATOM     18  C   UNL     1       4.453   6.304  17.197  0.00  0.00    +0.000 C 
ATOM     19  F   UNL     1       4.599   7.075  16.088  0.00  0.00    +0.000 F 
ATOM     20  F   UNL     1       5.682   6.211  17.768  0.00  0.00    +0.000 F 
ATOM     21  F   UNL     1       4.124   5.061  16.762  0.00  0.00    +0.000 F 
ENDBRANCH   8  18
BRANCH   1  23
ATOM     22  C   UNL     1      -1.515  11.906  22.440  0.00  0.00    +0.000 C 
ATOM     23  C   UNL     1      -1.160  11.909  20.956  0.00  0.00    +0.000 C 
ENDBRANCH   1  23
TORSDOF 3
ENDMDL
MODEL 6
REMARK VINA RESULT:      -6.0      5.339      8.102
REMARK  Name = 
REMARK  4 active torsions:
REMARK  status: ('A' for Active; 'I' for Inactive)
REMARK    1  A    between atoms: C_1  and  C_2
REMARK    2  A    between atoms: C_2  and  C_3
REMARK    3  A    between atoms: C_3  and  N_4
REMARK    4  A    between atoms: C_16  and  C_17
REMARK                            x       y       z     vdW  Elec       q    Type
REMARK                         _______ _______ _______ _____ _____    ______ ____
ROOT
ATOM      1  C   UNL     1       1.099   9.995  19.536  0.00  0.00    +0.000 C 
ATOM      2  C   UNL     1       1.759   9.720  18.158  0.00  0.00    +0.000 C 
ATOM      3  C   UNL     1       1.762   8.250  17.730  0.00  0.00    +0.000 C 
ATOM      4  N   UNL     1       2.294   7.426  18.798  0.00  0.00    +0.000 N 
ATOM      5  C   UNL     1       3.447   6.706  18.702  0.00  0.00    +0.000 A 
ATOM      6  N   UNL     1       3.715   5.673  19.473  0.00  0.00    +0.000 NA
ATOM      7  C   UNL     1       4.932   5.108  19.149  0.00  0.00    +0.000 A 
ATOM      8  C   UNL     1       5.638   5.754  18.162  0.00  0.00    +0.000 A 
ATOM      9  S   UNL     1       4.726   7.083  17.592  0.00  0.00    +0.000 S 
ATOM     10  C   UNL     1       1.579   7.494  20.065  0.00  0.00    +0.000 C 
ATOM     11  C   UNL     1       1.634   8.943  20.568  0.00  0.00    +0.000 C 
ENDROOT
BRANCH   1  12
ATOM     12  N   UNL     1       1.344  11.388  20.038  0.00  0.00    +0.000 NA
ATOM     13  C   UNL     1       0.380  11.961  21.005  0.00  0.00    +0.000 C 
ATOM     14  C   UNL     1      -0.819  12.692  20.373  0.00  0.00    +0.000 C 
ATOM     15  O   UNL     1      -0.398  13.724  19.476  0.00  0.00    +0.000 OA
ATOM     16  C   UNL     1       0.471  13.208  18.463  0.00  0.00    +0.000 C 
ATOM     17  C   UNL     1       1.672  12.459  19.067  0.00  0.00    +0.000 C 
ENDBRANCH   1  12
BRANCH   8  18
ATOM     18  C   UNL     1       6.974   5.438  17.614  0.00  0.00    +0.000 C 
ATOM     19  F   UNL     1       6.984   4.247  16.960  0.00  0.00    +0.000 F 
ATOM     20  F   UNL     1       7.403   6.371  16.726  0.00  0.00    +0.000 F 
ATOM     21  F   UNL     1       7.920   5.352  18.585  0.00  0.00    +0.000 F 
ENDBRANCH   8  18
BRANCH   1  23
ATOM     22  C   UNL     1      -1.023  10.068  17.974  0.00  0.00    +0.000 C 
ATOM     23  C   UNL     1      -0.454   9.775  19.360  0.00  0.00    +0.000 C 
ENDBRANCH   1  23
TORSDOF 3
ENDMDL
MODEL 7
REMARK VINA RESULT:      -6.0      4.972      7.916
REMARK  Name = 
REMARK  4 active torsions:
REMARK  status: ('A' for Active; 'I' for Inactive)
REMARK    1  A    between atoms: C_1  and  C_2
REMARK    2  A    between atoms: C_2  and  C_3
REMARK    3  A    between atoms: C_3  and  N_4
REMARK    4  A    between atoms: C_16  and  C_17
REMARK                            x       y       z     vdW  Elec       q    Type
REMARK                         _______ _______ _______ _____ _____    ______ ____
ROOT
ATOM      1  C   UNL     1       0.455   9.885  19.614  0.00  0.00    +0.000 C 
ATOM      2  C   UNL     1       0.707   8.833  20.727  0.00  0.00    +0.000 C 
ATOM      3  C   UNL     1       2.031   8.075  20.605  0.00  0.00    +0.000 C 
ATOM      4  N   UNL     1       2.172   7.540  19.264  0.00  0.00    +0.000 N 
ATOM      5  C   UNL     1       2.216   6.209  18.976  0.00  0.00    +0.000 A 
ATOM      6  N   UNL     1       2.739   5.731  17.866  0.00  0.00    +0.000 NA
ATOM      7  C   UNL     1       2.681   4.353  17.838  0.00  0.00    +0.000 A 
ATOM      8  C   UNL     1       2.048   3.767  18.910  0.00  0.00    +0.000 A 
ATOM      9  S   UNL     1       1.551   4.981  20.005  0.00  0.00    +0.000 S 
ATOM     10  C   UNL     1       2.147   8.520  18.187  0.00  0.00    +0.000 C 
ATOM     11  C   UNL     1       0.792   9.238  18.226  0.00  0.00    +0.000 C 
ENDROOT
BRANCH   1  12
ATOM     12  N   UNL     1      -0.950  10.417  19.613  0.00  0.00    +0.000 NA
ATOM     13  C   UNL     1      -1.536  10.839  18.322  0.00  0.00    +0.000 C 
ATOM     14  C   UNL     1      -1.272  12.305  17.935  0.00  0.00    +0.000 C 
ATOM     15  O   UNL     1      -1.706  13.209  18.955  0.00  0.00    +0.000 OA
ATOM     16  C   UNL     1      -1.100  12.901  20.214  0.00  0.00    +0.000 C 
ATOM     17  C   UNL     1      -1.336  11.435  20.619  0.00  0.00    +0.000 C 
ENDBRANCH   1  12
BRANCH   8  18
ATOM     18  C   UNL     1       1.783   2.335  19.164  0.00  0.00    +0.000 C 
ATOM     19  F   UNL     1       0.595   1.938  18.639  0.00  0.00    +0.000 F 
ATOM     20  F   UNL     1       2.733   1.529  18.622  0.00  0.00    +0.000 F 
ATOM     21  F   UNL     1       1.734   2.049  20.491  0.00  0.00    +0.000 F 
ENDBRANCH   8  18
BRANCH   1  23
ATOM     22  C   UNL     1       1.994  11.780  18.620  0.00  0.00    +0.000 C 
ATOM     23  C   UNL     1       1.457  11.078  19.865  0.00  0.00    +0.000 C 
ENDBRANCH   1  23
TORSDOF 3
ENDMDL
MODEL 8
REMARK VINA RESULT:      -5.9      6.062      8.234
REMARK  Name = 
REMARK  4 active torsions:
REMARK  status: ('A' for Active; 'I' for Inactive)
REMARK    1  A    between atoms: C_1  and  C_2
REMARK    2  A    between atoms: C_2  and  C_3
REMARK    3  A    between atoms: C_3  and  N_4
REMARK    4  A    between atoms: C_16  and  C_17
REMARK                            x       y       z     vdW  Elec       q    Type
REMARK                         _______ _______ _______ _____ _____    ______ ____
ROOT
ATOM      1  C   UNL     1       3.230   4.936  18.865  0.00  0.00    +0.000 C 
ATOM      2  C   UNL     1       3.165   3.754  17.861  0.00  0.00    +0.000 C 
ATOM      3  C   UNL     1       4.516   3.112  17.539  0.00  0.00    +0.000 C 
ATOM      4  N   UNL     1       5.472   4.136  17.161  0.00  0.00    +0.000 N 
ATOM      5  C   UNL     1       6.037   4.231  15.926  0.00  0.00    +0.000 A 
ATOM      6  N   UNL     1       7.167   4.870  15.700  0.00  0.00    +0.000 NA
ATOM      7  C   UNL     1       7.530   4.790  14.371  0.00  0.00    +0.000 A 
ATOM      8  C   UNL     1       6.637   4.138  13.553  0.00  0.00    +0.000 A 
ATOM      9  S   UNL     1       5.324   3.571  14.489  0.00  0.00    +0.000 S 
ATOM     10  C   UNL     1       5.722   5.166  18.161  0.00  0.00    +0.000 C 
ATOM     11  C   UNL     1       4.400   5.890  18.443  0.00  0.00    +0.000 C 
ENDROOT
BRANCH   1  12
ATOM     12  N   UNL     1       1.941   5.702  18.957  0.00  0.00    +0.000 NA
ATOM     13  C   UNL     1       1.689   6.767  17.961  0.00  0.00    +0.000 C 
ATOM     14  C   UNL     1       2.226   8.157  18.346  0.00  0.00    +0.000 C 
ATOM     15  O   UNL     1       1.725   8.587  19.615  0.00  0.00    +0.000 OA
ATOM     16  C   UNL     1       2.018   7.631  20.639  0.00  0.00    +0.000 C 
ATOM     17  C   UNL     1       1.505   6.226  20.274  0.00  0.00    +0.000 C 
ENDBRANCH   1  12
BRANCH   8  18
ATOM     18  C   UNL     1       6.703   3.917  12.093  0.00  0.00    +0.000 C 
ATOM     19  F   UNL     1       5.468   3.906  11.525  0.00  0.00    +0.000 F 
ATOM     20  F   UNL     1       7.413   4.884  11.454  0.00  0.00    +0.000 F 
ATOM     21  F   UNL     1       7.282   2.730  11.779  0.00  0.00    +0.000 F 
ENDBRANCH   8  18
BRANCH   1  23
ATOM     22  C   UNL     1       2.835   3.042  20.656  0.00  0.00    +0.000 C 
ATOM     23  C   UNL     1       3.570   4.327  20.281  0.00  0.00    +0.000 C 
ENDBRANCH   1  23
TORSDOF 3
ENDMDL
MODEL 9
REMARK VINA RESULT:      -5.9      4.690      8.056
REMARK  Name = 
REMARK  4 active torsions:
REMARK  status: ('A' for Active; 'I' for Inactive)
REMARK    1  A    between atoms: C_1  and  C_2
REMARK    2  A    between atoms: C_2  and  C_3
REMARK    3  A    between atoms: C_3  and  N_4
REMARK    4  A    between atoms: C_16  and  C_17
REMARK                            x       y       z     vdW  Elec       q    Type
REMARK                         _______ _______ _______ _____ _____    ______ ____
ROOT
ATOM      1  C   UNL     1      -0.017  12.305  20.090  0.00  0.00    +0.000 C 
ATOM      2  C   UNL     1       0.069  11.683  18.670  0.00  0.00    +0.000 C 
ATOM      3  C   UNL     1      -0.263  10.190  18.603  0.00  0.00    +0.000 C 
ATOM      4  N   UNL     1       0.509   9.468  19.596  0.00  0.00    +0.000 N 
ATOM      5  C   UNL     1       1.454   8.534  19.294  0.00  0.00    +0.000 A 
ATOM      6  N   UNL     1       1.850   7.611  20.146  0.00  0.00    +0.000 NA
ATOM      7  C   UNL     1       2.792   6.777  19.579  0.00  0.00    +0.000 A 
ATOM      8  C   UNL     1       3.173   7.101  18.298  0.00  0.00    +0.000 A 
ATOM      9  S   UNL     1       2.289   8.468  17.775  0.00  0.00    +0.000 S 
ATOM     10  C   UNL     1       0.308   9.883  20.978  0.00  0.00    +0.000 C 
ATOM     11  C   UNL     1       0.717  11.356  21.099  0.00  0.00    +0.000 C 
ENDROOT
BRANCH   1  12
ATOM     12  N   UNL     1       0.560  13.690  20.162  0.00  0.00    +0.000 NA
ATOM     13  C   UNL     1       1.027  14.317  18.905  0.00  0.00    +0.000 C 
ATOM     14  C   UNL     1       2.491  14.021  18.535  0.00  0.00    +0.000 C 
ATOM     15  O   UNL     1       3.389  14.380  19.589  0.00  0.00    +0.000 OA
ATOM     16  C   UNL     1       3.035  13.730  20.814  0.00  0.00    +0.000 C 
ATOM     17  C   UNL     1       1.570  13.997  21.202  0.00  0.00    +0.000 C 
ENDBRANCH   1  12
BRANCH   8  18
ATOM     18  C   UNL     1       4.176   6.447  17.432  0.00  0.00    +0.000 C 
ATOM     19  F   UNL     1       3.782   5.203  17.051  0.00  0.00    +0.000 F 
ATOM     20  F   UNL     1       4.408   7.145  16.290  0.00  0.00    +0.000 F 
ATOM     21  F   UNL     1       5.374   6.298  18.054  0.00  0.00    +0.000 F 
ENDBRANCH   8  18
BRANCH   1  23
ATOM     22  C   UNL     1      -1.855  12.639  21.950  0.00  0.00    +0.000 C 
ATOM     23  C   UNL     1      -1.546  12.363  20.481  0.00  0.00    +0.000 C 
ENDBRANCH   1  23
TORSDOF 3
ENDMDL
