MODEL 1
REMARK VINA RESULT:      -7.8      0.000      0.000
REMARK  Name = 
REMARK  9 active torsions:
REMARK  status: ('A' for Active; 'I' for Inactive)
REMARK    1  A    between atoms: C_1  and  C_2
REMARK    2  A    between atoms: C_2  and  C_3
REMARK    3  A    between atoms: C_2  and  O_4
REMARK    4  A    between atoms: O_4  and  C_5
REMARK    5  A    between atoms: C_5  and  C_7
REMARK    6  A    between atoms: C_7  and  C_8
REMARK    7  A    between atoms: C_7  and  N_14
REMARK    8  A    between atoms: C_8  and  N_9
REMARK    9  A    between atoms: C_15  and  C_17
REMARK                            x       y       z     vdW  Elec       q    Type
REMARK                         _______ _______ _______ _____ _____    ______ ____
ROOT
ATOM      1  N   UNL     1       3.799   5.504  19.304  0.00  0.00    +0.000 N 
ATOM      2  C   UNL     1       2.650   6.047  18.781  0.00  0.00    +0.000 C 
ATOM      3  O   UNL     1       2.037   5.569  17.841  0.00  0.00    +0.000 OA
ATOM      4  H   UNL     1       4.247   6.037  20.049  0.00  0.00    +0.000 HD
ENDROOT
BRANCH   2   5
ATOM      5  C   UNL     1       2.319   7.312  19.421  0.00  0.00    +0.000 A 
ATOM      6  N   UNL     1       2.012   8.407  18.753  0.00  0.00    +0.000 NA
ATOM      7  C   UNL     1       1.272   9.144  19.631  0.00  0.00    +0.000 A 
ATOM      8  C   UNL     1       0.477  10.270  19.389  0.00  0.00    +0.000 A 
ATOM      9  C   UNL     1      -0.557  10.496  20.294  0.00  0.00    +0.000 A 
ATOM     10  C   UNL     1      -0.504   9.960  21.585  0.00  0.00    +0.000 A 
ATOM     11  C   UNL     1       0.514   9.066  21.949  0.00  0.00    +0.000 A 
ATOM     12  C   UNL     1       1.272   8.574  20.903  0.00  0.00    +0.000 A 
ATOM     13  N   UNL     1       2.111   7.490  20.772  0.00  0.00    +0.000 N 
ATOM     14  H   UNL     1       2.278   6.784  21.474  0.00  0.00    +0.000 HD
ENDBRANCH   2   5
BRANCH   1  15
ATOM     15  C   UNL     1       4.447   4.288  18.829  0.00  0.00    +0.000 C 
BRANCH  15  16
ATOM     16  C   UNL     1       4.236   3.091  19.766  0.00  0.00    +0.000 C 
ATOM     17  O   UNL     1       5.076   2.202  19.901  0.00  0.00    +0.000 OA
BRANCH  16  18
ATOM     18  O   UNL     1       3.070   3.174  20.474  0.00  0.00    +0.000 OA
BRANCH  18  20
ATOM     19  C   UNL     1       0.691   3.220  20.194  0.00  0.00    +0.000 C 
ATOM     20  C   UNL     1       1.956   2.399  19.992  0.00  0.00    +0.000 C 
ATOM     21  C   UNL     1       2.178   2.089  18.519  0.00  0.00    +0.000 C 
ENDBRANCH  18  20
ENDBRANCH  16  18
ENDBRANCH  15  16
BRANCH  15  22
ATOM     22  C   UNL     1       5.959   4.439  18.577  0.00  0.00    +0.000 C 
BRANCH  22  23
ATOM     23  N   UNL     1       6.330   4.592  17.181  0.00  0.00    +0.000 N 
ATOM     24  C   UNL     1       5.774   3.942  16.112  0.00  0.00    +0.000 A 
ATOM     25  C   UNL     1       6.397   4.478  15.009  0.00  0.00    +0.000 A 
ATOM     26  N   UNL     1       7.305   5.434  15.380  0.00  0.00    +0.000 NA
ATOM     27  C   UNL     1       7.231   5.490  16.690  0.00  0.00    +0.000 A 
ENDBRANCH  22  23
ENDBRANCH  15  22
ENDBRANCH   1  15
TORSDOF 7
ENDMDL
MODEL 2
REMARK VINA RESULT:      -7.5      1.103      1.481
REMARK  Name = 
REMARK  9 active torsions:
REMARK  status: ('A' for Active; 'I' for Inactive)
REMARK    1  A    between atoms: C_1  and  C_2
REMARK    2  A    between atoms: C_2  and  C_3
REMARK    3  A    between atoms: C_2  and  O_4
REMARK    4  A    between atoms: O_4  and  C_5
REMARK    5  A    between atoms: C_5  and  C_7
REMARK    6  A    between atoms: C_7  and  C_8
REMARK    7  A    between atoms: C_7  and  N_14
REMARK    8  A    between atoms: C_8  and  N_9
REMARK    9  A    between atoms: C_15  and  C_17
REMARK                            x       y       z     vdW  Elec       q    Type
REMARK                         _______ _______ _______ _____ _____    ______ ____
ROOT
ATOM      1  N   UNL     1       3.688   5.534  19.031  0.00  0.00    +0.000 N 
ATOM      2  C   UNL     1       2.540   6.159  18.607  0.00  0.00    +0.000 C 
ATOM      3  O   UNL     1       1.882   5.795  17.646  0.00  0.00    +0.000 OA
ATOM      4  H   UNL     1       4.176   5.977  19.810  0.00  0.00    +0.000 HD
ENDROOT
BRANCH   2   5
ATOM      5  C   UNL     1       2.269   7.361  19.382  0.00  0.00    +0.000 A 
ATOM      6  N   UNL     1       1.950   8.520  18.840  0.00  0.00    +0.000 NA
ATOM      7  C   UNL     1       1.273   9.179  19.824  0.00  0.00    +0.000 A 
ATOM      8  C   UNL     1       0.489  10.336  19.734  0.00  0.00    +0.000 A 
ATOM      9  C   UNL     1      -0.491  10.489  20.712  0.00  0.00    +0.000 A 
ATOM     10  C   UNL     1      -0.382   9.830  21.941  0.00  0.00    +0.000 A 
ATOM     11  C   UNL     1       0.636   8.889  22.161  0.00  0.00    +0.000 A 
ATOM     12  C   UNL     1       1.328   8.490  21.033  0.00  0.00    +0.000 A 
ATOM     13  N   UNL     1       2.135   7.410  20.753  0.00  0.00    +0.000 N 
ATOM     14  H   UNL     1       2.325   6.637  21.374  0.00  0.00    +0.000 HD
ENDBRANCH   2   5
BRANCH   1  15
ATOM     15  C   UNL     1       4.283   4.356  18.414  0.00  0.00    +0.000 C 
BRANCH  15  16
ATOM     16  C   UNL     1       3.746   3.040  18.995  0.00  0.00    +0.000 C 
ATOM     17  O   UNL     1       3.947   1.952  18.458  0.00  0.00    +0.000 OA
BRANCH  16  18
ATOM     18  O   UNL     1       3.107   3.212  20.189  0.00  0.00    +0.000 OA
BRANCH  18  20
ATOM     19  C   UNL     1       1.522   2.575  21.870  0.00  0.00    +0.000 C 
ATOM     20  C   UNL     1       1.899   2.457  20.400  0.00  0.00    +0.000 C 
ATOM     21  C   UNL     1       0.806   3.027  19.508  0.00  0.00    +0.000 C 
ENDBRANCH  18  20
ENDBRANCH  16  18
ENDBRANCH  15  16
BRANCH  15  22
ATOM     22  C   UNL     1       5.820   4.319  18.482  0.00  0.00    +0.000 C 
BRANCH  22  23
ATOM     23  N   UNL     1       6.476   5.547  18.068  0.00  0.00    +0.000 N 
ATOM     24  C   UNL     1       7.469   6.209  18.739  0.00  0.00    +0.000 A 
ATOM     25  C   UNL     1       7.815   7.256  17.915  0.00  0.00    +0.000 A 
ATOM     26  N   UNL     1       7.066   7.241  16.769  0.00  0.00    +0.000 NA
ATOM     27  C   UNL     1       6.281   6.194  16.883  0.00  0.00    +0.000 A 
ENDBRANCH  22  23
ENDBRANCH  15  22
ENDBRANCH   1  15
TORSDOF 7
ENDMDL
MODEL 3
REMARK VINA RESULT:      -7.4      1.128      1.438
REMARK  Name = 
REMARK  9 active torsions:
REMARK  status: ('A' for Active; 'I' for Inactive)
REMARK    1  A    between atoms: C_1  and  C_2
REMARK    2  A    between atoms: C_2  and  C_3
REMARK    3  A    between atoms: C_2  and  O_4
REMARK    4  A    between atoms: O_4  and  C_5
REMARK    5  A    between atoms: C_5  and  C_7
REMARK    6  A    between atoms: C_7  and  C_8
REMARK    7  A    between atoms: C_7  and  N_14
REMARK    8  A    between atoms: C_8  and  N_9
REMARK    9  A    between atoms: C_15  and  C_17
REMARK                            x       y       z     vdW  Elec       q    Type
REMARK                         _______ _______ _______ _____ _____    ______ ____
ROOT
ATOM      1  N   UNL     1       3.812   5.727  19.488  0.00  0.00    +0.000 N 
ATOM      2  C   UNL     1       2.648   6.244  18.971  0.00  0.00    +0.000 C 
ATOM      3  O   UNL     1       2.060   5.770  18.013  0.00  0.00    +0.000 OA
ATOM      4  H   UNL     1       4.235   6.255  20.252  0.00  0.00    +0.000 HD
ENDROOT
BRANCH   2   5
ATOM      5  C   UNL     1       2.268   7.479  19.642  0.00  0.00    +0.000 A 
ATOM      6  N   UNL     1       1.952   8.587  19.002  0.00  0.00    +0.000 NA
ATOM      7  C   UNL     1       1.170   9.276  19.883  0.00  0.00    +0.000 A 
ATOM      8  C   UNL     1       0.353  10.389  19.655  0.00  0.00    +0.000 A 
ATOM      9  C   UNL     1      -0.711  10.560  20.538  0.00  0.00    +0.000 A 
ATOM     10  C   UNL     1      -0.680   9.983  21.812  0.00  0.00    +0.000 A 
ATOM     11  C   UNL     1       0.351   9.102  22.175  0.00  0.00    +0.000 A 
ATOM     12  C   UNL     1       1.150   8.665  21.135  0.00  0.00    +0.000 A 
ATOM     13  N   UNL     1       2.018   7.606  20.992  0.00  0.00    +0.000 N 
ATOM     14  H   UNL     1       2.185   6.882  21.675  0.00  0.00    +0.000 HD
ENDBRANCH   2   5
BRANCH   1  15
ATOM     15  C   UNL     1       4.506   4.548  18.986  0.00  0.00    +0.000 C 
BRANCH  15  16
ATOM     16  C   UNL     1       4.111   3.261  19.723  0.00  0.00    +0.000 C 
ATOM     17  O   UNL     1       4.945   2.469  20.159  0.00  0.00    +0.000 OA
BRANCH  16  18
ATOM     18  O   UNL     1       2.762   3.148  19.901  0.00  0.00    +0.000 OA
BRANCH  18  20
ATOM     19  C   UNL     1       0.591   2.445  19.169  0.00  0.00    +0.000 C 
ATOM     20  C   UNL     1       2.082   2.141  19.129  0.00  0.00    +0.000 C 
ATOM     21  C   UNL     1       2.609   2.181  17.702  0.00  0.00    +0.000 C 
ENDBRANCH  18  20
ENDBRANCH  16  18
ENDBRANCH  15  16
BRANCH  15  22
ATOM     22  C   UNL     1       6.041   4.665  19.013  0.00  0.00    +0.000 C 
BRANCH  22  23
ATOM     23  N   UNL     1       6.574   5.832  18.332  0.00  0.00    +0.000 N 
ATOM     24  C   UNL     1       7.715   6.516  18.656  0.00  0.00    +0.000 A 
ATOM     25  C   UNL     1       7.839   7.478  17.679  0.00  0.00    +0.000 A 
ATOM     26  N   UNL     1       6.813   7.390  16.777  0.00  0.00    +0.000 NA
ATOM     27  C   UNL     1       6.077   6.382  17.188  0.00  0.00    +0.000 A 
ENDBRANCH  22  23
ENDBRANCH  15  22
ENDBRANCH   1  15
TORSDOF 7
ENDMDL
MODEL 4
REMARK VINA RESULT:      -7.4      1.777      4.179
REMARK  Name = 
REMARK  9 active torsions:
REMARK  status: ('A' for Active; 'I' for Inactive)
REMARK    1  A    between atoms: C_1  and  C_2
REMARK    2  A    between atoms: C_2  and  C_3
REMARK    3  A    between atoms: C_2  and  O_4
REMARK    4  A    between atoms: O_4  and  C_5
REMARK    5  A    between atoms: C_5  and  C_7
REMARK    6  A    between atoms: C_7  and  C_8
REMARK    7  A    between atoms: C_7  and  N_14
REMARK    8  A    between atoms: C_8  and  N_9
REMARK    9  A    between atoms: C_15  and  C_17
REMARK                            x       y       z     vdW  Elec       q    Type
REMARK                         _______ _______ _______ _____ _____    ______ ____
ROOT
ATOM      1  N   UNL     1       4.119   5.622  19.545  0.00  0.00    +0.000 N 
ATOM      2  C   UNL     1       3.090   6.024  18.729  0.00  0.00    +0.000 C 
ATOM      3  O   UNL     1       2.695   5.387  17.767  0.00  0.00    +0.000 OA
ATOM      4  H   UNL     1       4.392   6.277  20.278  0.00  0.00    +0.000 HD
ENDROOT
BRANCH   2   5
ATOM      5  C   UNL     1       2.604   7.347  19.096  0.00  0.00    +0.000 A 
ATOM      6  N   UNL     1       2.430   8.324  18.229  0.00  0.00    +0.000 NA
ATOM      7  C   UNL     1       1.503   9.136  18.814  0.00  0.00    +0.000 A 
ATOM      8  C   UNL     1       0.759  10.178  18.250  0.00  0.00    +0.000 A 
ATOM      9  C   UNL     1      -0.452  10.474  18.872  0.00  0.00    +0.000 A 
ATOM     10  C   UNL     1      -0.672  10.122  20.208  0.00  0.00    +0.000 A 
ATOM     11  C   UNL     1       0.259   9.336  20.904  0.00  0.00    +0.000 A 
ATOM     12  C   UNL     1       1.236   8.745  20.125  0.00  0.00    +0.000 A 
ATOM     13  N   UNL     1       2.103   7.695  20.332  0.00  0.00    +0.000 N 
ATOM     14  H   UNL     1       2.126   7.100  21.147  0.00  0.00    +0.000 HD
ENDBRANCH   2   5
BRANCH   1  15
ATOM     15  C   UNL     1       4.880   4.388  19.395  0.00  0.00    +0.000 C 
BRANCH  15  16
ATOM     16  C   UNL     1       5.960   4.479  18.307  0.00  0.00    +0.000 C 
ATOM     17  O   UNL     1       7.133   4.745  18.564  0.00  0.00    +0.000 OA
BRANCH  16  18
ATOM     18  O   UNL     1       5.488   4.157  17.067  0.00  0.00    +0.000 OA
BRANCH  18  20
ATOM     19  C   UNL     1       5.970   3.933  14.730  0.00  0.00    +0.000 C 
ATOM     20  C   UNL     1       6.075   4.844  15.945  0.00  0.00    +0.000 C 
ATOM     21  C   UNL     1       5.317   6.145  15.720  0.00  0.00    +0.000 C 
ENDBRANCH  18  20
ENDBRANCH  16  18
ENDBRANCH  15  16
BRANCH  15  22
ATOM     22  C   UNL     1       4.015   3.147  19.109  0.00  0.00    +0.000 C 
BRANCH  22  23
ATOM     23  N   UNL     1       2.924   2.939  20.045  0.00  0.00    +0.000 N 
ATOM     24  C   UNL     1       1.592   2.856  19.741  0.00  0.00    +0.000 A 
ATOM     25  C   UNL     1       0.973   2.574  20.937  0.00  0.00    +0.000 A 
ATOM     26  N   UNL     1       1.890   2.479  21.949  0.00  0.00    +0.000 NA
ATOM     27  C   UNL     1       3.055   2.689  21.380  0.00  0.00    +0.000 A 
ENDBRANCH  22  23
ENDBRANCH  15  22
ENDBRANCH   1  15
TORSDOF 7
ENDMDL
MODEL 5
REMARK VINA RESULT:      -7.3      4.139      6.010
REMARK  Name = 
REMARK  9 active torsions:
REMARK  status: ('A' for Active; 'I' for Inactive)
REMARK    1  A    between atoms: C_1  and  C_2
REMARK    2  A    between atoms: C_2  and  C_3
REMARK    3  A    between atoms: C_2  and  O_4
REMARK    4  A    between atoms: O_4  and  C_5
REMARK    5  A    between atoms: C_5  and  C_7
REMARK    6  A    between atoms: C_7  and  C_8
REMARK    7  A    between atoms: C_7  and  N_14
REMARK    8  A    between atoms: C_8  and  N_9
REMARK    9  A    between atoms: C_15  and  C_17
REMARK                            x       y       z     vdW  Elec       q    Type
REMARK                         _______ _______ _______ _____ _____    ______ ____
ROOT
ATOM      1  N   UNL     1       5.267   4.335  15.708  0.00  0.00    +0.000 N 
ATOM      2  C   UNL     1       4.380   4.937  16.568  0.00  0.00    +0.000 C 
ATOM      3  O   UNL     1       4.235   6.144  16.661  0.00  0.00    +0.000 OA
ATOM      4  H   UNL     1       5.335   3.319  15.775  0.00  0.00    +0.000 HD
ENDROOT
BRANCH   2   5
ATOM      5  C   UNL     1       3.716   3.960  17.420  0.00  0.00    +0.000 A 
ATOM      6  N   UNL     1       4.330   3.296  18.379  0.00  0.00    +0.000 NA
ATOM      7  C   UNL     1       3.332   2.944  19.240  0.00  0.00    +0.000 A 
ATOM      8  C   UNL     1       3.425   2.451  20.547  0.00  0.00    +0.000 A 
ATOM      9  C   UNL     1       2.324   2.680  21.368  0.00  0.00    +0.000 A 
ATOM     10  C   UNL     1       1.061   2.922  20.817  0.00  0.00    +0.000 A 
ATOM     11  C   UNL     1       0.903   3.087  19.432  0.00  0.00    +0.000 A 
ATOM     12  C   UNL     1       2.076   3.246  18.718  0.00  0.00    +0.000 A 
ATOM     13  N   UNL     1       2.357   3.733  17.461  0.00  0.00    +0.000 N 
ATOM     14  H   UNL     1       1.690   4.140  16.822  0.00  0.00    +0.000 HD
ENDBRANCH   2   5
BRANCH   1  15
ATOM     15  C   UNL     1       6.151   5.034  14.784  0.00  0.00    +0.000 C 
BRANCH  15  16
ATOM     16  C   UNL     1       6.321   4.300  13.447  0.00  0.00    +0.000 C 
ATOM     17  O   UNL     1       7.387   4.288  12.833  0.00  0.00    +0.000 OA
BRANCH  16  18
ATOM     18  O   UNL     1       5.201   3.613  13.075  0.00  0.00    +0.000 OA
BRANCH  18  20
ATOM     19  C   UNL     1       5.625   1.810  11.554  0.00  0.00    +0.000 C 
ATOM     20  C   UNL     1       5.097   3.231  11.690  0.00  0.00    +0.000 C 
ATOM     21  C   UNL     1       3.637   3.315  11.270  0.00  0.00    +0.000 C 
ENDBRANCH  18  20
ENDBRANCH  16  18
ENDBRANCH  15  16
BRANCH  15  22
ATOM     22  C   UNL     1       7.551   5.327  15.353  0.00  0.00    +0.000 C 
BRANCH  22  23
ATOM     23  N   UNL     1       7.601   5.472  16.798  0.00  0.00    +0.000 N 
ATOM     24  C   UNL     1       7.425   6.628  17.509  0.00  0.00    +0.000 A 
ATOM     25  C   UNL     1       7.481   6.243  18.829  0.00  0.00    +0.000 A 
ATOM     26  N   UNL     1       7.680   4.892  18.934  0.00  0.00    +0.000 NA
ATOM     27  C   UNL     1       7.734   4.454  17.697  0.00  0.00    +0.000 A 
ENDBRANCH  22  23
ENDBRANCH  15  22
ENDBRANCH   1  15
TORSDOF 7
ENDMDL
MODEL 6
REMARK VINA RESULT:      -7.3      3.349      5.463
REMARK  Name = 
REMARK  9 active torsions:
REMARK  status: ('A' for Active; 'I' for Inactive)
REMARK    1  A    between atoms: C_1  and  C_2
REMARK    2  A    between atoms: C_2  and  C_3
REMARK    3  A    between atoms: C_2  and  O_4
REMARK    4  A    between atoms: O_4  and  C_5
REMARK    5  A    between atoms: C_5  and  C_7
REMARK    6  A    between atoms: C_7  and  C_8
REMARK    7  A    between atoms: C_7  and  N_14
REMARK    8  A    between atoms: C_8  and  N_9
REMARK    9  A    between atoms: C_15  and  C_17
REMARK                            x       y       z     vdW  Elec       q    Type
REMARK                         _______ _______ _______ _____ _____    ______ ____
ROOT
ATOM      1  N   UNL     1       5.582   6.067  18.053  0.00  0.00    +0.000 N 
ATOM      2  C   UNL     1       4.326   6.445  17.644  0.00  0.00    +0.000 C 
ATOM      3  O   UNL     1       4.113   7.196  16.706  0.00  0.00    +0.000 OA
ATOM      4  H   UNL     1       5.624   5.485  18.890  0.00  0.00    +0.000 HD
ENDROOT
BRANCH   2   5
ATOM      5  C   UNL     1       3.296   5.923  18.531  0.00  0.00    +0.000 A 
ATOM      6  N   UNL     1       2.247   5.246  18.109  0.00  0.00    +0.000 NA
ATOM      7  C   UNL     1       1.864   4.505  19.188  0.00  0.00    +0.000 A 
ATOM      8  C   UNL     1       0.975   3.426  19.248  0.00  0.00    +0.000 A 
ATOM      9  C   UNL     1       1.163   2.535  20.303  0.00  0.00    +0.000 A 
ATOM     10  C   UNL     1       1.832   2.935  21.464  0.00  0.00    +0.000 A 
ATOM     11  C   UNL     1       2.457   4.191  21.534  0.00  0.00    +0.000 A 
ATOM     12  C   UNL     1       2.578   4.860  20.331  0.00  0.00    +0.000 A 
ATOM     13  N   UNL     1       3.366   5.907  19.908  0.00  0.00    +0.000 N 
ATOM     14  H   UNL     1       4.087   6.360  20.449  0.00  0.00    +0.000 HD
ENDBRANCH   2   5
BRANCH   1  15
ATOM     15  C   UNL     1       6.832   6.489  17.434  0.00  0.00    +0.000 C 
BRANCH  15  16
ATOM     16  C   UNL     1       7.436   5.421  16.512  0.00  0.00    +0.000 C 
ATOM     17  O   UNL     1       7.949   4.390  16.945  0.00  0.00    +0.000 OA
BRANCH  16  18
ATOM     18  O   UNL     1       7.264   5.708  15.188  0.00  0.00    +0.000 OA
BRANCH  18  20
ATOM     19  C   UNL     1       5.524   4.317  14.305  0.00  0.00    +0.000 C 
ATOM     20  C   UNL     1       7.020   4.598  14.304  0.00  0.00    +0.000 C 
ATOM     21  C   UNL     1       7.505   4.969  12.910  0.00  0.00    +0.000 C 
ENDBRANCH  18  20
ENDBRANCH  16  18
ENDBRANCH  15  16
BRANCH  15  22
ATOM     22  C   UNL     1       7.915   6.923  18.439  0.00  0.00    +0.000 C 
BRANCH  22  23
ATOM     23  N   UNL     1       8.281   8.328  18.370  0.00  0.00    +0.000 N 
ATOM     24  C   UNL     1       7.826   9.246  17.463  0.00  0.00    +0.000 A 
ATOM     25  C   UNL     1       8.388  10.439  17.856  0.00  0.00    +0.000 A 
ATOM     26  N   UNL     1       9.162  10.268  18.973  0.00  0.00    +0.000 NA
ATOM     27  C   UNL     1       9.065   8.991  19.267  0.00  0.00    +0.000 A 
ENDBRANCH  22  23
ENDBRANCH  15  22
ENDBRANCH   1  15
TORSDOF 7
ENDMDL
MODEL 7
REMARK VINA RESULT:      -7.3      1.107      1.656
REMARK  Name = 
REMARK  9 active torsions:
REMARK  status: ('A' for Active; 'I' for Inactive)
REMARK    1  A    between atoms: C_1  and  C_2
REMARK    2  A    between atoms: C_2  and  C_3
REMARK    3  A    between atoms: C_2  and  O_4
REMARK    4  A    between atoms: O_4  and  C_5
REMARK    5  A    between atoms: C_5  and  C_7
REMARK    6  A    between atoms: C_7  and  C_8
REMARK    7  A    between atoms: C_7  and  N_14
REMARK    8  A    between atoms: C_8  and  N_9
REMARK    9  A    between atoms: C_15  and  C_17
REMARK                            x       y       z     vdW  Elec       q    Type
REMARK                         _______ _______ _______ _____ _____    ______ ____
ROOT
ATOM      1  N   UNL     1       3.156   5.809  18.757  0.00  0.00    +0.000 N 
ATOM      2  C   UNL     1       3.134   7.007  18.084  0.00  0.00    +0.000 C 
ATOM      3  O   UNL     1       3.947   7.325  17.232  0.00  0.00    +0.000 OA
ATOM      4  H   UNL     1       2.456   5.694  19.490  0.00  0.00    +0.000 HD
ENDROOT
BRANCH   2   5
ATOM      5  C   UNL     1       2.087   7.883  18.589  0.00  0.00    +0.000 A 
ATOM      6  N   UNL     1       1.703   7.906  19.850  0.00  0.00    +0.000 NA
ATOM      7  C   UNL     1       1.161   9.147  20.018  0.00  0.00    +0.000 A 
ATOM      8  C   UNL     1       0.826   9.812  21.202  0.00  0.00    +0.000 A 
ATOM      9  C   UNL     1       0.806  11.204  21.140  0.00  0.00    +0.000 A 
ATOM     10  C   UNL     1       0.640  11.860  19.916  0.00  0.00    +0.000 A 
ATOM     11  C   UNL     1       0.637  11.140  18.711  0.00  0.00    +0.000 A 
ATOM     12  C   UNL     1       1.056   9.826  18.806  0.00  0.00    +0.000 A 
ATOM     13  N   UNL     1       1.495   8.906  17.880  0.00  0.00    +0.000 N 
ATOM     14  H   UNL     1       1.644   9.081  16.897  0.00  0.00    +0.000 HD
ENDBRANCH   2   5
BRANCH   1  15
ATOM     15  C   UNL     1       4.133   4.747  18.553  0.00  0.00    +0.000 C 
BRANCH  15  16
ATOM     16  C   UNL     1       3.997   3.605  19.570  0.00  0.00    +0.000 C 
ATOM     17  O   UNL     1       4.846   2.722  19.687  0.00  0.00    +0.000 OA
BRANCH  16  18
ATOM     18  O   UNL     1       2.892   3.732  20.361  0.00  0.00    +0.000 OA
BRANCH  18  20
ATOM     19  C   UNL     1       1.396   2.528  21.796  0.00  0.00    +0.000 C 
ATOM     20  C   UNL     1       1.978   2.619  20.392  0.00  0.00    +0.000 C 
ATOM     21  C   UNL     1       0.884   2.858  19.361  0.00  0.00    +0.000 C 
ENDBRANCH  18  20
ENDBRANCH  16  18
ENDBRANCH  15  16
BRANCH  15  22
ATOM     22  C   UNL     1       5.595   5.227  18.563  0.00  0.00    +0.000 C 
BRANCH  22  23
ATOM     23  N   UNL     1       6.274   5.137  17.282  0.00  0.00    +0.000 N 
ATOM     24  C   UNL     1       6.048   4.210  16.302  0.00  0.00    +0.000 A 
ATOM     25  C   UNL     1       6.866   4.587  15.262  0.00  0.00    +0.000 A 
ATOM     26  N   UNL     1       7.574   5.714  15.584  0.00  0.00    +0.000 NA
ATOM     27  C   UNL     1       7.185   6.030  16.799  0.00  0.00    +0.000 A 
ENDBRANCH  22  23
ENDBRANCH  15  22
ENDBRANCH   1  15
TORSDOF 7
ENDMDL
MODEL 8
REMARK VINA RESULT:      -7.3      0.875      1.114
REMARK  Name = 
REMARK  9 active torsions:
REMARK  status: ('A' for Active; 'I' for Inactive)
REMARK    1  A    between atoms: C_1  and  C_2
REMARK    2  A    between atoms: C_2  and  C_3
REMARK    3  A    between atoms: C_2  and  O_4
REMARK    4  A    between atoms: O_4  and  C_5
REMARK    5  A    between atoms: C_5  and  C_7
REMARK    6  A    between atoms: C_7  and  C_8
REMARK    7  A    between atoms: C_7  and  N_14
REMARK    8  A    between atoms: C_8  and  N_9
REMARK    9  A    between atoms: C_15  and  C_17
REMARK                            x       y       z     vdW  Elec       q    Type
REMARK                         _______ _______ _______ _____ _____    ______ ____
ROOT
ATOM      1  N   UNL     1       3.581   5.443  18.775  0.00  0.00    +0.000 N 
ATOM      2  C   UNL     1       2.369   6.039  18.516  0.00  0.00    +0.000 C 
ATOM      3  O   UNL     1       1.582   5.642  17.673  0.00  0.00    +0.000 OA
ATOM      4  H   UNL     1       4.172   5.912  19.461  0.00  0.00    +0.000 HD
ENDROOT
BRANCH   2   5
ATOM      5  C   UNL     1       2.195   7.254  19.298  0.00  0.00    +0.000 A 
ATOM      6  N   UNL     1       1.964   8.437  18.763  0.00  0.00    +0.000 NA
ATOM      7  C   UNL     1       1.343   9.142  19.752  0.00  0.00    +0.000 A 
ATOM      8  C   UNL     1       0.650  10.355  19.671  0.00  0.00    +0.000 A 
ATOM      9  C   UNL     1      -0.312  10.578  20.654  0.00  0.00    +0.000 A 
ATOM     10  C   UNL     1      -0.249   9.907  21.879  0.00  0.00    +0.000 A 
ATOM     11  C   UNL     1       0.695   8.889  22.091  0.00  0.00    +0.000 A 
ATOM     12  C   UNL     1       1.349   8.444  20.958  0.00  0.00    +0.000 A 
ATOM     13  N   UNL     1       2.071   7.307  20.670  0.00  0.00    +0.000 N 
ATOM     14  H   UNL     1       2.203   6.519  21.286  0.00  0.00    +0.000 HD
ENDBRANCH   2   5
BRANCH   1  15
ATOM     15  C   UNL     1       4.099   4.261  18.099  0.00  0.00    +0.000 C 
BRANCH  15  16
ATOM     16  C   UNL     1       3.685   2.951  18.783  0.00  0.00    +0.000 C 
ATOM     17  O   UNL     1       3.897   1.848  18.280  0.00  0.00    +0.000 OA
BRANCH  16  18
ATOM     18  O   UNL     1       3.142   3.150  20.021  0.00  0.00    +0.000 OA
BRANCH  18  20
ATOM     19  C   UNL     1       1.584   2.709  21.787  0.00  0.00    +0.000 C 
ATOM     20  C   UNL     1       1.966   2.387  20.349  0.00  0.00    +0.000 C 
ATOM     21  C   UNL     1       0.850   2.773  19.388  0.00  0.00    +0.000 C 
ENDBRANCH  18  20
ENDBRANCH  16  18
ENDBRANCH  15  16
BRANCH  15  22
ATOM     22  C   UNL     1       5.630   4.252  17.933  0.00  0.00    +0.000 C 
BRANCH  22  23
ATOM     23  N   UNL     1       6.093   4.384  16.562  0.00  0.00    +0.000 N 
ATOM     24  C   UNL     1       7.013   5.282  16.093  0.00  0.00    +0.000 A 
ATOM     25  C   UNL     1       7.176   4.960  14.765  0.00  0.00    +0.000 A 
ATOM     26  N   UNL     1       6.388   3.895  14.422  0.00  0.00    +0.000 NA
ATOM     27  C   UNL     1       5.759   3.561  15.527  0.00  0.00    +0.000 A 
ENDBRANCH  22  23
ENDBRANCH  15  22
ENDBRANCH   1  15
TORSDOF 7
ENDMDL
MODEL 9
REMARK VINA RESULT:      -7.3      1.845      4.177
REMARK  Name = 
REMARK  9 active torsions:
REMARK  status: ('A' for Active; 'I' for Inactive)
REMARK    1  A    between atoms: C_1  and  C_2
REMARK    2  A    between atoms: C_2  and  C_3
REMARK    3  A    between atoms: C_2  and  O_4
REMARK    4  A    between atoms: O_4  and  C_5
REMARK    5  A    between atoms: C_5  and  C_7
REMARK    6  A    between atoms: C_7  and  C_8
REMARK    7  A    between atoms: C_7  and  N_14
REMARK    8  A    between atoms: C_8  and  N_9
REMARK    9  A    between atoms: C_15  and  C_17
REMARK                            x       y       z     vdW  Elec       q    Type
REMARK                         _______ _______ _______ _____ _____    ______ ____
ROOT
ATOM      1  N   UNL     1       3.946   5.608  18.778  0.00  0.00    +0.000 N 
ATOM      2  C   UNL     1       3.058   5.867  19.794  0.00  0.00    +0.000 C 
ATOM      3  O   UNL     1       2.676   5.029  20.595  0.00  0.00    +0.000 OA
ATOM      4  H   UNL     1       4.134   6.382  18.141  0.00  0.00    +0.000 HD
ENDROOT
BRANCH   2   5
ATOM      5  C   UNL     1       2.556   7.232  19.729  0.00  0.00    +0.000 A 
ATOM      6  N   UNL     1       2.484   7.928  18.613  0.00  0.00    +0.000 NA
ATOM      7  C   UNL     1       1.514   8.857  18.853  0.00  0.00    +0.000 A 
ATOM      8  C   UNL     1       0.846   9.691  17.950  0.00  0.00    +0.000 A 
ATOM      9  C   UNL     1      -0.417  10.130  18.340  0.00  0.00    +0.000 A 
ATOM     10  C   UNL     1      -0.776  10.158  19.691  0.00  0.00    +0.000 A 
ATOM     11  C   UNL     1       0.069   9.610  20.669  0.00  0.00    +0.000 A 
ATOM     12  C   UNL     1       1.111   8.841  20.187  0.00  0.00    +0.000 A 
ATOM     13  N   UNL     1       1.938   7.902  20.763  0.00  0.00    +0.000 N 
ATOM     14  H   UNL     1       1.870   7.557  21.709  0.00  0.00    +0.000 HD
ENDBRANCH   2   5
BRANCH   1  15
ATOM     15  C   UNL     1       4.565   4.316  18.510  0.00  0.00    +0.000 C 
BRANCH  15  16
ATOM     16  C   UNL     1       5.993   4.439  17.960  0.00  0.00    +0.000 C 
ATOM     17  O   UNL     1       6.963   4.655  18.686  0.00  0.00    +0.000 OA
BRANCH  16  18
ATOM     18  O   UNL     1       6.064   4.206  16.616  0.00  0.00    +0.000 OA
BRANCH  18  20
ATOM     19  C   UNL     1       6.983   4.722  14.464  0.00  0.00    +0.000 C 
ATOM     20  C   UNL     1       6.491   5.300  15.784  0.00  0.00    +0.000 C 
ATOM     21  C   UNL     1       5.310   6.235  15.564  0.00  0.00    +0.000 C 
ENDBRANCH  18  20
ENDBRANCH  16  18
ENDBRANCH  15  16
BRANCH  15  22
ATOM     22  C   UNL     1       3.759   3.420  17.553  0.00  0.00    +0.000 C 
BRANCH  22  23
ATOM     23  N   UNL     1       2.535   2.876  18.117  0.00  0.00    +0.000 N 
ATOM     24  C   UNL     1       2.439   1.898  19.069  0.00  0.00    +0.000 A 
ATOM     25  C   UNL     1       1.092   1.790  19.331  0.00  0.00    +0.000 A 
ATOM     26  N   UNL     1       0.377   2.676  18.570  0.00  0.00    +0.000 NA
ATOM     27  C   UNL     1       1.272   3.325  17.862  0.00  0.00    +0.000 A 
ENDBRANCH  22  23
ENDBRANCH  15  22
ENDBRANCH   1  15
TORSDOF 7
ENDMDL
