MODEL 1
REMARK VINA RESULT:      -7.6      0.000      0.000
REMARK  Name = 
REMARK  2 active torsions:
REMARK  status: ('A' for Active; 'I' for Inactive)
REMARK    1  A    between atoms: C_2  and  C_11
REMARK    2  A    between atoms: N_3  and  C_4
REMARK                            x       y       z     vdW  Elec       q    Type
REMARK                         _______ _______ _______ _____ _____    ______ ____
ROOT
ATOM      1  O   UNL     1       5.655   3.971  19.080  0.00  0.00    +0.000 OA
ATOM      2  C   UNL     1       5.062   4.174  18.026  0.00  0.00    +0.000 C 
ATOM      3  N   UNL     1       3.696   4.089  17.832  0.00  0.00    +0.000 N 
ATOM      4  H   UNL     1       3.381   3.844  16.899  0.00  0.00    +0.000 HD
ENDROOT
BRANCH   2   5
ATOM      5  C   UNL     1       5.864   4.445  16.813  0.00  0.00    +0.000 A 
ATOM      6  C   UNL     1       6.823   5.456  16.855  0.00  0.00    +0.000 A 
ATOM      7  C   UNL     1       7.524   5.784  15.693  0.00  0.00    +0.000 A 
ATOM      8  C   UNL     1       7.265   5.142  14.491  0.00  0.00    +0.000 A 
ATOM      9  N   UNL     1       7.939   5.516  13.386  0.00  0.00    +0.000 NA
ATOM     10  C   UNL     1       7.625   4.868  12.243  0.00  0.00    +0.000 A 
ATOM     11  C   UNL     1       6.672   3.872  12.204  0.00  0.00    +0.000 A 
ATOM     12  N   UNL     1       5.995   3.473  13.307  0.00  0.00    +0.000 NA
ATOM     13  C   UNL     1       6.290   4.110  14.455  0.00  0.00    +0.000 A 
ATOM     14  C   UNL     1       5.610   3.773  15.614  0.00  0.00    +0.000 A 
ENDBRANCH   2   5
BRANCH   3  15
ATOM     15  C   UNL     1       2.799   3.796  18.888  0.00  0.00    +0.000 A 
ATOM     16  C   UNL     1       2.479   2.470  19.205  0.00  0.00    +0.000 A 
ATOM     17  C   UNL     1       1.603   2.184  20.255  0.00  0.00    +0.000 A 
ATOM     18  C   UNL     1       1.023   3.221  20.982  0.00  0.00    +0.000 A 
ATOM     19  C   UNL     1       1.332   4.546  20.673  0.00  0.00    +0.000 A 
ATOM     20  C   UNL     1       2.234   4.832  19.644  0.00  0.00    +0.000 A 
ATOM     21 BR   UNL     1       2.577   6.655  19.232  0.00  0.00    +0.000 Br
ENDBRANCH   3  15
TORSDOF 2
ENDMDL
MODEL 2
REMARK VINA RESULT:      -7.4      1.112      1.112
REMARK  Name = 
REMARK  2 active torsions:
REMARK  status: ('A' for Active; 'I' for Inactive)
REMARK    1  A    between atoms: C_2  and  C_11
REMARK    2  A    between atoms: N_3  and  C_4
REMARK                            x       y       z     vdW  Elec       q    Type
REMARK                         _______ _______ _______ _____ _____    ______ ____
ROOT
ATOM      1  O   UNL     1       3.138   3.307  16.941  0.00  0.00    +0.000 OA
ATOM      2  C   UNL     1       4.181   3.783  17.375  0.00  0.00    +0.000 C 
ATOM      3  N   UNL     1       4.451   4.079  18.699  0.00  0.00    +0.000 N 
ATOM      4  H   UNL     1       5.110   4.831  18.873  0.00  0.00    +0.000 HD
ENDROOT
BRANCH   2   5
ATOM      5  C   UNL     1       5.231   4.171  16.407  0.00  0.00    +0.000 A 
ATOM      6  C   UNL     1       6.165   5.135  16.781  0.00  0.00    +0.000 A 
ATOM      7  C   UNL     1       7.104   5.577  15.848  0.00  0.00    +0.000 A 
ATOM      8  C   UNL     1       7.109   5.094  14.548  0.00  0.00    +0.000 A 
ATOM      9  N   UNL     1       8.011   5.576  13.670  0.00  0.00    +0.000 NA
ATOM     10  C   UNL     1       7.948   5.083  12.414  0.00  0.00    +0.000 A 
ATOM     11  C   UNL     1       7.019   4.132  12.046  0.00  0.00    +0.000 A 
ATOM     12  N   UNL     1       6.115   3.626  12.917  0.00  0.00    +0.000 NA
ATOM     13  C   UNL     1       6.157   4.109  14.173  0.00  0.00    +0.000 A 
ATOM     14  C   UNL     1       5.238   3.658  15.107  0.00  0.00    +0.000 A 
ENDBRANCH   2   5
BRANCH   3  15
ATOM     15  C   UNL     1       3.529   3.805  19.737  0.00  0.00    +0.000 A 
ATOM     16  C   UNL     1       3.529   2.562  20.382  0.00  0.00    +0.000 A 
ATOM     17  C   UNL     1       2.625   2.298  21.413  0.00  0.00    +0.000 A 
ATOM     18  C   UNL     1       1.699   3.266  21.794  0.00  0.00    +0.000 A 
ATOM     19  C   UNL     1       1.687   4.508  21.158  0.00  0.00    +0.000 A 
ATOM     20  C   UNL     1       2.614   4.784  20.148  0.00  0.00    +0.000 A 
ATOM     21 BR   UNL     1       2.517   6.471  19.278  0.00  0.00    +0.000 Br
ENDBRANCH   3  15
TORSDOF 2
ENDMDL
MODEL 3
REMARK VINA RESULT:      -7.3      4.002      7.837
REMARK  Name = 
REMARK  2 active torsions:
REMARK  status: ('A' for Active; 'I' for Inactive)
REMARK    1  A    between atoms: C_2  and  C_11
REMARK    2  A    between atoms: N_3  and  C_4
REMARK                            x       y       z     vdW  Elec       q    Type
REMARK                         _______ _______ _______ _____ _____    ______ ____
ROOT
ATOM      1  O   UNL     1       2.781   5.338  17.832  0.00  0.00    +0.000 OA
ATOM      2  C   UNL     1       3.185   6.495  17.815  0.00  0.00    +0.000 C 
ATOM      3  N   UNL     1       4.389   6.929  17.291  0.00  0.00    +0.000 N 
ATOM      4  H   UNL     1       4.794   7.762  17.705  0.00  0.00    +0.000 HD
ENDROOT
BRANCH   2   5
ATOM      5  C   UNL     1       2.372   7.531  18.490  0.00  0.00    +0.000 A 
ATOM      6  C   UNL     1       1.966   8.647  17.759  0.00  0.00    +0.000 A 
ATOM      7  C   UNL     1       1.276   9.674  18.406  0.00  0.00    +0.000 A 
ATOM      8  C   UNL     1       1.012   9.619  19.766  0.00  0.00    +0.000 A 
ATOM      9  N   UNL     1       0.376  10.651  20.356  0.00  0.00    +0.000 NA
ATOM     10  C   UNL     1       0.169  10.546  21.686  0.00  0.00    +0.000 A 
ATOM     11  C   UNL     1       0.577   9.443  22.407  0.00  0.00    +0.000 A 
ATOM     12  N   UNL     1       1.205   8.391  21.829  0.00  0.00    +0.000 NA
ATOM     13  C   UNL     1       1.425   8.479  20.504  0.00  0.00    +0.000 A 
ATOM     14  C   UNL     1       2.092   7.451  19.857  0.00  0.00    +0.000 A 
ENDBRANCH   2   5
BRANCH   3  15
ATOM     15  C   UNL     1       5.295   6.049  16.650  0.00  0.00    +0.000 A 
ATOM     16  C   UNL     1       5.247   5.862  15.263  0.00  0.00    +0.000 A 
ATOM     17  C   UNL     1       6.148   5.002  14.632  0.00  0.00    +0.000 A 
ATOM     18  C   UNL     1       7.090   4.304  15.384  0.00  0.00    +0.000 A 
ATOM     19  C   UNL     1       7.146   4.480  16.767  0.00  0.00    +0.000 A 
ATOM     20  C   UNL     1       6.265   5.367  17.395  0.00  0.00    +0.000 A 
ATOM     21 BR   UNL     1       6.350   5.526  19.288  0.00  0.00    +0.000 Br
ENDBRANCH   3  15
TORSDOF 2
ENDMDL
MODEL 4
REMARK VINA RESULT:      -7.3      1.268      1.664
REMARK  Name = 
REMARK  2 active torsions:
REMARK  status: ('A' for Active; 'I' for Inactive)
REMARK    1  A    between atoms: C_2  and  C_11
REMARK    2  A    between atoms: N_3  and  C_4
REMARK                            x       y       z     vdW  Elec       q    Type
REMARK                         _______ _______ _______ _____ _____    ______ ____
ROOT
ATOM      1  O   UNL     1       5.812   4.097  18.998  0.00  0.00    +0.000 OA
ATOM      2  C   UNL     1       5.174   4.302  17.972  0.00  0.00    +0.000 C 
ATOM      3  N   UNL     1       3.797   4.265  17.848  0.00  0.00    +0.000 N 
ATOM      4  H   UNL     1       3.427   4.016  16.937  0.00  0.00    +0.000 HD
ENDROOT
BRANCH   2   5
ATOM      5  C   UNL     1       5.923   4.522  16.714  0.00  0.00    +0.000 A 
ATOM      6  C   UNL     1       6.861   5.552  16.663  0.00  0.00    +0.000 A 
ATOM      7  C   UNL     1       7.508   5.829  15.458  0.00  0.00    +0.000 A 
ATOM      8  C   UNL     1       7.217   5.117  14.304  0.00  0.00    +0.000 A 
ATOM      9  N   UNL     1       7.840   5.443  13.154  0.00  0.00    +0.000 NA
ATOM     10  C   UNL     1       7.494   4.728  12.062  0.00  0.00    +0.000 A 
ATOM     11  C   UNL     1       6.562   3.713  12.114  0.00  0.00    +0.000 A 
ATOM     12  N   UNL     1       5.937   3.362  13.264  0.00  0.00    +0.000 NA
ATOM     13  C   UNL     1       6.263   4.067  14.363  0.00  0.00    +0.000 A 
ATOM     14  C   UNL     1       5.636   3.780  15.565  0.00  0.00    +0.000 A 
ENDBRANCH   2   5
BRANCH   3  15
ATOM     15  C   UNL     1       2.946   4.025  18.954  0.00  0.00    +0.000 A 
ATOM     16  C   UNL     1       2.328   5.088  19.623  0.00  0.00    +0.000 A 
ATOM     17  C   UNL     1       1.480   4.847  20.706  0.00  0.00    +0.000 A 
ATOM     18  C   UNL     1       1.262   3.543  21.145  0.00  0.00    +0.000 A 
ATOM     19  C   UNL     1       1.874   2.476  20.488  0.00  0.00    +0.000 A 
ATOM     20  C   UNL     1       2.696   2.714  19.383  0.00  0.00    +0.000 A 
ATOM     21 BR   UNL     1       3.548   1.227  18.560  0.00  0.00    +0.000 Br
ENDBRANCH   3  15
TORSDOF 2
ENDMDL
MODEL 5
REMARK VINA RESULT:      -7.2      1.690      1.932
REMARK  Name = 
REMARK  2 active torsions:
REMARK  status: ('A' for Active; 'I' for Inactive)
REMARK    1  A    between atoms: C_2  and  C_11
REMARK    2  A    between atoms: N_3  and  C_4
REMARK                            x       y       z     vdW  Elec       q    Type
REMARK                         _______ _______ _______ _____ _____    ______ ____
ROOT
ATOM      1  O   UNL     1       3.009   3.178  16.805  0.00  0.00    +0.000 OA
ATOM      2  C   UNL     1       3.999   3.704  17.303  0.00  0.00    +0.000 C 
ATOM      3  N   UNL     1       4.156   4.045  18.634  0.00  0.00    +0.000 N 
ATOM      4  H   UNL     1       4.772   4.826  18.836  0.00  0.00    +0.000 HD
ENDROOT
BRANCH   2   5
ATOM      5  C   UNL     1       5.104   4.108  16.406  0.00  0.00    +0.000 A 
ATOM      6  C   UNL     1       6.039   5.033  16.868  0.00  0.00    +0.000 A 
ATOM      7  C   UNL     1       7.034   5.490  16.002  0.00  0.00    +0.000 A 
ATOM      8  C   UNL     1       7.094   5.064  14.684  0.00  0.00    +0.000 A 
ATOM      9  N   UNL     1       8.050   5.560  13.874  0.00  0.00    +0.000 NA
ATOM     10  C   UNL     1       8.040   5.122  12.596  0.00  0.00    +0.000 A 
ATOM     11  C   UNL     1       7.110   4.211  12.141  0.00  0.00    +0.000 A 
ATOM     12  N   UNL     1       6.151   3.691  12.944  0.00  0.00    +0.000 NA
ATOM     13  C   UNL     1       6.141   4.119  14.220  0.00  0.00    +0.000 A 
ATOM     14  C   UNL     1       5.166   3.651  15.086  0.00  0.00    +0.000 A 
ENDBRANCH   2   5
BRANCH   3  15
ATOM     15  C   UNL     1       3.167   3.762  19.608  0.00  0.00    +0.000 A 
ATOM     16  C   UNL     1       1.997   4.528  19.680  0.00  0.00    +0.000 A 
ATOM     17  C   UNL     1       1.019   4.240  20.634  0.00  0.00    +0.000 A 
ATOM     18  C   UNL     1       1.212   3.198  21.539  0.00  0.00    +0.000 A 
ATOM     19  C   UNL     1       2.375   2.430  21.478  0.00  0.00    +0.000 A 
ATOM     20  C   UNL     1       3.340   2.697  20.502  0.00  0.00    +0.000 A 
ATOM     21 BR   UNL     1       4.929   1.654  20.500  0.00  0.00    +0.000 Br
ENDBRANCH   3  15
TORSDOF 2
ENDMDL
MODEL 6
REMARK VINA RESULT:      -7.2      4.132      7.739
REMARK  Name = 
REMARK  2 active torsions:
REMARK  status: ('A' for Active; 'I' for Inactive)
REMARK    1  A    between atoms: C_2  and  C_11
REMARK    2  A    between atoms: N_3  and  C_4
REMARK                            x       y       z     vdW  Elec       q    Type
REMARK                         _______ _______ _______ _____ _____    ______ ____
ROOT
ATOM      1  O   UNL     1       2.831   5.270  17.976  0.00  0.00    +0.000 OA
ATOM      2  C   UNL     1       3.249   6.421  18.033  0.00  0.00    +0.000 C 
ATOM      3  N   UNL     1       4.436   6.883  17.492  0.00  0.00    +0.000 N 
ATOM      4  H   UNL     1       4.870   7.675  17.953  0.00  0.00    +0.000 HD
ENDROOT
BRANCH   2   5
ATOM      5  C   UNL     1       2.482   7.407  18.826  0.00  0.00    +0.000 A 
ATOM      6  C   UNL     1       2.137   7.089  20.138  0.00  0.00    +0.000 A 
ATOM      7  C   UNL     1       1.336   7.971  20.868  0.00  0.00    +0.000 A 
ATOM      8  C   UNL     1       0.857   9.143  20.303  0.00  0.00    +0.000 A 
ATOM      9  N   UNL     1       0.057   9.946  21.032  0.00  0.00    +0.000 NA
ATOM     10  C   UNL     1      -0.396  11.060  20.417  0.00  0.00    +0.000 A 
ATOM     11  C   UNL     1      -0.056  11.368  19.117  0.00  0.00    +0.000 A 
ATOM     12  N   UNL     1       0.757  10.581  18.374  0.00  0.00    +0.000 NA
ATOM     13  C   UNL     1       1.215   9.463  18.967  0.00  0.00    +0.000 A 
ATOM     14  C   UNL     1       2.026   8.596  18.251  0.00  0.00    +0.000 A 
ENDBRANCH   2   5
BRANCH   3  15
ATOM     15  C   UNL     1       5.299   6.048  16.742  0.00  0.00    +0.000 A 
ATOM     16  C   UNL     1       5.139   5.917  15.357  0.00  0.00    +0.000 A 
ATOM     17  C   UNL     1       5.999   5.101  14.618  0.00  0.00    +0.000 A 
ATOM     18  C   UNL     1       7.012   4.392  15.261  0.00  0.00    +0.000 A 
ATOM     19  C   UNL     1       7.179   4.512  16.640  0.00  0.00    +0.000 A 
ATOM     20  C   UNL     1       6.339   5.355  17.375  0.00  0.00    +0.000 A 
ATOM     21 BR   UNL     1       6.578   5.438  19.260  0.00  0.00    +0.000 Br
ENDBRANCH   3  15
TORSDOF 2
ENDMDL
MODEL 7
REMARK VINA RESULT:      -7.2      1.102      1.151
REMARK  Name = 
REMARK  2 active torsions:
REMARK  status: ('A' for Active; 'I' for Inactive)
REMARK    1  A    between atoms: C_2  and  C_11
REMARK    2  A    between atoms: N_3  and  C_4
REMARK                            x       y       z     vdW  Elec       q    Type
REMARK                         _______ _______ _______ _____ _____    ______ ____
ROOT
ATOM      1  O   UNL     1       4.797   5.538  18.958  0.00  0.00    +0.000 OA
ATOM      2  C   UNL     1       4.759   4.639  18.126  0.00  0.00    +0.000 C 
ATOM      3  N   UNL     1       4.031   3.467  18.227  0.00  0.00    +0.000 N 
ATOM      4  H   UNL     1       4.399   2.657  17.739  0.00  0.00    +0.000 HD
ENDROOT
BRANCH   2   5
ATOM      5  C   UNL     1       5.631   4.748  16.935  0.00  0.00    +0.000 A 
ATOM      6  C   UNL     1       6.694   5.649  16.964  0.00  0.00    +0.000 A 
ATOM      7  C   UNL     1       7.470   5.828  15.817  0.00  0.00    +0.000 A 
ATOM      8  C   UNL     1       7.187   5.147  14.643  0.00  0.00    +0.000 A 
ATOM      9  N   UNL     1       7.940   5.379  13.549  0.00  0.00    +0.000 NA
ATOM     10  C   UNL     1       7.598   4.702  12.431  0.00  0.00    +0.000 A 
ATOM     11  C   UNL     1       6.543   3.815  12.405  0.00  0.00    +0.000 A 
ATOM     12  N   UNL     1       5.784   3.559  13.498  0.00  0.00    +0.000 NA
ATOM     13  C   UNL     1       6.105   4.228  14.621  0.00  0.00    +0.000 A 
ATOM     14  C   UNL     1       5.348   4.037  15.766  0.00  0.00    +0.000 A 
ENDBRANCH   2   5
BRANCH   3  15
ATOM     15  C   UNL     1       3.182   3.198  19.328  0.00  0.00    +0.000 A 
ATOM     16  C   UNL     1       3.684   2.585  20.483  0.00  0.00    +0.000 A 
ATOM     17  C   UNL     1       2.846   2.331  21.571  0.00  0.00    +0.000 A 
ATOM     18  C   UNL     1       1.496   2.667  21.506  0.00  0.00    +0.000 A 
ATOM     19  C   UNL     1       0.984   3.276  20.360  0.00  0.00    +0.000 A 
ATOM     20  C   UNL     1       1.829   3.560  19.283  0.00  0.00    +0.000 A 
ATOM     21 BR   UNL     1       1.068   4.341  17.726  0.00  0.00    +0.000 Br
ENDBRANCH   3  15
TORSDOF 2
ENDMDL
MODEL 8
REMARK VINA RESULT:      -7.1      5.298      8.908
REMARK  Name = 
REMARK  2 active torsions:
REMARK  status: ('A' for Active; 'I' for Inactive)
REMARK    1  A    between atoms: C_2  and  C_11
REMARK    2  A    between atoms: N_3  and  C_4
REMARK                            x       y       z     vdW  Elec       q    Type
REMARK                         _______ _______ _______ _____ _____    ______ ____
ROOT
ATOM      1  O   UNL     1       1.678   8.458  17.762  0.00  0.00    +0.000 OA
ATOM      2  C   UNL     1       1.936   8.116  18.910  0.00  0.00    +0.000 C 
ATOM      3  N   UNL     1       2.686   7.015  19.283  0.00  0.00    +0.000 N 
ATOM      4  H   UNL     1       2.470   6.599  20.183  0.00  0.00    +0.000 HD
ENDROOT
BRANCH   2   5
ATOM      5  C   UNL     1       1.327   8.879  20.022  0.00  0.00    +0.000 A 
ATOM      6  C   UNL     1       1.488   8.411  21.325  0.00  0.00    +0.000 A 
ATOM      7  C   UNL     1       0.844   9.069  22.374  0.00  0.00    +0.000 A 
ATOM      8  C   UNL     1       0.025  10.164  22.141  0.00  0.00    +0.000 A 
ATOM      9  N   UNL     1      -0.607  10.746  23.180  0.00  0.00    +0.000 NA
ATOM     10  C   UNL     1      -1.408  11.793  22.885  0.00  0.00    +0.000 A 
ATOM     11  C   UNL     1      -1.569  12.251  21.594  0.00  0.00    +0.000 A 
ATOM     12  N   UNL     1      -0.932  11.687  20.540  0.00  0.00    +0.000 NA
ATOM     13  C   UNL     1      -0.133  10.639  20.813  0.00  0.00    +0.000 A 
ATOM     14  C   UNL     1       0.524   9.996  19.775  0.00  0.00    +0.000 A 
ENDBRANCH   2   5
BRANCH   3  15
ATOM     15  C   UNL     1       3.299   6.163  18.333  0.00  0.00    +0.000 A 
ATOM     16  C   UNL     1       4.305   6.645  17.487  0.00  0.00    +0.000 A 
ATOM     17  C   UNL     1       4.916   5.799  16.558  0.00  0.00    +0.000 A 
ATOM     18  C   UNL     1       4.511   4.470  16.452  0.00  0.00    +0.000 A 
ATOM     19  C   UNL     1       3.508   3.979  17.288  0.00  0.00    +0.000 A 
ATOM     20  C   UNL     1       2.919   4.817  18.241  0.00  0.00    +0.000 A 
ATOM     21 BR   UNL     1       1.520   4.110  19.315  0.00  0.00    +0.000 Br
ENDBRANCH   3  15
TORSDOF 2
ENDMDL
MODEL 9
REMARK VINA RESULT:      -7.1      4.903      8.592
REMARK  Name = 
REMARK  2 active torsions:
REMARK  status: ('A' for Active; 'I' for Inactive)
REMARK    1  A    between atoms: C_2  and  C_11
REMARK    2  A    between atoms: N_3  and  C_4
REMARK                            x       y       z     vdW  Elec       q    Type
REMARK                         _______ _______ _______ _____ _____    ______ ____
ROOT
ATOM      1  O   UNL     1       2.647   8.696  17.083  0.00  0.00    +0.000 OA
ATOM      2  C   UNL     1       2.376   8.192  18.167  0.00  0.00    +0.000 C 
ATOM      3  N   UNL     1       2.801   6.956  18.619  0.00  0.00    +0.000 N 
ATOM      4  H   UNL     1       2.196   6.478  19.279  0.00  0.00    +0.000 HD
ENDROOT
BRANCH   2   5
ATOM      5  C   UNL     1       1.433   8.907  19.055  0.00  0.00    +0.000 A 
ATOM      6  C   UNL     1       0.701   9.974  18.537  0.00  0.00    +0.000 A 
ATOM      7  C   UNL     1      -0.123  10.715  19.385  0.00  0.00    +0.000 A 
ATOM      8  C   UNL     1      -0.207  10.427  20.739  0.00  0.00    +0.000 A 
ATOM      9  N   UNL     1      -0.988  11.193  21.528  0.00  0.00    +0.000 NA
ATOM     10  C   UNL     1      -1.008  10.875  22.840  0.00  0.00    +0.000 A 
ATOM     11  C   UNL     1      -0.279   9.822  23.351  0.00  0.00    +0.000 A 
ATOM     12  N   UNL     1       0.499   9.034  22.572  0.00  0.00    +0.000 NA
ATOM     13  C   UNL     1       0.538   9.337  21.261  0.00  0.00    +0.000 A 
ATOM     14  C   UNL     1       1.340   8.591  20.413  0.00  0.00    +0.000 A 
ENDBRANCH   2   5
BRANCH   3  15
ATOM     15  C   UNL     1       3.672   6.134  17.863  0.00  0.00    +0.000 A 
ATOM     16  C   UNL     1       4.904   6.625  17.414  0.00  0.00    +0.000 A 
ATOM     17  C   UNL     1       5.766   5.808  16.678  0.00  0.00    +0.000 A 
ATOM     18  C   UNL     1       5.394   4.503  16.366  0.00  0.00    +0.000 A 
ATOM     19  C   UNL     1       4.168   4.004  16.806  0.00  0.00    +0.000 A 
ATOM     20  C   UNL     1       3.320   4.810  17.571  0.00  0.00    +0.000 A 
ATOM     21 BR   UNL     1       1.638   4.097  18.098  0.00  0.00    +0.000 Br
ENDBRANCH   3  15
TORSDOF 2
ENDMDL
