MODEL 1
REMARK VINA RESULT:      -9.7      0.000      0.000
REMARK  Name = 
REMARK  7 active torsions:
REMARK  status: ('A' for Active; 'I' for Inactive)
REMARK    1  A    between atoms: C_1  and  C_2
REMARK    2  A    between atoms: N_4  and  C_5
REMARK    3  A    between atoms: C_8  and  C_9
REMARK    4  A    between atoms: N_13  and  C_14
REMARK    5  A    between atoms: C_14  and  C_15
REMARK    6  A    between atoms: C_14  and  C_16
REMARK    7  A    between atoms: C_26  and  C_27
REMARK                            x       y       z     vdW  Elec       q    Type
REMARK                         _______ _______ _______ _____ _____    ______ ____
ROOT
ATOM      1  C   UNL     1       3.073   6.578  18.187  0.00  0.00    +0.000 A 
ATOM      2  C   UNL     1       3.269   7.904  17.756  0.00  0.00    +0.000 A 
ATOM      3  C   UNL     1       2.526   8.956  18.294  0.00  0.00    +0.000 A 
ATOM      4  C   UNL     1       1.569   8.732  19.287  0.00  0.00    +0.000 A 
ATOM      5  C   UNL     1       1.427   7.402  19.741  0.00  0.00    +0.000 A 
ATOM      6  C   UNL     1       2.159   6.295  19.231  0.00  0.00    +0.000 A 
ENDROOT
BRANCH   4   7
ATOM      7  C   UNL     1       0.729   9.827  19.825  0.00  0.00    +0.000 A 
ATOM      8  C   UNL     1      -0.265  10.454  19.067  0.00  0.00    +0.000 A 
ATOM      9  C   UNL     1      -1.057  11.462  19.624  0.00  0.00    +0.000 A 
ATOM     10  C   UNL     1      -0.891  11.809  20.960  0.00  0.00    +0.000 A 
ATOM     11  N   UNL     1      -1.751  12.757  21.493  0.00  0.00    +0.000 N 
ATOM     12  N   UNL     1       0.053  11.233  21.718  0.00  0.00    +0.000 NA
ATOM     13  C   UNL     1       0.843  10.293  21.136  0.00  0.00    +0.000 A 
ATOM     14  H   UNL     1      -1.630  13.660  21.053  0.00  0.00    +0.000 HD
BRANCH  11  15
ATOM     15  C   UNL     1      -1.953  12.795  22.937  0.00  0.00    +0.000 C 
ATOM     16  C   UNL     1      -1.354  14.040  23.588  0.00  0.00    +0.000 C 
BRANCH  15  17
ATOM     17  C   UNL     1      -3.462  12.711  23.164  0.00  0.00    +0.000 A 
ATOM     18  C   UNL     1      -4.344  12.971  22.100  0.00  0.00    +0.000 A 
ATOM     19  C   UNL     1      -5.724  12.995  22.314  0.00  0.00    +0.000 A 
ATOM     20  C   UNL     1      -6.227  12.764  23.585  0.00  0.00    +0.000 A 
ATOM     21  F   UNL     1      -7.548  12.819  23.794  0.00  0.00    +0.000 F 
ATOM     22  C   UNL     1      -5.379  12.488  24.652  0.00  0.00    +0.000 A 
ATOM     23  C   UNL     1      -4.000  12.455  24.443  0.00  0.00    +0.000 A 
ENDBRANCH  15  17
ENDBRANCH  11  15
ENDBRANCH   4   7
BRANCH   1  27
ATOM     24  C   UNL     1       6.320   4.191  15.225  0.00  0.00    +0.000 C 
ATOM     25  C   UNL     1       5.235   4.546  16.164  0.00  0.00    +0.000 A 
ATOM     26  C   UNL     1       4.772   5.790  16.529  0.00  0.00    +0.000 A 
ATOM     27  N   UNL     1       3.800   5.576  17.486  0.00  0.00    +0.000 N 
ATOM     28  C   UNL     1       3.665   4.208  17.573  0.00  0.00    +0.000 A 
ATOM     29  N   UNL     1       4.531   3.568  16.816  0.00  0.00    +0.000 NA
ENDBRANCH   1  27
BRANCH   6  30
ATOM     30  C   UNL     1       1.958   4.966  19.889  0.00  0.00    +0.000 A 
ATOM     31  C   UNL     1       1.138   3.978  19.305  0.00  0.00    +0.000 A 
ATOM     32  C   UNL     1       0.963   2.720  19.895  0.00  0.00    +0.000 A 
ATOM     33  C   UNL     1       1.641   2.401  21.065  0.00  0.00    +0.000 A 
ATOM     34  C   UNL     1       2.438   3.359  21.678  0.00  0.00    +0.000 A 
ATOM     35  C   UNL     1       2.551   4.639  21.122  0.00  0.00    +0.000 A 
ENDBRANCH   6  30
TORSDOF 5
ENDMDL
MODEL 2
REMARK VINA RESULT:      -9.6      1.311      1.674
REMARK  Name = 
REMARK  7 active torsions:
REMARK  status: ('A' for Active; 'I' for Inactive)
REMARK    1  A    between atoms: C_1  and  C_2
REMARK    2  A    between atoms: N_4  and  C_5
REMARK    3  A    between atoms: C_8  and  C_9
REMARK    4  A    between atoms: N_13  and  C_14
REMARK    5  A    between atoms: C_14  and  C_15
REMARK    6  A    between atoms: C_14  and  C_16
REMARK    7  A    between atoms: C_26  and  C_27
REMARK                            x       y       z     vdW  Elec       q    Type
REMARK                         _______ _______ _______ _____ _____    ______ ____
ROOT
ATOM      1  C   UNL     1       3.447   6.719  18.015  0.00  0.00    +0.000 A 
ATOM      2  C   UNL     1       3.660   8.027  17.539  0.00  0.00    +0.000 A 
ATOM      3  C   UNL     1       2.722   9.037  17.756  0.00  0.00    +0.000 A 
ATOM      4  C   UNL     1       1.543   8.788  18.462  0.00  0.00    +0.000 A 
ATOM      5  C   UNL     1       1.374   7.484  18.975  0.00  0.00    +0.000 A 
ATOM      6  C   UNL     1       2.298   6.419  18.787  0.00  0.00    +0.000 A 
ENDROOT
BRANCH   4   7
ATOM      7  C   UNL     1       0.507   9.833  18.648  0.00  0.00    +0.000 A 
ATOM      8  C   UNL     1      -0.635   9.910  17.846  0.00  0.00    +0.000 A 
ATOM      9  C   UNL     1      -1.603  10.892  18.077  0.00  0.00    +0.000 A 
ATOM     10  C   UNL     1      -1.454  11.767  19.146  0.00  0.00    +0.000 A 
ATOM     11  N   UNL     1      -2.476  12.673  19.386  0.00  0.00    +0.000 N 
ATOM     12  N   UNL     1      -0.371  11.726  19.935  0.00  0.00    +0.000 NA
ATOM     13  C   UNL     1       0.579  10.795  19.656  0.00  0.00    +0.000 A 
ATOM     14  H   UNL     1      -2.578  13.331  18.624  0.00  0.00    +0.000 HD
BRANCH  11  15
ATOM     15  C   UNL     1      -2.613  13.246  20.721  0.00  0.00    +0.000 C 
ATOM     16  C   UNL     1      -2.218  14.721  20.777  0.00  0.00    +0.000 C 
BRANCH  15  17
ATOM     17  C   UNL     1      -4.069  13.037  21.134  0.00  0.00    +0.000 A 
ATOM     18  C   UNL     1      -4.454  13.256  22.468  0.00  0.00    +0.000 A 
ATOM     19  C   UNL     1      -5.758  12.976  22.884  0.00  0.00    +0.000 A 
ATOM     20  C   UNL     1      -6.677  12.474  21.974  0.00  0.00    +0.000 A 
ATOM     21  F   UNL     1      -7.917  12.177  22.382  0.00  0.00    +0.000 F 
ATOM     22  C   UNL     1      -6.327  12.263  20.646  0.00  0.00    +0.000 A 
ATOM     23  C   UNL     1      -5.029  12.549  20.223  0.00  0.00    +0.000 A 
ENDBRANCH  15  17
ENDBRANCH  11  15
ENDBRANCH   4   7
BRANCH   1  27
ATOM     24  C   UNL     1       6.374   3.638  15.377  0.00  0.00    +0.000 C 
ATOM     25  C   UNL     1       5.686   4.388  16.449  0.00  0.00    +0.000 A 
ATOM     26  C   UNL     1       4.629   5.267  16.357  0.00  0.00    +0.000 A 
ATOM     27  N   UNL     1       4.413   5.747  17.633  0.00  0.00    +0.000 N 
ATOM     28  C   UNL     1       5.291   5.057  18.439  0.00  0.00    +0.000 A 
ATOM     29  N   UNL     1       6.084   4.261  17.754  0.00  0.00    +0.000 NA
ENDBRANCH   1  27
BRANCH   6  30
ATOM     30  C   UNL     1       2.016   5.123  19.478  0.00  0.00    +0.000 A 
ATOM     31  C   UNL     1       1.487   4.020  18.776  0.00  0.00    +0.000 A 
ATOM     32  C   UNL     1       1.245   2.792  19.404  0.00  0.00    +0.000 A 
ATOM     33  C   UNL     1       1.567   2.621  20.745  0.00  0.00    +0.000 A 
ATOM     34  C   UNL     1       2.069   3.694  21.471  0.00  0.00    +0.000 A 
ATOM     35  C   UNL     1       2.240   4.939  20.855  0.00  0.00    +0.000 A 
ENDBRANCH   6  30
TORSDOF 5
ENDMDL
MODEL 3
REMARK VINA RESULT:      -9.6      1.335      1.690
REMARK  Name = 
REMARK  7 active torsions:
REMARK  status: ('A' for Active; 'I' for Inactive)
REMARK    1  A    between atoms: C_1  and  C_2
REMARK    2  A    between atoms: N_4  and  C_5
REMARK    3  A    between atoms: C_8  and  C_9
REMARK    4  A    between atoms: N_13  and  C_14
REMARK    5  A    between atoms: C_14  and  C_15
REMARK    6  A    between atoms: C_14  and  C_16
REMARK    7  A    between atoms: C_26  and  C_27
REMARK                            x       y       z     vdW  Elec       q    Type
REMARK                         _______ _______ _______ _____ _____    ______ ____
ROOT
ATOM      1  C   UNL     1       3.476   6.791  17.939  0.00  0.00    +0.000 A 
ATOM      2  C   UNL     1       3.691   8.117  17.515  0.00  0.00    +0.000 A 
ATOM      3  C   UNL     1       2.740   9.113  17.745  0.00  0.00    +0.000 A 
ATOM      4  C   UNL     1       1.546   8.830  18.413  0.00  0.00    +0.000 A 
ATOM      5  C   UNL     1       1.375   7.507  18.875  0.00  0.00    +0.000 A 
ATOM      6  C   UNL     1       2.311   6.457  18.672  0.00  0.00    +0.000 A 
ENDROOT
BRANCH   4   7
ATOM      7  C   UNL     1       0.499   9.860  18.611  0.00  0.00    +0.000 A 
ATOM      8  C   UNL     1      -0.677   9.893  17.854  0.00  0.00    +0.000 A 
ATOM      9  C   UNL     1      -1.654  10.863  18.096  0.00  0.00    +0.000 A 
ATOM     10  C   UNL     1      -1.479  11.772  19.133  0.00  0.00    +0.000 A 
ATOM     11  N   UNL     1      -2.508  12.666  19.389  0.00  0.00    +0.000 N 
ATOM     12  N   UNL     1      -0.365  11.774  19.879  0.00  0.00    +0.000 NA
ATOM     13  C   UNL     1       0.591  10.854  19.588  0.00  0.00    +0.000 A 
ATOM     14  H   UNL     1      -2.654  13.299  18.613  0.00  0.00    +0.000 HD
BRANCH  11  15
ATOM     15  C   UNL     1      -2.602  13.275  20.711  0.00  0.00    +0.000 C 
ATOM     16  C   UNL     1      -2.311  14.775  20.695  0.00  0.00    +0.000 C 
BRANCH  15  17
ATOM     17  C   UNL     1      -4.012  12.981  21.222  0.00  0.00    +0.000 A 
ATOM     18  C   UNL     1      -5.011  12.575  20.321  0.00  0.00    +0.000 A 
ATOM     19  C   UNL     1      -6.326  12.397  20.755  0.00  0.00    +0.000 A 
ATOM     20  C   UNL     1      -6.649  12.626  22.084  0.00  0.00    +0.000 A 
ATOM     21  F   UNL     1      -7.917  12.486  22.491  0.00  0.00    +0.000 F 
ATOM     22  C   UNL     1      -5.678  13.013  23.000  0.00  0.00    +0.000 A 
ATOM     23  C   UNL     1      -4.361  13.185  22.574  0.00  0.00    +0.000 A 
ENDBRANCH  15  17
ENDBRANCH  11  15
ENDBRANCH   4   7
BRANCH   1  27
ATOM     24  C   UNL     1       6.426   3.760  15.269  0.00  0.00    +0.000 C 
ATOM     25  C   UNL     1       5.741   4.503  16.349  0.00  0.00    +0.000 A 
ATOM     26  C   UNL     1       4.661   5.354  16.270  0.00  0.00    +0.000 A 
ATOM     27  N   UNL     1       4.458   5.840  17.546  0.00  0.00    +0.000 N 
ATOM     28  C   UNL     1       5.369   5.180  18.340  0.00  0.00    +0.000 A 
ATOM     29  N   UNL     1       6.168   4.397  17.646  0.00  0.00    +0.000 NA
ENDBRANCH   1  27
BRANCH   6  30
ATOM     30  C   UNL     1       2.023   5.134  19.309  0.00  0.00    +0.000 A 
ATOM     31  C   UNL     1       2.224   4.928  20.690  0.00  0.00    +0.000 A 
ATOM     32  C   UNL     1       1.932   3.704  21.305  0.00  0.00    +0.000 A 
ATOM     33  C   UNL     1       1.388   2.665  20.560  0.00  0.00    +0.000 A 
ATOM     34  C   UNL     1       1.199   2.827  19.194  0.00  0.00    +0.000 A 
ATOM     35  C   UNL     1       1.561   4.028  18.573  0.00  0.00    +0.000 A 
ENDBRANCH   6  30
TORSDOF 5
ENDMDL
MODEL 4
REMARK VINA RESULT:      -9.6      0.183      1.175
REMARK  Name = 
REMARK  7 active torsions:
REMARK  status: ('A' for Active; 'I' for Inactive)
REMARK    1  A    between atoms: C_1  and  C_2
REMARK    2  A    between atoms: N_4  and  C_5
REMARK    3  A    between atoms: C_8  and  C_9
REMARK    4  A    between atoms: N_13  and  C_14
REMARK    5  A    between atoms: C_14  and  C_15
REMARK    6  A    between atoms: C_14  and  C_16
REMARK    7  A    between atoms: C_26  and  C_27
REMARK                            x       y       z     vdW  Elec       q    Type
REMARK                         _______ _______ _______ _____ _____    ______ ____
ROOT
ATOM      1  C   UNL     1       3.045   6.575  18.183  0.00  0.00    +0.000 A 
ATOM      2  C   UNL     1       3.238   7.897  17.736  0.00  0.00    +0.000 A 
ATOM      3  C   UNL     1       2.498   8.954  18.266  0.00  0.00    +0.000 A 
ATOM      4  C   UNL     1       1.548   8.740  19.268  0.00  0.00    +0.000 A 
ATOM      5  C   UNL     1       1.409   7.416  19.738  0.00  0.00    +0.000 A 
ATOM      6  C   UNL     1       2.138   6.303  19.237  0.00  0.00    +0.000 A 
ENDROOT
BRANCH   4   7
ATOM      7  C   UNL     1       0.710   9.842  19.799  0.00  0.00    +0.000 A 
ATOM      8  C   UNL     1      -0.339  10.408  19.067  0.00  0.00    +0.000 A 
ATOM      9  C   UNL     1      -1.125  11.424  19.619  0.00  0.00    +0.000 A 
ATOM     10  C   UNL     1      -0.896  11.839  20.925  0.00  0.00    +0.000 A 
ATOM     11  N   UNL     1      -1.751  12.792  21.459  0.00  0.00    +0.000 N 
ATOM     12  N   UNL     1       0.101  11.321  21.657  0.00  0.00    +0.000 NA
ATOM     13  C   UNL     1       0.882  10.373  21.078  0.00  0.00    +0.000 A 
ATOM     14  H   UNL     1      -1.676  13.675  20.971  0.00  0.00    +0.000 HD
BRANCH  11  15
ATOM     15  C   UNL     1      -1.876  12.895  22.909  0.00  0.00    +0.000 C 
ATOM     16  C   UNL     1      -1.165  14.120  23.481  0.00  0.00    +0.000 C 
BRANCH  15  17
ATOM     17  C   UNL     1      -3.374  12.921  23.212  0.00  0.00    +0.000 A 
ATOM     18  C   UNL     1      -3.850  12.389  24.423  0.00  0.00    +0.000 A 
ATOM     19  C   UNL     1      -5.222  12.316  24.673  0.00  0.00    +0.000 A 
ATOM     20  C   UNL     1      -6.120  12.768  23.718  0.00  0.00    +0.000 A 
ATOM     21  F   UNL     1      -7.436  12.668  23.946  0.00  0.00    +0.000 F 
ATOM     22  C   UNL     1      -5.676  13.314  22.519  0.00  0.00    +0.000 A 
ATOM     23  C   UNL     1      -4.307  13.397  22.267  0.00  0.00    +0.000 A 
ENDBRANCH  15  17
ENDBRANCH  11  15
ENDBRANCH   4   7
BRANCH   1  27
ATOM     24  C   UNL     1       6.473   4.109  15.502  0.00  0.00    +0.000 C 
ATOM     25  C   UNL     1       5.288   4.502  16.294  0.00  0.00    +0.000 A 
ATOM     26  C   UNL     1       4.907   5.751  16.731  0.00  0.00    +0.000 A 
ATOM     27  N   UNL     1       3.769   5.566  17.489  0.00  0.00    +0.000 N 
ATOM     28  C   UNL     1       3.474   4.224  17.387  0.00  0.00    +0.000 A 
ATOM     29  N   UNL     1       4.382   3.560  16.704  0.00  0.00    +0.000 NA
ENDBRANCH   1  27
BRANCH   6  30
ATOM     30  C   UNL     1       1.943   4.982  19.910  0.00  0.00    +0.000 A 
ATOM     31  C   UNL     1       2.533   4.704  21.160  0.00  0.00    +0.000 A 
ATOM     32  C   UNL     1       2.336   3.481  21.815  0.00  0.00    +0.000 A 
ATOM     33  C   UNL     1       1.505   2.519  21.255  0.00  0.00    +0.000 A 
ATOM     34  C   UNL     1       0.926   2.753  20.014  0.00  0.00    +0.000 A 
ATOM     35  C   UNL     1       1.186   3.947  19.332  0.00  0.00    +0.000 A 
ENDBRANCH   6  30
TORSDOF 5
ENDMDL
MODEL 5
REMARK VINA RESULT:      -9.6      1.958      2.916
REMARK  Name = 
REMARK  7 active torsions:
REMARK  status: ('A' for Active; 'I' for Inactive)
REMARK    1  A    between atoms: C_1  and  C_2
REMARK    2  A    between atoms: N_4  and  C_5
REMARK    3  A    between atoms: C_8  and  C_9
REMARK    4  A    between atoms: N_13  and  C_14
REMARK    5  A    between atoms: C_14  and  C_15
REMARK    6  A    between atoms: C_14  and  C_16
REMARK    7  A    between atoms: C_26  and  C_27
REMARK                            x       y       z     vdW  Elec       q    Type
REMARK                         _______ _______ _______ _____ _____    ______ ____
ROOT
ATOM      1  C   UNL     1       4.474   6.113  17.061  0.00  0.00    +0.000 A 
ATOM      2  C   UNL     1       4.426   7.517  16.960  0.00  0.00    +0.000 A 
ATOM      3  C   UNL     1       3.527   8.266  17.720  0.00  0.00    +0.000 A 
ATOM      4  C   UNL     1       2.651   7.649  18.617  0.00  0.00    +0.000 A 
ATOM      5  C   UNL     1       2.753   6.247  18.741  0.00  0.00    +0.000 A 
ATOM      6  C   UNL     1       3.652   5.436  17.995  0.00  0.00    +0.000 A 
ENDROOT
BRANCH   4   7
ATOM      7  C   UNL     1       1.648   8.423  19.387  0.00  0.00    +0.000 A 
ATOM      8  C   UNL     1       1.342   8.139  20.722  0.00  0.00    +0.000 A 
ATOM      9  C   UNL     1       0.413   8.914  21.421  0.00  0.00    +0.000 A 
ATOM     10  C   UNL     1      -0.175  10.010  20.800  0.00  0.00    +0.000 A 
ATOM     11  N   UNL     1      -1.030  10.799  21.555  0.00  0.00    +0.000 N 
ATOM     12  N   UNL     1       0.091  10.313  19.521  0.00  0.00    +0.000 NA
ATOM     13  C   UNL     1       0.958   9.511  18.850  0.00  0.00    +0.000 A 
ATOM     14  H   UNL     1      -1.855  10.286  21.841  0.00  0.00    +0.000 HD
BRANCH  11  15
ATOM     15  C   UNL     1      -1.270  12.177  21.141  0.00  0.00    +0.000 C 
ATOM     16  C   UNL     1      -2.282  12.287  20.002  0.00  0.00    +0.000 C 
BRANCH  15  17
ATOM     17  C   UNL     1      -1.742  12.926  22.387  0.00  0.00    +0.000 A 
ATOM     18  C   UNL     1      -3.056  12.745  22.855  0.00  0.00    +0.000 A 
ATOM     19  C   UNL     1      -3.533  13.494  23.932  0.00  0.00    +0.000 A 
ATOM     20  C   UNL     1      -2.707  14.426  24.542  0.00  0.00    +0.000 A 
ATOM     21  F   UNL     1      -3.177  15.165  25.554  0.00  0.00    +0.000 F 
ATOM     22  C   UNL     1      -1.399  14.614  24.111  0.00  0.00    +0.000 A 
ATOM     23  C   UNL     1      -0.914  13.862  23.040  0.00  0.00    +0.000 A 
ENDBRANCH  15  17
ENDBRANCH  11  15
ENDBRANCH   4   7
BRANCH   1  27
ATOM     24  C   UNL     1       6.341   3.678  13.111  0.00  0.00    +0.000 C 
ATOM     25  C   UNL     1       6.144   4.364  14.405  0.00  0.00    +0.000 A 
ATOM     26  C   UNL     1       4.978   4.819  14.981  0.00  0.00    +0.000 A 
ATOM     27  N   UNL     1       5.345   5.448  16.153  0.00  0.00    +0.000 N 
ATOM     28  C   UNL     1       6.704   5.254  16.265  0.00  0.00    +0.000 A 
ATOM     29  N   UNL     1       7.211   4.635  15.220  0.00  0.00    +0.000 NA
ENDBRANCH   1  27
BRANCH   6  30
ATOM     30  C   UNL     1       3.702   3.976  18.315  0.00  0.00    +0.000 A 
ATOM     31  C   UNL     1       4.471   3.489  19.393  0.00  0.00    +0.000 A 
ATOM     32  C   UNL     1       4.505   2.128  19.721  0.00  0.00    +0.000 A 
ATOM     33  C   UNL     1       3.735   1.221  19.004  0.00  0.00    +0.000 A 
ATOM     34  C   UNL     1       2.985   1.664  17.922  0.00  0.00    +0.000 A 
ATOM     35  C   UNL     1       3.012   3.014  17.554  0.00  0.00    +0.000 A 
ENDBRANCH   6  30
TORSDOF 5
ENDMDL
MODEL 6
REMARK VINA RESULT:      -9.4      1.372      1.704
REMARK  Name = 
REMARK  7 active torsions:
REMARK  status: ('A' for Active; 'I' for Inactive)
REMARK    1  A    between atoms: C_1  and  C_2
REMARK    2  A    between atoms: N_4  and  C_5
REMARK    3  A    between atoms: C_8  and  C_9
REMARK    4  A    between atoms: N_13  and  C_14
REMARK    5  A    between atoms: C_14  and  C_15
REMARK    6  A    between atoms: C_14  and  C_16
REMARK    7  A    between atoms: C_26  and  C_27
REMARK                            x       y       z     vdW  Elec       q    Type
REMARK                         _______ _______ _______ _____ _____    ______ ____
ROOT
ATOM      1  C   UNL     1       3.509   6.780  17.963  0.00  0.00    +0.000 A 
ATOM      2  C   UNL     1       3.780   8.084  17.504  0.00  0.00    +0.000 A 
ATOM      3  C   UNL     1       2.901   9.138  17.761  0.00  0.00    +0.000 A 
ATOM      4  C   UNL     1       1.727   8.938  18.492  0.00  0.00    +0.000 A 
ATOM      5  C   UNL     1       1.503   7.635  18.987  0.00  0.00    +0.000 A 
ATOM      6  C   UNL     1       2.365   6.527  18.759  0.00  0.00    +0.000 A 
ENDROOT
BRANCH   4   7
ATOM      7  C   UNL     1       0.753  10.031  18.721  0.00  0.00    +0.000 A 
ATOM      8  C   UNL     1      -0.598   9.917  18.382  0.00  0.00    +0.000 A 
ATOM      9  C   UNL     1      -1.490  10.961  18.645  0.00  0.00    +0.000 A 
ATOM     10  C   UNL     1      -1.039  12.103  19.297  0.00  0.00    +0.000 A 
ATOM     11  N   UNL     1      -1.974  13.080  19.610  0.00  0.00    +0.000 N 
ATOM     12  N   UNL     1       0.250  12.250  19.636  0.00  0.00    +0.000 NA
ATOM     13  C   UNL     1       1.104  11.242  19.321  0.00  0.00    +0.000 A 
ATOM     14  H   UNL     1      -2.375  13.491  18.777  0.00  0.00    +0.000 HD
BRANCH  11  15
ATOM     15  C   UNL     1      -1.679  14.021  20.685  0.00  0.00    +0.000 C 
ATOM     16  C   UNL     1      -1.986  15.468  20.307  0.00  0.00    +0.000 C 
BRANCH  15  17
ATOM     17  C   UNL     1      -2.499  13.568  21.892  0.00  0.00    +0.000 A 
ATOM     18  C   UNL     1      -2.087  12.447  22.635  0.00  0.00    +0.000 A 
ATOM     19  C   UNL     1      -2.876  11.961  23.680  0.00  0.00    +0.000 A 
ATOM     20  C   UNL     1      -4.076  12.587  23.984  0.00  0.00    +0.000 A 
ATOM     21  F   UNL     1      -4.846  12.100  24.965  0.00  0.00    +0.000 F 
ATOM     22  C   UNL     1      -4.500  13.705  23.276  0.00  0.00    +0.000 A 
ATOM     23  C   UNL     1      -3.711  14.200  22.236  0.00  0.00    +0.000 A 
ENDBRANCH  15  17
ENDBRANCH  11  15
ENDBRANCH   4   7
BRANCH   1  27
ATOM     24  C   UNL     1       6.244   3.633  15.200  0.00  0.00    +0.000 C 
ATOM     25  C   UNL     1       5.601   4.380  16.303  0.00  0.00    +0.000 A 
ATOM     26  C   UNL     1       4.602   5.326  16.247  0.00  0.00    +0.000 A 
ATOM     27  N   UNL     1       4.413   5.766  17.542  0.00  0.00    +0.000 N 
ATOM     28  C   UNL     1       5.245   4.991  18.318  0.00  0.00    +0.000 A 
ATOM     29  N   UNL     1       5.988   4.175  17.601  0.00  0.00    +0.000 NA
ENDBRANCH   1  27
BRANCH   6  30
ATOM     30  C   UNL     1       2.032   5.235  19.435  0.00  0.00    +0.000 A 
ATOM     31  C   UNL     1       1.464   4.160  18.719  0.00  0.00    +0.000 A 
ATOM     32  C   UNL     1       1.172   2.936  19.333  0.00  0.00    +0.000 A 
ATOM     33  C   UNL     1       1.483   2.739  20.673  0.00  0.00    +0.000 A 
ATOM     34  C   UNL     1       2.022   3.784  21.412  0.00  0.00    +0.000 A 
ATOM     35  C   UNL     1       2.244   5.028  20.810  0.00  0.00    +0.000 A 
ENDBRANCH   6  30
TORSDOF 5
ENDMDL
MODEL 7
REMARK VINA RESULT:      -9.4      1.232      1.752
REMARK  Name = 
REMARK  7 active torsions:
REMARK  status: ('A' for Active; 'I' for Inactive)
REMARK    1  A    between atoms: C_1  and  C_2
REMARK    2  A    between atoms: N_4  and  C_5
REMARK    3  A    between atoms: C_8  and  C_9
REMARK    4  A    between atoms: N_13  and  C_14
REMARK    5  A    between atoms: C_14  and  C_15
REMARK    6  A    between atoms: C_14  and  C_16
REMARK    7  A    between atoms: C_26  and  C_27
REMARK                            x       y       z     vdW  Elec       q    Type
REMARK                         _______ _______ _______ _____ _____    ______ ____
ROOT
ATOM      1  C   UNL     1       3.505   6.755  17.911  0.00  0.00    +0.000 A 
ATOM      2  C   UNL     1       3.758   8.062  17.450  0.00  0.00    +0.000 A 
ATOM      3  C   UNL     1       2.872   9.107  17.717  0.00  0.00    +0.000 A 
ATOM      4  C   UNL     1       1.708   8.895  18.461  0.00  0.00    +0.000 A 
ATOM      5  C   UNL     1       1.502   7.590  18.958  0.00  0.00    +0.000 A 
ATOM      6  C   UNL     1       2.372   6.491  18.719  0.00  0.00    +0.000 A 
ENDROOT
BRANCH   4   7
ATOM      7  C   UNL     1       0.726   9.979  18.702  0.00  0.00    +0.000 A 
ATOM      8  C   UNL     1      -0.587   9.924  18.224  0.00  0.00    +0.000 A 
ATOM      9  C   UNL     1      -1.490  10.953  18.501  0.00  0.00    +0.000 A 
ATOM     10  C   UNL     1      -1.095  12.018  19.304  0.00  0.00    +0.000 A 
ATOM     11  N   UNL     1      -2.047  12.976  19.619  0.00  0.00    +0.000 N 
ATOM     12  N   UNL     1       0.155  12.107  19.778  0.00  0.00    +0.000 NA
ATOM     13  C   UNL     1       1.027  11.119  19.449  0.00  0.00    +0.000 A 
ATOM     14  H   UNL     1      -2.362  13.474  18.796  0.00  0.00    +0.000 HD
BRANCH  11  15
ATOM     15  C   UNL     1      -1.850  13.803  20.805  0.00  0.00    +0.000 C 
ATOM     16  C   UNL     1      -1.745  15.291  20.480  0.00  0.00    +0.000 C 
BRANCH  15  17
ATOM     17  C   UNL     1      -3.028  13.511  21.734  0.00  0.00    +0.000 A 
ATOM     18  C   UNL     1      -2.812  13.392  23.119  0.00  0.00    +0.000 A 
ATOM     19  C   UNL     1      -3.858  13.030  23.970  0.00  0.00    +0.000 A 
ATOM     20  C   UNL     1      -5.118  12.782  23.445  0.00  0.00    +0.000 A 
ATOM     21  F   UNL     1      -6.111  12.404  24.258  0.00  0.00    +0.000 F 
ATOM     22  C   UNL     1      -5.363  12.907  22.082  0.00  0.00    +0.000 A 
ATOM     23  C   UNL     1      -4.323  13.277  21.228  0.00  0.00    +0.000 A 
ENDBRANCH  15  17
ENDBRANCH  11  15
ENDBRANCH   4   7
BRANCH   1  27
ATOM     24  C   UNL     1       6.321   3.711  15.115  0.00  0.00    +0.000 C 
ATOM     25  C   UNL     1       5.639   4.411  16.224  0.00  0.00    +0.000 A 
ATOM     26  C   UNL     1       4.655   5.373  16.173  0.00  0.00    +0.000 A 
ATOM     27  N   UNL     1       4.414   5.750  17.479  0.00  0.00    +0.000 N 
ATOM     28  C   UNL     1       5.200   4.924  18.251  0.00  0.00    +0.000 A 
ATOM     29  N   UNL     1       5.963   4.134  17.526  0.00  0.00    +0.000 NA
ENDBRANCH   1  27
BRANCH   6  30
ATOM     30  C   UNL     1       2.059   5.195  19.397  0.00  0.00    +0.000 A 
ATOM     31  C   UNL     1       2.333   5.001  20.767  0.00  0.00    +0.000 A 
ATOM     32  C   UNL     1       2.020   3.803  21.422  0.00  0.00    +0.000 A 
ATOM     33  C   UNL     1       1.382   2.780  20.731  0.00  0.00    +0.000 A 
ATOM     34  C   UNL     1       1.118   2.930  19.375  0.00  0.00    +0.000 A 
ATOM     35  C   UNL     1       1.499   4.101  18.711  0.00  0.00    +0.000 A 
ENDBRANCH   6  30
TORSDOF 5
ENDMDL
MODEL 8
REMARK VINA RESULT:      -9.3      2.913      4.074
REMARK  Name = 
REMARK  7 active torsions:
REMARK  status: ('A' for Active; 'I' for Inactive)
REMARK    1  A    between atoms: C_1  and  C_2
REMARK    2  A    between atoms: N_4  and  C_5
REMARK    3  A    between atoms: C_8  and  C_9
REMARK    4  A    between atoms: N_13  and  C_14
REMARK    5  A    between atoms: C_14  and  C_15
REMARK    6  A    between atoms: C_14  and  C_16
REMARK    7  A    between atoms: C_26  and  C_27
REMARK                            x       y       z     vdW  Elec       q    Type
REMARK                         _______ _______ _______ _____ _____    ______ ____
ROOT
ATOM      1  C   UNL     1       4.455   6.235  16.991  0.00  0.00    +0.000 A 
ATOM      2  C   UNL     1       4.486   7.636  16.851  0.00  0.00    +0.000 A 
ATOM      3  C   UNL     1       3.548   8.448  17.492  0.00  0.00    +0.000 A 
ATOM      4  C   UNL     1       2.553   7.899  18.305  0.00  0.00    +0.000 A 
ATOM      5  C   UNL     1       2.575   6.497  18.474  0.00  0.00    +0.000 A 
ATOM      6  C   UNL     1       3.507   5.625  17.848  0.00  0.00    +0.000 A 
ENDROOT
BRANCH   4   7
ATOM      7  C   UNL     1       1.513   8.740  18.943  0.00  0.00    +0.000 A 
ATOM      8  C   UNL     1       1.257   8.704  20.317  0.00  0.00    +0.000 A 
ATOM      9  C   UNL     1       0.288   9.538  20.884  0.00  0.00    +0.000 A 
ATOM     10  C   UNL     1      -0.389  10.449  20.081  0.00  0.00    +0.000 A 
ATOM     11  N   UNL     1      -1.284  11.311  20.698  0.00  0.00    +0.000 N 
ATOM     12  N   UNL     1      -0.173  10.511  18.760  0.00  0.00    +0.000 NA
ATOM     13  C   UNL     1       0.736   9.653  18.228  0.00  0.00    +0.000 A 
ATOM     14  H   UNL     1      -2.063  10.811  21.106  0.00  0.00    +0.000 HD
BRANCH  11  15
ATOM     15  C   UNL     1      -1.631  12.562  20.032  0.00  0.00    +0.000 C 
ATOM     16  C   UNL     1      -2.959  13.143  20.515  0.00  0.00    +0.000 C 
BRANCH  15  17
ATOM     17  C   UNL     1      -0.471  13.523  20.287  0.00  0.00    +0.000 A 
ATOM     18  C   UNL     1      -0.036  13.760  21.603  0.00  0.00    +0.000 A 
ATOM     19  C   UNL     1       0.957  14.707  21.861  0.00  0.00    +0.000 A 
ATOM     20  C   UNL     1       1.514  15.423  20.812  0.00  0.00    +0.000 A 
ATOM     21  F   UNL     1       2.443  16.353  21.064  0.00  0.00    +0.000 F 
ATOM     22  C   UNL     1       1.115  15.198  19.499  0.00  0.00    +0.000 A 
ATOM     23  C   UNL     1       0.129  14.246  19.235  0.00  0.00    +0.000 A 
ENDBRANCH  15  17
ENDBRANCH  11  15
ENDBRANCH   4   7
BRANCH   1  27
ATOM     24  C   UNL     1       6.700   3.818  13.232  0.00  0.00    +0.000 C 
ATOM     25  C   UNL     1       6.350   4.433  14.530  0.00  0.00    +0.000 A 
ATOM     26  C   UNL     1       5.171   5.028  14.921  0.00  0.00    +0.000 A 
ATOM     27  N   UNL     1       5.384   5.505  16.199  0.00  0.00    +0.000 N 
ATOM     28  C   UNL     1       6.650   5.085  16.541  0.00  0.00    +0.000 A 
ATOM     29  N   UNL     1       7.261   4.469  15.552  0.00  0.00    +0.000 NA
ENDBRANCH   1  27
BRANCH   6  30
ATOM     30  C   UNL     1       3.453   4.174  18.208  0.00  0.00    +0.000 A 
ATOM     31  C   UNL     1       2.643   3.271  17.488  0.00  0.00    +0.000 A 
ATOM     32  C   UNL     1       2.603   1.906  17.797  0.00  0.00    +0.000 A 
ATOM     33  C   UNL     1       3.409   1.398  18.808  0.00  0.00    +0.000 A 
ATOM     34  C   UNL     1       4.201   2.264  19.552  0.00  0.00    +0.000 A 
ATOM     35  C   UNL     1       4.181   3.638  19.286  0.00  0.00    +0.000 A 
ENDBRANCH   6  30
TORSDOF 5
ENDMDL
MODEL 9
REMARK VINA RESULT:      -9.3      2.515      3.359
REMARK  Name = 
REMARK  7 active torsions:
REMARK  status: ('A' for Active; 'I' for Inactive)
REMARK    1  A    between atoms: C_1  and  C_2
REMARK    2  A    between atoms: N_4  and  C_5
REMARK    3  A    between atoms: C_8  and  C_9
REMARK    4  A    between atoms: N_13  and  C_14
REMARK    5  A    between atoms: C_14  and  C_15
REMARK    6  A    between atoms: C_14  and  C_16
REMARK    7  A    between atoms: C_26  and  C_27
REMARK                            x       y       z     vdW  Elec       q    Type
REMARK                         _______ _______ _______ _____ _____    ______ ____
ROOT
ATOM      1  C   UNL     1       4.447   6.268  17.004  0.00  0.00    +0.000 A 
ATOM      2  C   UNL     1       4.460   7.673  16.908  0.00  0.00    +0.000 A 
ATOM      3  C   UNL     1       3.521   8.453  17.584  0.00  0.00    +0.000 A 
ATOM      4  C   UNL     1       2.540   7.867  18.388  0.00  0.00    +0.000 A 
ATOM      5  C   UNL     1       2.578   6.461  18.512  0.00  0.00    +0.000 A 
ATOM      6  C   UNL     1       3.514   5.620  17.850  0.00  0.00    +0.000 A 
ENDROOT
BRANCH   4   7
ATOM      7  C   UNL     1       1.497   8.675  19.063  0.00  0.00    +0.000 A 
ATOM      8  C   UNL     1       1.232   8.569  20.432  0.00  0.00    +0.000 A 
ATOM      9  C   UNL     1       0.262   9.374  21.035  0.00  0.00    +0.000 A 
ATOM     10  C   UNL     1      -0.411  10.325  20.277  0.00  0.00    +0.000 A 
ATOM     11  N   UNL     1      -1.309  11.156  20.932  0.00  0.00    +0.000 N 
ATOM     12  N   UNL     1      -0.187  10.455  18.962  0.00  0.00    +0.000 NA
ATOM     13  C   UNL     1       0.724   9.624  18.392  0.00  0.00    +0.000 A 
ATOM     14  H   UNL     1      -2.090  10.637  21.309  0.00  0.00    +0.000 HD
BRANCH  11  15
ATOM     15  C   UNL     1      -1.652  12.439  20.329  0.00  0.00    +0.000 C 
ATOM     16  C   UNL     1      -3.097  12.497  19.838  0.00  0.00    +0.000 C 
BRANCH  15  17
ATOM     17  C   UNL     1      -1.375  13.503  21.391  0.00  0.00    +0.000 A 
ATOM     18  C   UNL     1      -0.851  14.751  21.009  0.00  0.00    +0.000 A 
ATOM     19  C   UNL     1      -0.501  15.697  21.975  0.00  0.00    +0.000 A 
ATOM     20  C   UNL     1      -0.667  15.401  23.320  0.00  0.00    +0.000 A 
ATOM     21  F   UNL     1      -0.301  16.297  24.244  0.00  0.00    +0.000 F 
ATOM     22  C   UNL     1      -1.198  14.182  23.724  0.00  0.00    +0.000 A 
ATOM     23  C   UNL     1      -1.557  13.236  22.764  0.00  0.00    +0.000 A 
ENDBRANCH  15  17
ENDBRANCH  11  15
ENDBRANCH   4   7
BRANCH   1  27
ATOM     24  C   UNL     1       6.624   3.861  13.199  0.00  0.00    +0.000 C 
ATOM     25  C   UNL     1       6.312   4.505  14.493  0.00  0.00    +0.000 A 
ATOM     26  C   UNL     1       5.118   5.028  14.939  0.00  0.00    +0.000 A 
ATOM     27  N   UNL     1       5.376   5.574  16.180  0.00  0.00    +0.000 N 
ATOM     28  C   UNL     1       6.690   5.263  16.453  0.00  0.00    +0.000 A 
ATOM     29  N   UNL     1       7.281   4.651  15.449  0.00  0.00    +0.000 NA
ENDBRANCH   1  27
BRANCH   6  30
ATOM     30  C   UNL     1       3.479   4.157  18.164  0.00  0.00    +0.000 A 
ATOM     31  C   UNL     1       4.279   3.610  19.189  0.00  0.00    +0.000 A 
ATOM     32  C   UNL     1       4.236   2.248  19.512  0.00  0.00    +0.000 A 
ATOM     33  C   UNL     1       3.357   1.403  18.845  0.00  0.00    +0.000 A 
ATOM     34  C   UNL     1       2.573   1.905  17.815  0.00  0.00    +0.000 A 
ATOM     35  C   UNL     1       2.674   3.253  17.449  0.00  0.00    +0.000 A 
ENDBRANCH   6  30
TORSDOF 5
ENDMDL
