MODEL 1
REMARK VINA RESULT:      -4.8      0.000      0.000
REMARK  Name = 
REMARK  2 active torsions:
REMARK  status: ('A' for Active; 'I' for Inactive)
REMARK    1  A    between atoms: C_2  and  O_3
REMARK    2  A    between atoms: C_2  and  C_4
REMARK                            x       y       z     vdW  Elec       q    Type
REMARK                         _______ _______ _______ _____ _____    ______ ____
ROOT
ATOM      1  C   UNL     1       1.581   3.212  19.908  0.00  0.00    +0.000 C 
ATOM      2  C   UNL     1       1.771   4.526  19.139  0.00  0.00    +0.000 C 
ATOM      3  C   UNL     1       1.656   4.302  17.634  0.00  0.00    +0.000 C 
ATOM      4  C   UNL     1       2.584   3.185  17.165  0.00  0.00    +0.000 C 
ATOM      5  N   UNL     1       2.306   1.945  17.891  0.00  0.00    +0.000 NA
ATOM      6  C   UNL     1       2.499   2.120  19.335  0.00  0.00    +0.000 C 
ATOM      7  H   UNL     1       2.941   1.217  17.560  0.00  0.00    +0.000 HD
ENDROOT
BRANCH   1   9
ATOM      8  O   UNL     1       1.600   2.578  22.257  0.00  0.00    +0.000 OA
ATOM      9  C   UNL     1       1.871   3.389  21.385  0.00  0.00    +0.000 C 
BRANCH   9  10
ATOM     10  O   UNL     1       2.452   4.577  21.681  0.00  0.00    +0.000 OA
ATOM     11  H   UNL     1       3.286   4.745  21.203  0.00  0.00    +0.000 HD
ENDBRANCH   9  10
ENDBRANCH   1   9
TORSDOF 2
ENDMDL
MODEL 2
REMARK VINA RESULT:      -4.8      1.340      1.573
REMARK  Name = 
REMARK  2 active torsions:
REMARK  status: ('A' for Active; 'I' for Inactive)
REMARK    1  A    between atoms: C_2  and  O_3
REMARK    2  A    between atoms: C_2  and  C_4
REMARK                            x       y       z     vdW  Elec       q    Type
REMARK                         _______ _______ _______ _____ _____    ______ ____
ROOT
ATOM      1  C   UNL     1       2.495   2.552  19.614  0.00  0.00    +0.000 C 
ATOM      2  C   UNL     1       1.817   3.599  18.720  0.00  0.00    +0.000 C 
ATOM      3  C   UNL     1       2.427   3.601  17.321  0.00  0.00    +0.000 C 
ATOM      4  C   UNL     1       3.945   3.741  17.375  0.00  0.00    +0.000 C 
ATOM      5  N   UNL     1       4.532   2.676  18.189  0.00  0.00    +0.000 NA
ATOM      6  C   UNL     1       4.023   2.715  19.564  0.00  0.00    +0.000 C 
ATOM      7  H   UNL     1       5.546   2.795  18.210  0.00  0.00    +0.000 HD
ENDROOT
BRANCH   1   9
ATOM      8  O   UNL     1       2.734   2.535  22.036  0.00  0.00    +0.000 OA
ATOM      9  C   UNL     1       2.024   2.664  21.051  0.00  0.00    +0.000 C 
BRANCH   9  10
ATOM     10  O   UNL     1       0.695   2.901  21.164  0.00  0.00    +0.000 OA
ATOM     11  H   UNL     1       0.319   3.433  20.437  0.00  0.00    +0.000 HD
ENDBRANCH   9  10
ENDBRANCH   1   9
TORSDOF 2
ENDMDL
MODEL 3
REMARK VINA RESULT:      -4.7      5.636      6.157
REMARK  Name = 
REMARK  2 active torsions:
REMARK  status: ('A' for Active; 'I' for Inactive)
REMARK    1  A    between atoms: C_2  and  O_3
REMARK    2  A    between atoms: C_2  and  C_4
REMARK                            x       y       z     vdW  Elec       q    Type
REMARK                         _______ _______ _______ _____ _____    ______ ____
ROOT
ATOM      1  C   UNL     1       7.276   6.014  17.419  0.00  0.00    +0.000 C 
ATOM      2  C   UNL     1       7.297   4.581  16.872  0.00  0.00    +0.000 C 
ATOM      3  C   UNL     1       6.816   4.541  15.423  0.00  0.00    +0.000 C 
ATOM      4  C   UNL     1       5.463   5.229  15.267  0.00  0.00    +0.000 C 
ATOM      5  N   UNL     1       5.530   6.610  15.748  0.00  0.00    +0.000 NA
ATOM      6  C   UNL     1       5.905   6.662  17.165  0.00  0.00    +0.000 C 
ATOM      7  H   UNL     1       4.613   7.045  15.634  0.00  0.00    +0.000 HD
ENDROOT
BRANCH   1   9
ATOM      8  O   UNL     1       7.024   5.355  19.748  0.00  0.00    +0.000 OA
ATOM      9  C   UNL     1       7.578   6.042  18.905  0.00  0.00    +0.000 C 
BRANCH   9  10
ATOM     10  O   UNL     1       8.530   6.945  19.242  0.00  0.00    +0.000 OA
ATOM     11  H   UNL     1       8.311   7.486  20.024  0.00  0.00    +0.000 HD
ENDBRANCH   9  10
ENDBRANCH   1   9
TORSDOF 2
ENDMDL
MODEL 4
REMARK VINA RESULT:      -4.7      3.311      3.824
REMARK  Name = 
REMARK  2 active torsions:
REMARK  status: ('A' for Active; 'I' for Inactive)
REMARK    1  A    between atoms: C_2  and  O_3
REMARK    2  A    between atoms: C_2  and  C_4
REMARK                            x       y       z     vdW  Elec       q    Type
REMARK                         _______ _______ _______ _____ _____    ______ ____
ROOT
ATOM      1  C   UNL     1       3.701   3.667  17.667  0.00  0.00    +0.000 C 
ATOM      2  C   UNL     1       3.683   5.198  17.582  0.00  0.00    +0.000 C 
ATOM      3  C   UNL     1       5.075   5.777  17.823  0.00  0.00    +0.000 C 
ATOM      4  C   UNL     1       5.681   5.247  19.120  0.00  0.00    +0.000 C 
ATOM      5  N   UNL     1       5.728   3.785  19.107  0.00  0.00    +0.000 NA
ATOM      6  C   UNL     1       4.385   3.211  18.965  0.00  0.00    +0.000 C 
ATOM      7  H   UNL     1       6.134   3.458  19.985  0.00  0.00    +0.000 HD
ENDROOT
BRANCH   1   9
ATOM      8  O   UNL     1       1.279   3.746  17.447  0.00  0.00    +0.000 OA
ATOM      9  C   UNL     1       2.298   3.094  17.609  0.00  0.00    +0.000 C 
BRANCH   9  10
ATOM     10  O   UNL     1       2.258   1.751  17.784  0.00  0.00    +0.000 OA
ATOM     11  H   UNL     1       3.124   1.309  17.697  0.00  0.00    +0.000 HD
ENDBRANCH   9  10
ENDBRANCH   1   9
TORSDOF 2
ENDMDL
MODEL 5
REMARK VINA RESULT:      -4.7      2.197      2.355
REMARK  Name = 
REMARK  2 active torsions:
REMARK  status: ('A' for Active; 'I' for Inactive)
REMARK    1  A    between atoms: C_2  and  O_3
REMARK    2  A    between atoms: C_2  and  C_4
REMARK                            x       y       z     vdW  Elec       q    Type
REMARK                         _______ _______ _______ _____ _____    ______ ____
ROOT
ATOM      1  C   UNL     1       2.907   3.499  19.965  0.00  0.00    +0.000 C 
ATOM      2  C   UNL     1       3.120   5.017  20.028  0.00  0.00    +0.000 C 
ATOM      3  C   UNL     1       4.130   5.472  18.977  0.00  0.00    +0.000 C 
ATOM      4  C   UNL     1       5.426   4.673  19.068  0.00  0.00    +0.000 C 
ATOM      5  N   UNL     1       5.159   3.241  18.936  0.00  0.00    +0.000 NA
ATOM      6  C   UNL     1       4.259   2.768  19.993  0.00  0.00    +0.000 C 
ATOM      7  H   UNL     1       6.042   2.731  19.003  0.00  0.00    +0.000 HD
ENDROOT
BRANCH   1   9
ATOM      8  O   UNL     1       2.471   2.624  22.193  0.00  0.00    +0.000 OA
ATOM      9  C   UNL     1       2.048   3.014  21.116  0.00  0.00    +0.000 C 
BRANCH   9  10
ATOM     10  O   UNL     1       0.722   3.020  20.837  0.00  0.00    +0.000 OA
ATOM     11  H   UNL     1       0.163   3.369  21.556  0.00  0.00    +0.000 HD
ENDBRANCH   9  10
ENDBRANCH   1   9
TORSDOF 2
ENDMDL
MODEL 6
REMARK VINA RESULT:      -4.7      4.804      5.426
REMARK  Name = 
REMARK  2 active torsions:
REMARK  status: ('A' for Active; 'I' for Inactive)
REMARK    1  A    between atoms: C_2  and  O_3
REMARK    2  A    between atoms: C_2  and  C_4
REMARK                            x       y       z     vdW  Elec       q    Type
REMARK                         _______ _______ _______ _____ _____    ______ ____
ROOT
ATOM      1  C   UNL     1       6.774   4.802  18.525  0.00  0.00    +0.000 C 
ATOM      2  C   UNL     1       5.300   5.199  18.669  0.00  0.00    +0.000 C 
ATOM      3  C   UNL     1       4.404   4.294  17.828  0.00  0.00    +0.000 C 
ATOM      4  C   UNL     1       4.877   4.233  16.379  0.00  0.00    +0.000 C 
ATOM      5  N   UNL     1       6.269   3.785  16.310  0.00  0.00    +0.000 NA
ATOM      6  C   UNL     1       7.157   4.695  17.040  0.00  0.00    +0.000 C 
ATOM      7  H   UNL     1       6.560   3.756  15.331  0.00  0.00    +0.000 HD
ENDROOT
BRANCH   1   9
ATOM      8  O   UNL     1       8.136   6.811  18.693  0.00  0.00    +0.000 OA
ATOM      9  C   UNL     1       7.686   5.801  19.210  0.00  0.00    +0.000 C 
BRANCH   9  10
ATOM     10  O   UNL     1       7.997   5.460  20.484  0.00  0.00    +0.000 OA
ATOM     11  H   UNL     1       8.072   4.499  20.635  0.00  0.00    +0.000 HD
ENDBRANCH   9  10
ENDBRANCH   1   9
TORSDOF 2
ENDMDL
MODEL 7
REMARK VINA RESULT:      -4.7      0.875      1.094
REMARK  Name = 
REMARK  2 active torsions:
REMARK  status: ('A' for Active; 'I' for Inactive)
REMARK    1  A    between atoms: C_2  and  O_3
REMARK    2  A    between atoms: C_2  and  C_4
REMARK                            x       y       z     vdW  Elec       q    Type
REMARK                         _______ _______ _______ _____ _____    ______ ____
ROOT
ATOM      1  C   UNL     1       1.596   2.841  19.975  0.00  0.00    +0.000 C 
ATOM      2  C   UNL     1       1.888   4.286  19.549  0.00  0.00    +0.000 C 
ATOM      3  C   UNL     1       1.707   4.460  18.043  0.00  0.00    +0.000 C 
ATOM      4  C   UNL     1       2.510   3.423  17.263  0.00  0.00    +0.000 C 
ATOM      5  N   UNL     1       2.137   2.068  17.671  0.00  0.00    +0.000 NA
ATOM      6  C   UNL     1       2.388   1.856  19.100  0.00  0.00    +0.000 C 
ATOM      7  H   UNL     1       2.690   1.396  17.136  0.00  0.00    +0.000 HD
ENDROOT
BRANCH   1   9
ATOM      8  O   UNL     1       3.075   2.471  21.871  0.00  0.00    +0.000 OA
ATOM      9  C   UNL     1       1.945   2.614  21.433  0.00  0.00    +0.000 C 
BRANCH   9  10
ATOM     10  O   UNL     1       0.860   2.551  22.241  0.00  0.00    +0.000 OA
ATOM     11  H   UNL     1       1.055   2.697  23.186  0.00  0.00    +0.000 HD
ENDBRANCH   9  10
ENDBRANCH   1   9
TORSDOF 2
ENDMDL
MODEL 8
REMARK VINA RESULT:      -4.7      5.746      6.698
REMARK  Name = 
REMARK  2 active torsions:
REMARK  status: ('A' for Active; 'I' for Inactive)
REMARK    1  A    between atoms: C_2  and  O_3
REMARK    2  A    between atoms: C_2  and  C_4
REMARK                            x       y       z     vdW  Elec       q    Type
REMARK                         _______ _______ _______ _____ _____    ______ ____
ROOT
ATOM      1  C   UNL     1       7.048   4.494  16.692  0.00  0.00    +0.000 C 
ATOM      2  C   UNL     1       7.425   5.836  17.333  0.00  0.00    +0.000 C 
ATOM      3  C   UNL     1       7.302   5.770  18.853  0.00  0.00    +0.000 C 
ATOM      4  C   UNL     1       5.929   5.259  19.279  0.00  0.00    +0.000 C 
ATOM      5  N   UNL     1       5.661   3.948  18.686  0.00  0.00    +0.000 NA
ATOM      6  C   UNL     1       5.687   4.013  17.220  0.00  0.00    +0.000 C 
ATOM      7  H   UNL     1       4.737   3.631  18.985  0.00  0.00    +0.000 HD
ENDROOT
BRANCH   1   9
ATOM      8  O   UNL     1       7.434   5.530  14.524  0.00  0.00    +0.000 OA
ATOM      9  C   UNL     1       6.992   4.600  15.180  0.00  0.00    +0.000 C 
BRANCH   9  10
ATOM     10  O   UNL     1       6.365   3.554  14.591  0.00  0.00    +0.000 OA
ATOM     11  H   UNL     1       6.966   2.860  14.261  0.00  0.00    +0.000 HD
ENDBRANCH   9  10
ENDBRANCH   1   9
TORSDOF 2
ENDMDL
MODEL 9
REMARK VINA RESULT:      -4.7      2.351      2.989
REMARK  Name = 
REMARK  2 active torsions:
REMARK  status: ('A' for Active; 'I' for Inactive)
REMARK    1  A    between atoms: C_2  and  O_3
REMARK    2  A    between atoms: C_2  and  C_4
REMARK                            x       y       z     vdW  Elec       q    Type
REMARK                         _______ _______ _______ _____ _____    ______ ____
ROOT
ATOM      1  C   UNL     1       3.491   3.280  19.548  0.00  0.00    +0.000 C 
ATOM      2  C   UNL     1       2.276   4.089  20.021  0.00  0.00    +0.000 C 
ATOM      3  C   UNL     1       1.036   3.205  20.124  0.00  0.00    +0.000 C 
ATOM      4  C   UNL     1       0.788   2.441  18.826  0.00  0.00    +0.000 C 
ATOM      5  N   UNL     1       1.960   1.641  18.467  0.00  0.00    +0.000 NA
ATOM      6  C   UNL     1       3.143   2.487  18.278  0.00  0.00    +0.000 C 
ATOM      7  H   UNL     1       1.768   1.144  17.597  0.00  0.00    +0.000 HD
ENDROOT
BRANCH   1   9
ATOM      8  O   UNL     1       4.712   5.384  19.471  0.00  0.00    +0.000 OA
ATOM      9  C   UNL     1       4.680   4.180  19.271  0.00  0.00    +0.000 C 
BRANCH   9  10
ATOM     10  O   UNL     1       5.738   3.523  18.737  0.00  0.00    +0.000 OA
ATOM     11  H   UNL     1       5.833   2.601  19.042  0.00  0.00    +0.000 HD
ENDBRANCH   9  10
ENDBRANCH   1   9
TORSDOF 2
ENDMDL
