MODEL 1
REMARK VINA RESULT:      -8.0      0.000      0.000
REMARK  Name = 
REMARK  5 active torsions:
REMARK  status: ('A' for Active; 'I' for Inactive)
REMARK    1  A    between atoms: C_1  and  C_2
REMARK    2  A    between atoms: C_4  and  N_5
REMARK    3  A    between atoms: C_10  and  N_11
REMARK    4  A    between atoms: N_11  and  S_12
REMARK    5  A    between atoms: S_12  and  C_15
REMARK                            x       y       z     vdW  Elec       q    Type
REMARK                         _______ _______ _______ _____ _____    ______ ____
ROOT
ATOM      1  N   UNL     1       4.432   2.879  17.842  0.00  0.00    +0.000 N 
ATOM      2  H   UNL     1       4.825   2.047  18.284  0.00  0.00    +0.000 HD
ENDROOT
BRANCH   1   9
ATOM      3  C   UNL     1       5.188   4.180  15.335  0.00  0.00    +0.000 C 
ATOM      4  C   UNL     1       5.624   4.678  16.681  0.00  0.00    +0.000 A 
ATOM      5  C   UNL     1       6.483   5.787  16.732  0.00  0.00    +0.000 A 
ATOM      6  C   UNL     1       6.952   6.262  17.962  0.00  0.00    +0.000 A 
ATOM      7  C   UNL     1       6.561   5.646  19.154  0.00  0.00    +0.000 A 
ATOM      8  C   UNL     1       5.695   4.546  19.107  0.00  0.00    +0.000 A 
ATOM      9  C   UNL     1       5.220   4.069  17.881  0.00  0.00    +0.000 A 
BRANCH   6  10
ATOM     10  N   UNL     1       7.881   7.402  17.988  0.00  0.00    +0.000 N 
ATOM     11  O   UNL     1       8.639   7.503  18.963  0.00  0.00    +0.000 OA
ATOM     12  O   UNL     1       7.845   8.197  17.040  0.00  0.00    +0.000 OA
ENDBRANCH   6  10
ENDBRANCH   1   9
BRANCH   1  13
ATOM     13  S   UNL     1       2.761   2.937  18.045  0.00  0.00    +0.000 S 
ATOM     14  O   UNL     1       2.178   3.051  16.726  0.00  0.00    +0.000 OA
ATOM     15  O   UNL     1       2.365   1.857  18.926  0.00  0.00    +0.000 OA
BRANCH  13  16
ATOM     16  C   UNL     1       2.458   4.471  18.882  0.00  0.00    +0.000 A 
ATOM     17  C   UNL     1       2.420   5.643  18.106  0.00  0.00    +0.000 A 
ATOM     18  C   UNL     1       2.179   6.873  18.715  0.00  0.00    +0.000 A 
ATOM     19 CL   UNL     1       2.147   8.305  17.766  0.00  0.00    +0.000 Cl
ATOM     20  C   UNL     1       1.965   6.949  20.089  0.00  0.00    +0.000 A 
ATOM     21  C   UNL     1       2.019   5.788  20.862  0.00  0.00    +0.000 A 
ATOM     22  C   UNL     1       2.283   4.545  20.267  0.00  0.00    +0.000 A 
ATOM     23 CL   UNL     1       2.326   3.180  21.323  0.00  0.00    +0.000 Cl
ENDBRANCH  13  16
ENDBRANCH   1  13
TORSDOF 4
ENDMDL
MODEL 2
REMARK VINA RESULT:      -7.9      3.553      5.453
REMARK  Name = 
REMARK  5 active torsions:
REMARK  status: ('A' for Active; 'I' for Inactive)
REMARK    1  A    between atoms: C_1  and  C_2
REMARK    2  A    between atoms: C_4  and  N_5
REMARK    3  A    between atoms: C_10  and  N_11
REMARK    4  A    between atoms: N_11  and  S_12
REMARK    5  A    between atoms: S_12  and  C_15
REMARK                            x       y       z     vdW  Elec       q    Type
REMARK                         _______ _______ _______ _____ _____    ______ ____
ROOT
ATOM      1  N   UNL     1       2.561   3.980  18.116  0.00  0.00    +0.000 N 
ATOM      2  H   UNL     1       2.226   3.966  17.151  0.00  0.00    +0.000 HD
ENDROOT
BRANCH   1   9
ATOM      3  C   UNL     1       1.272   3.837  20.737  0.00  0.00    +0.000 C 
ATOM      4  C   UNL     1       1.695   5.127  20.100  0.00  0.00    +0.000 A 
ATOM      5  C   UNL     1       1.403   6.325  20.772  0.00  0.00    +0.000 A 
ATOM      6  C   UNL     1       1.738   7.557  20.198  0.00  0.00    +0.000 A 
ATOM      7  C   UNL     1       2.377   7.608  18.956  0.00  0.00    +0.000 A 
ATOM      8  C   UNL     1       2.679   6.415  18.289  0.00  0.00    +0.000 A 
ATOM      9  C   UNL     1       2.351   5.181  18.859  0.00  0.00    +0.000 A 
BRANCH   6  10
ATOM     10  N   UNL     1       1.389   8.799  20.904  0.00  0.00    +0.000 N 
ATOM     11  O   UNL     1       1.046   9.772  20.217  0.00  0.00    +0.000 OA
ATOM     12  O   UNL     1       1.465   8.802  22.139  0.00  0.00    +0.000 OA
ENDBRANCH   6  10
ENDBRANCH   1   9
BRANCH   1  13
ATOM     13  S   UNL     1       3.988   3.100  18.272  0.00  0.00    +0.000 S 
ATOM     14  O   UNL     1       4.449   3.278  19.632  0.00  0.00    +0.000 OA
ATOM     15  O   UNL     1       3.770   1.768  17.745  0.00  0.00    +0.000 OA
BRANCH  13  16
ATOM     16  C   UNL     1       5.150   3.928  17.217  0.00  0.00    +0.000 A 
ATOM     17  C   UNL     1       5.176   3.563  15.860  0.00  0.00    +0.000 A 
ATOM     18  C   UNL     1       6.066   4.189  14.989  0.00  0.00    +0.000 A 
ATOM     19 CL   UNL     1       6.105   3.730  13.333  0.00  0.00    +0.000 Cl
ATOM     20  C   UNL     1       6.926   5.182  15.452  0.00  0.00    +0.000 A 
ATOM     21  C   UNL     1       6.911   5.532  16.803  0.00  0.00    +0.000 A 
ATOM     22  C   UNL     1       6.037   4.896  17.698  0.00  0.00    +0.000 A 
ATOM     23 CL   UNL     1       6.109   5.413  19.343  0.00  0.00    +0.000 Cl
ENDBRANCH  13  16
ENDBRANCH   1  13
TORSDOF 4
ENDMDL
MODEL 3
REMARK VINA RESULT:      -7.5      3.001      4.022
REMARK  Name = 
REMARK  5 active torsions:
REMARK  status: ('A' for Active; 'I' for Inactive)
REMARK    1  A    between atoms: C_1  and  C_2
REMARK    2  A    between atoms: C_4  and  N_5
REMARK    3  A    between atoms: C_10  and  N_11
REMARK    4  A    between atoms: N_11  and  S_12
REMARK    5  A    between atoms: S_12  and  C_15
REMARK                            x       y       z     vdW  Elec       q    Type
REMARK                         _______ _______ _______ _____ _____    ______ ____
ROOT
ATOM      1  N   UNL     1       3.947   6.247  19.471  0.00  0.00    +0.000 N 
ATOM      2  H   UNL     1       4.275   7.123  19.883  0.00  0.00    +0.000 HD
ENDROOT
BRANCH   1   9
ATOM      3  C   UNL     1       4.787   3.467  19.130  0.00  0.00    +0.000 C 
ATOM      4  C   UNL     1       4.993   4.520  18.082  0.00  0.00    +0.000 A 
ATOM      5  C   UNL     1       5.674   4.163  16.907  0.00  0.00    +0.000 A 
ATOM      6  C   UNL     1       5.929   5.121  15.919  0.00  0.00    +0.000 A 
ATOM      7  C   UNL     1       5.500   6.440  16.085  0.00  0.00    +0.000 A 
ATOM      8  C   UNL     1       4.810   6.797  17.251  0.00  0.00    +0.000 A 
ATOM      9  C   UNL     1       4.548   5.843  18.240  0.00  0.00    +0.000 A 
BRANCH   6  10
ATOM     10  N   UNL     1       6.678   4.732  14.715  0.00  0.00    +0.000 N 
ATOM     11  O   UNL     1       7.702   5.374  14.443  0.00  0.00    +0.000 OA
ATOM     12  O   UNL     1       6.237   3.793  14.040  0.00  0.00    +0.000 OA
ENDBRANCH   6  10
ENDBRANCH   1   9
BRANCH   1  13
ATOM     13  S   UNL     1       2.300   6.032  19.744  0.00  0.00    +0.000 S 
ATOM     14  O   UNL     1       1.711   5.624  18.487  0.00  0.00    +0.000 OA
ATOM     15  O   UNL     1       2.132   5.212  20.927  0.00  0.00    +0.000 OA
BRANCH  13  16
ATOM     16  C   UNL     1       1.683   7.655  20.105  0.00  0.00    +0.000 A 
ATOM     17  C   UNL     1       1.220   7.904  21.409  0.00  0.00    +0.000 A 
ATOM     18  C   UNL     1       0.732   9.165  21.745  0.00  0.00    +0.000 A 
ATOM     19 CL   UNL     1       0.155   9.462  23.336  0.00  0.00    +0.000 Cl
ATOM     20  C   UNL     1       0.706  10.186  20.798  0.00  0.00    +0.000 A 
ATOM     21  C   UNL     1       1.149   9.934  19.498  0.00  0.00    +0.000 A 
ATOM     22  C   UNL     1       1.623   8.663  19.138  0.00  0.00    +0.000 A 
ATOM     23 CL   UNL     1       2.143   8.470  17.504  0.00  0.00    +0.000 Cl
ENDBRANCH  13  16
ENDBRANCH   1  13
TORSDOF 4
ENDMDL
MODEL 4
REMARK VINA RESULT:      -7.4      3.698      5.634
REMARK  Name = 
REMARK  5 active torsions:
REMARK  status: ('A' for Active; 'I' for Inactive)
REMARK    1  A    between atoms: C_1  and  C_2
REMARK    2  A    between atoms: C_4  and  N_5
REMARK    3  A    between atoms: C_10  and  N_11
REMARK    4  A    between atoms: N_11  and  S_12
REMARK    5  A    between atoms: S_12  and  C_15
REMARK                            x       y       z     vdW  Elec       q    Type
REMARK                         _______ _______ _______ _____ _____    ______ ____
ROOT
ATOM      1  N   UNL     1       7.339   5.754  15.563  0.00  0.00    +0.000 N 
ATOM      2  H   UNL     1       8.243   6.206  15.418  0.00  0.00    +0.000 HD
ENDROOT
BRANCH   1   9
ATOM      3  C   UNL     1       8.538   5.883  12.898  0.00  0.00    +0.000 C 
ATOM      4  C   UNL     1       7.438   4.928  13.258  0.00  0.00    +0.000 A 
ATOM      5  C   UNL     1       6.923   4.099  12.248  0.00  0.00    +0.000 A 
ATOM      6  C   UNL     1       5.868   3.222  12.523  0.00  0.00    +0.000 A 
ATOM      7  C   UNL     1       5.321   3.154  13.807  0.00  0.00    +0.000 A 
ATOM      8  C   UNL     1       5.840   3.971  14.819  0.00  0.00    +0.000 A 
ATOM      9  C   UNL     1       6.898   4.846  14.552  0.00  0.00    +0.000 A 
BRANCH   6  10
ATOM     10  N   UNL     1       5.320   2.392  11.440  0.00  0.00    +0.000 N 
ATOM     11  O   UNL     1       5.991   1.419  11.067  0.00  0.00    +0.000 OA
ATOM     12  O   UNL     1       4.227   2.718  10.960  0.00  0.00    +0.000 OA
ENDBRANCH   6  10
ENDBRANCH   1   9
BRANCH   1  13
ATOM     13  S   UNL     1       6.258   6.795  16.326  0.00  0.00    +0.000 S 
ATOM     14  O   UNL     1       7.047   7.757  17.064  0.00  0.00    +0.000 OA
ATOM     15  O   UNL     1       5.285   7.245  15.352  0.00  0.00    +0.000 OA
BRANCH  13  16
ATOM     16  C   UNL     1       5.419   5.785  17.519  0.00  0.00    +0.000 A 
ATOM     17  C   UNL     1       4.046   5.551  17.327  0.00  0.00    +0.000 A 
ATOM     18  C   UNL     1       3.343   4.758  18.232  0.00  0.00    +0.000 A 
ATOM     19 CL   UNL     1       1.662   4.485  18.002  0.00  0.00    +0.000 Cl
ATOM     20  C   UNL     1       3.993   4.188  19.324  0.00  0.00    +0.000 A 
ATOM     21  C   UNL     1       5.353   4.436  19.524  0.00  0.00    +0.000 A 
ATOM     22  C   UNL     1       6.070   5.249  18.633  0.00  0.00    +0.000 A 
ATOM     23 CL   UNL     1       7.744   5.483  18.983  0.00  0.00    +0.000 Cl
ENDBRANCH  13  16
ENDBRANCH   1  13
TORSDOF 4
ENDMDL
MODEL 5
REMARK VINA RESULT:      -7.3      4.369      6.135
REMARK  Name = 
REMARK  5 active torsions:
REMARK  status: ('A' for Active; 'I' for Inactive)
REMARK    1  A    between atoms: C_1  and  C_2
REMARK    2  A    between atoms: C_4  and  N_5
REMARK    3  A    between atoms: C_10  and  N_11
REMARK    4  A    between atoms: N_11  and  S_12
REMARK    5  A    between atoms: S_12  and  C_15
REMARK                            x       y       z     vdW  Elec       q    Type
REMARK                         _______ _______ _______ _____ _____    ______ ____
ROOT
ATOM      1  N   UNL     1       2.960   6.676  20.035  0.00  0.00    +0.000 N 
ATOM      2  H   UNL     1       3.557   6.626  20.862  0.00  0.00    +0.000 HD
ENDROOT
BRANCH   1   9
ATOM      3  C   UNL     1       2.656   8.412  17.701  0.00  0.00    +0.000 C 
ATOM      4  C   UNL     1       1.810   8.538  18.933  0.00  0.00    +0.000 A 
ATOM      5  C   UNL     1       0.868   9.578  18.987  0.00  0.00    +0.000 A 
ATOM      6  C   UNL     1       0.085   9.763  20.131  0.00  0.00    +0.000 A 
ATOM      7  C   UNL     1       0.223   8.910  21.230  0.00  0.00    +0.000 A 
ATOM      8  C   UNL     1       1.155   7.866  21.175  0.00  0.00    +0.000 A 
ATOM      9  C   UNL     1       1.937   7.672  20.032  0.00  0.00    +0.000 A 
BRANCH   6  10
ATOM     10  N   UNL     1      -0.868  10.882  20.179  0.00  0.00    +0.000 N 
ATOM     11  O   UNL     1      -1.321  11.297  19.102  0.00  0.00    +0.000 OA
ATOM     12  O   UNL     1      -1.155  11.349  21.289  0.00  0.00    +0.000 OA
ENDBRANCH   6  10
ENDBRANCH   1   9
BRANCH   1  13
ATOM     13  S   UNL     1       2.681   5.142  19.400  0.00  0.00    +0.000 S 
ATOM     14  O   UNL     1       2.886   4.194  20.474  0.00  0.00    +0.000 OA
ATOM     15  O   UNL     1       1.425   5.162  18.678  0.00  0.00    +0.000 OA
BRANCH  13  16
ATOM     16  C   UNL     1       3.988   4.890  18.228  0.00  0.00    +0.000 A 
ATOM     17  C   UNL     1       5.040   5.822  18.212  0.00  0.00    +0.000 A 
ATOM     18  C   UNL     1       6.095   5.665  17.315  0.00  0.00    +0.000 A 
ATOM     19 CL   UNL     1       7.373   6.813  17.289  0.00  0.00    +0.000 Cl
ATOM     20  C   UNL     1       6.118   4.584  16.437  0.00  0.00    +0.000 A 
ATOM     21  C   UNL     1       5.064   3.668  16.440  0.00  0.00    +0.000 A 
ATOM     22  C   UNL     1       3.985   3.825  17.323  0.00  0.00    +0.000 A 
ATOM     23 CL   UNL     1       2.741   2.631  17.236  0.00  0.00    +0.000 Cl
ENDBRANCH  13  16
ENDBRANCH   1  13
TORSDOF 4
ENDMDL
MODEL 6
REMARK VINA RESULT:      -7.3      3.948      5.946
REMARK  Name = 
REMARK  5 active torsions:
REMARK  status: ('A' for Active; 'I' for Inactive)
REMARK    1  A    between atoms: C_1  and  C_2
REMARK    2  A    between atoms: C_4  and  N_5
REMARK    3  A    between atoms: C_10  and  N_11
REMARK    4  A    between atoms: N_11  and  S_12
REMARK    5  A    between atoms: S_12  and  C_15
REMARK                            x       y       z     vdW  Elec       q    Type
REMARK                         _______ _______ _______ _____ _____    ______ ____
ROOT
ATOM      1  N   UNL     1       3.155   5.111  18.263  0.00  0.00    +0.000 N 
ATOM      2  H   UNL     1       3.004   5.051  17.254  0.00  0.00    +0.000 HD
ENDROOT
BRANCH   1   9
ATOM      3  C   UNL     1       1.966   4.791  20.916  0.00  0.00    +0.000 C 
ATOM      4  C   UNL     1       2.010   6.102  20.189  0.00  0.00    +0.000 A 
ATOM      5  C   UNL     1       1.397   7.214  20.790  0.00  0.00    +0.000 A 
ATOM      6  C   UNL     1       1.373   8.449  20.132  0.00  0.00    +0.000 A 
ATOM      7  C   UNL     1       1.967   8.593  18.876  0.00  0.00    +0.000 A 
ATOM      8  C   UNL     1       2.588   7.489  18.279  0.00  0.00    +0.000 A 
ATOM      9  C   UNL     1       2.620   6.253  18.933  0.00  0.00    +0.000 A 
BRANCH   6  10
ATOM     10  N   UNL     1       0.693   9.589  20.765  0.00  0.00    +0.000 N 
ATOM     11  O   UNL     1      -0.394   9.946  20.288  0.00  0.00    +0.000 OA
ATOM     12  O   UNL     1       1.249  10.129  21.730  0.00  0.00    +0.000 OA
ENDBRANCH   6  10
ENDBRANCH   1   9
BRANCH   1  13
ATOM     13  S   UNL     1       4.657   4.480  18.687  0.00  0.00    +0.000 S 
ATOM     14  O   UNL     1       5.246   5.393  19.642  0.00  0.00    +0.000 OA
ATOM     15  O   UNL     1       4.491   3.080  19.023  0.00  0.00    +0.000 OA
BRANCH  13  16
ATOM     16  C   UNL     1       5.627   4.580  17.205  0.00  0.00    +0.000 A 
ATOM     17  C   UNL     1       5.005   4.234  15.992  0.00  0.00    +0.000 A 
ATOM     18  C   UNL     1       5.723   4.303  14.799  0.00  0.00    +0.000 A 
ATOM     19 CL   UNL     1       4.964   3.867  13.320  0.00  0.00    +0.000 Cl
ATOM     20  C   UNL     1       7.051   4.721  14.798  0.00  0.00    +0.000 A 
ATOM     21  C   UNL     1       7.673   5.048  16.004  0.00  0.00    +0.000 A 
ATOM     22  C   UNL     1       6.971   4.963  17.217  0.00  0.00    +0.000 A 
ATOM     23 CL   UNL     1       7.844   5.392  18.642  0.00  0.00    +0.000 Cl
ENDBRANCH  13  16
ENDBRANCH   1  13
TORSDOF 4
ENDMDL
MODEL 7
REMARK VINA RESULT:      -7.2      3.920      5.840
REMARK  Name = 
REMARK  5 active torsions:
REMARK  status: ('A' for Active; 'I' for Inactive)
REMARK    1  A    between atoms: C_1  and  C_2
REMARK    2  A    between atoms: C_4  and  N_5
REMARK    3  A    between atoms: C_10  and  N_11
REMARK    4  A    between atoms: N_11  and  S_12
REMARK    5  A    between atoms: S_12  and  C_15
REMARK                            x       y       z     vdW  Elec       q    Type
REMARK                         _______ _______ _______ _____ _____    ______ ____
ROOT
ATOM      1  N   UNL     1       3.145   4.957  18.283  0.00  0.00    +0.000 N 
ATOM      2  H   UNL     1       3.063   5.079  17.272  0.00  0.00    +0.000 HD
ENDROOT
BRANCH   1   9
ATOM      3  C   UNL     1       3.186   7.788  17.550  0.00  0.00    +0.000 C 
ATOM      4  C   UNL     1       2.515   7.271  18.787  0.00  0.00    +0.000 A 
ATOM      5  C   UNL     1       1.930   8.200  19.663  0.00  0.00    +0.000 A 
ATOM      6  C   UNL     1       1.330   7.771  20.852  0.00  0.00    +0.000 A 
ATOM      7  C   UNL     1       1.296   6.412  21.177  0.00  0.00    +0.000 A 
ATOM      8  C   UNL     1       1.868   5.482  20.301  0.00  0.00    +0.000 A 
ATOM      9  C   UNL     1       2.466   5.904  19.108  0.00  0.00    +0.000 A 
BRANCH   6  10
ATOM     10  N   UNL     1       0.757   8.766  21.770  0.00  0.00    +0.000 N 
ATOM     11  O   UNL     1      -0.477   8.819  21.863  0.00  0.00    +0.000 OA
ATOM     12  O   UNL     1       1.541   9.497  22.390  0.00  0.00    +0.000 OA
ENDBRANCH   6  10
ENDBRANCH   1   9
BRANCH   1  13
ATOM     13  S   UNL     1       4.670   4.379  18.700  0.00  0.00    +0.000 S 
ATOM     14  O   UNL     1       5.232   5.312  19.652  0.00  0.00    +0.000 OA
ATOM     15  O   UNL     1       4.556   2.974  19.037  0.00  0.00    +0.000 OA
BRANCH  13  16
ATOM     16  C   UNL     1       5.629   4.513  17.213  0.00  0.00    +0.000 A 
ATOM     17  C   UNL     1       5.007   4.166  16.001  0.00  0.00    +0.000 A 
ATOM     18  C   UNL     1       5.716   4.260  14.804  0.00  0.00    +0.000 A 
ATOM     19 CL   UNL     1       4.957   3.822  13.326  0.00  0.00    +0.000 Cl
ATOM     20  C   UNL     1       7.035   4.706  14.799  0.00  0.00    +0.000 A 
ATOM     21  C   UNL     1       7.658   5.035  16.005  0.00  0.00    +0.000 A 
ATOM     22  C   UNL     1       6.965   4.924  17.221  0.00  0.00    +0.000 A 
ATOM     23 CL   UNL     1       7.837   5.358  18.645  0.00  0.00    +0.000 Cl
ENDBRANCH  13  16
ENDBRANCH   1  13
TORSDOF 4
ENDMDL
MODEL 8
REMARK VINA RESULT:      -7.2      3.364      5.685
REMARK  Name = 
REMARK  5 active torsions:
REMARK  status: ('A' for Active; 'I' for Inactive)
REMARK    1  A    between atoms: C_1  and  C_2
REMARK    2  A    between atoms: C_4  and  N_5
REMARK    3  A    between atoms: C_10  and  N_11
REMARK    4  A    between atoms: N_11  and  S_12
REMARK    5  A    between atoms: S_12  and  C_15
REMARK                            x       y       z     vdW  Elec       q    Type
REMARK                         _______ _______ _______ _____ _____    ______ ____
ROOT
ATOM      1  N   UNL     1       7.131   5.945  15.686  0.00  0.00    +0.000 N 
ATOM      2  H   UNL     1       6.769   6.898  15.620  0.00  0.00    +0.000 HD
ENDROOT
BRANCH   1   9
ATOM      3  C   UNL     1       8.594   5.778  13.159  0.00  0.00    +0.000 C 
ATOM      4  C   UNL     1       7.373   4.959  13.456  0.00  0.00    +0.000 A 
ATOM      5  C   UNL     1       6.878   4.117  12.447  0.00  0.00    +0.000 A 
ATOM      6  C   UNL     1       5.717   3.366  12.660  0.00  0.00    +0.000 A 
ATOM      7  C   UNL     1       5.042   3.437  13.881  0.00  0.00    +0.000 A 
ATOM      8  C   UNL     1       5.539   4.268  14.893  0.00  0.00    +0.000 A 
ATOM      9  C   UNL     1       6.702   5.017  14.689  0.00  0.00    +0.000 A 
BRANCH   6  10
ATOM     10  N   UNL     1       5.197   2.520  11.575  0.00  0.00    +0.000 N 
ATOM     11  O   UNL     1       5.848   1.510  11.271  0.00  0.00    +0.000 OA
ATOM     12  O   UNL     1       4.145   2.870  11.024  0.00  0.00    +0.000 OA
ENDBRANCH   6  10
ENDBRANCH   1   9
BRANCH   1  13
ATOM     13  S   UNL     1       7.303   5.474  17.293  0.00  0.00    +0.000 S 
ATOM     14  O   UNL     1       8.013   4.213  17.292  0.00  0.00    +0.000 OA
ATOM     15  O   UNL     1       7.816   6.598  18.051  0.00  0.00    +0.000 OA
BRANCH  13  16
ATOM     16  C   UNL     1       5.652   5.141  17.849  0.00  0.00    +0.000 A 
ATOM     17  C   UNL     1       5.445   3.991  18.630  0.00  0.00    +0.000 A 
ATOM     18  C   UNL     1       4.167   3.689  19.097  0.00  0.00    +0.000 A 
ATOM     19 CL   UNL     1       3.915   2.275  20.041  0.00  0.00    +0.000 Cl
ATOM     20  C   UNL     1       3.093   4.524  18.802  0.00  0.00    +0.000 A 
ATOM     21  C   UNL     1       3.295   5.657  18.011  0.00  0.00    +0.000 A 
ATOM     22  C   UNL     1       4.572   5.963  17.515  0.00  0.00    +0.000 A 
ATOM     23 CL   UNL     1       4.701   7.388  16.550  0.00  0.00    +0.000 Cl
ENDBRANCH  13  16
ENDBRANCH   1  13
TORSDOF 4
ENDMDL
MODEL 9
REMARK VINA RESULT:      -7.1      2.339      3.037
REMARK  Name = 
REMARK  5 active torsions:
REMARK  status: ('A' for Active; 'I' for Inactive)
REMARK    1  A    between atoms: C_1  and  C_2
REMARK    2  A    between atoms: C_4  and  N_5
REMARK    3  A    between atoms: C_10  and  N_11
REMARK    4  A    between atoms: N_11  and  S_12
REMARK    5  A    between atoms: S_12  and  C_15
REMARK                            x       y       z     vdW  Elec       q    Type
REMARK                         _______ _______ _______ _____ _____    ______ ____
ROOT
ATOM      1  N   UNL     1       5.437   4.138  18.059  0.00  0.00    +0.000 N 
ATOM      2  H   UNL     1       5.708   4.789  18.798  0.00  0.00    +0.000 HD
ENDROOT
BRANCH   1   9
ATOM      3  C   UNL     1       7.299   6.357  17.656  0.00  0.00    +0.000 C 
ATOM      4  C   UNL     1       6.910   5.404  16.565  0.00  0.00    +0.000 A 
ATOM      5  C   UNL     1       7.421   5.626  15.276  0.00  0.00    +0.000 A 
ATOM      6  C   UNL     1       7.053   4.790  14.216  0.00  0.00    +0.000 A 
ATOM      7  C   UNL     1       6.182   3.719  14.429  0.00  0.00    +0.000 A 
ATOM      8  C   UNL     1       5.679   3.487  15.715  0.00  0.00    +0.000 A 
ATOM      9  C   UNL     1       6.046   4.316  16.780  0.00  0.00    +0.000 A 
BRANCH   6  10
ATOM     10  N   UNL     1       7.572   5.066  12.867  0.00  0.00    +0.000 N 
ATOM     11  O   UNL     1       8.295   6.062  12.723  0.00  0.00    +0.000 OA
ATOM     12  O   UNL     1       7.249   4.293  11.956  0.00  0.00    +0.000 OA
ENDBRANCH   6  10
ENDBRANCH   1   9
BRANCH   1  13
ATOM     13  S   UNL     1       3.813   3.713  18.195  0.00  0.00    +0.000 S 
ATOM     14  O   UNL     1       3.290   3.601  16.851  0.00  0.00    +0.000 OA
ATOM     15  O   UNL     1       3.703   2.598  19.114  0.00  0.00    +0.000 OA
BRANCH  13  16
ATOM     16  C   UNL     1       3.035   5.122  18.941  0.00  0.00    +0.000 A 
ATOM     17  C   UNL     1       3.029   6.325  18.215  0.00  0.00    +0.000 A 
ATOM     18  C   UNL     1       2.424   7.459  18.754  0.00  0.00    +0.000 A 
ATOM     19 CL   UNL     1       2.430   8.933  17.869  0.00  0.00    +0.000 Cl
ATOM     20  C   UNL     1       1.818   7.407  20.006  0.00  0.00    +0.000 A 
ATOM     21  C   UNL     1       1.840   6.216  20.735  0.00  0.00    +0.000 A 
ATOM     22  C   UNL     1       2.464   5.071  20.216  0.00  0.00    +0.000 A 
ATOM     23 CL   UNL     1       2.427   3.659  21.206  0.00  0.00    +0.000 Cl
ENDBRANCH  13  16
ENDBRANCH   1  13
TORSDOF 4
ENDMDL
