MODEL 1
REMARK VINA RESULT:      -7.2      0.000      0.000
REMARK  Name = 
REMARK  10 active torsions:
REMARK  status: ('A' for Active; 'I' for Inactive)
REMARK    1  A    between atoms: C_1  and  C_2
REMARK    2  A    between atoms: C_2  and  C_3
REMARK    3  A    between atoms: C_2  and  N_4
REMARK    4  A    between atoms: N_4  and  C_25
REMARK    5  A    between atoms: C_5  and  C_7
REMARK    6  A    between atoms: C_10  and  C_11
REMARK    7  A    between atoms: N_13  and  C_14
REMARK    8  A    between atoms: C_17  and  N_18
REMARK    9  A    between atoms: C_25  and  C_26
REMARK   10  A    between atoms: C_25  and  C_27
REMARK                            x       y       z     vdW  Elec       q    Type
REMARK                         _______ _______ _______ _____ _____    ______ ____
ROOT
ATOM      1  C   UNL     1       2.256   6.670  18.980  0.00  0.00    +0.000 A 
ATOM      2  C   UNL     1       1.836   7.185  20.221  0.00  0.00    +0.000 A 
ATOM      3  C   UNL     1       1.442   8.523  20.363  0.00  0.00    +0.000 A 
ATOM      4  C   UNL     1       1.424   9.387  19.260  0.00  0.00    +0.000 A 
ATOM      5  C   UNL     1       1.840   8.901  18.022  0.00  0.00    +0.000 A 
ATOM      6  C   UNL     1       2.300   7.573  17.905  0.00  0.00    +0.000 A 
ENDROOT
BRANCH   4   7
ATOM      7  C   UNL     1       1.141  10.830  19.501  0.00  0.00    +0.000 C 
ATOM      8  O   UNL     1       0.867  11.155  20.649  0.00  0.00    +0.000 OA
ATOM      9  N   UNL     1       1.183  11.690  18.411  0.00  0.00    +0.000 N 
ATOM     10  H   UNL     1       1.111  11.286  17.485  0.00  0.00    +0.000 HD
BRANCH   9  11
ATOM     11  C   UNL     1       1.112  13.103  18.513  0.00  0.00    +0.000 A 
ATOM     12  C   UNL     1      -0.105  13.783  18.657  0.00  0.00    +0.000 A 
ATOM     13  C   UNL     1      -0.154  15.176  18.740  0.00  0.00    +0.000 A 
ATOM     14  C   UNL     1       1.032  15.911  18.690  0.00  0.00    +0.000 A 
ATOM     15  C   UNL     1       2.264  15.251  18.573  0.00  0.00    +0.000 A 
ATOM     16  C   UNL     1       2.300  13.848  18.497  0.00  0.00    +0.000 A 
BRANCH  14  17
ATOM     17  N   UNL     1       0.977  17.377  18.762  0.00  0.00    +0.000 N 
ATOM     18  O   UNL     1       1.972  18.017  18.390  0.00  0.00    +0.000 OA
ATOM     19  O   UNL     1      -0.066  17.891  19.192  0.00  0.00    +0.000 OA
ENDBRANCH  14  17
ENDBRANCH   9  11
ENDBRANCH   4   7
BRANCH   1  21
ATOM     20  N   UNL     1       4.006   4.748  18.831  0.00  0.00    +0.000 N 
ATOM     21  C   UNL     1       2.665   5.209  18.953  0.00  0.00    +0.000 C 
ATOM     22  O   UNL     1       1.724   4.412  19.012  0.00  0.00    +0.000 OA
BRANCH  20  24
ATOM     23  C   UNL     1       3.935   2.559  20.210  0.00  0.00    +0.000 C 
ATOM     24  C   UNL     1       4.256   3.267  18.882  0.00  0.00    +0.000 C 
ATOM     25  C   UNL     1       3.639   2.513  17.702  0.00  0.00    +0.000 C 
ENDBRANCH  20  24
BRANCH  20  26
ATOM     26  C   UNL     1       5.143   5.640  18.464  0.00  0.00    +0.000 C 
ATOM     27  C   UNL     1       6.489   5.382  19.157  0.00  0.00    +0.000 C 
ATOM     28  C   UNL     1       5.411   5.720  16.953  0.00  0.00    +0.000 C 
ENDBRANCH  20  26
ENDBRANCH   1  21
TORSDOF 6
ENDMDL
MODEL 2
REMARK VINA RESULT:      -7.1      0.157      1.101
REMARK  Name = 
REMARK  10 active torsions:
REMARK  status: ('A' for Active; 'I' for Inactive)
REMARK    1  A    between atoms: C_1  and  C_2
REMARK    2  A    between atoms: C_2  and  C_3
REMARK    3  A    between atoms: C_2  and  N_4
REMARK    4  A    between atoms: N_4  and  C_25
REMARK    5  A    between atoms: C_5  and  C_7
REMARK    6  A    between atoms: C_10  and  C_11
REMARK    7  A    between atoms: N_13  and  C_14
REMARK    8  A    between atoms: C_17  and  N_18
REMARK    9  A    between atoms: C_25  and  C_26
REMARK   10  A    between atoms: C_25  and  C_27
REMARK                            x       y       z     vdW  Elec       q    Type
REMARK                         _______ _______ _______ _____ _____    ______ ____
ROOT
ATOM      1  C   UNL     1       2.276   6.709  18.945  0.00  0.00    +0.000 A 
ATOM      2  C   UNL     1       1.868   7.230  20.187  0.00  0.00    +0.000 A 
ATOM      3  C   UNL     1       1.488   8.572  20.330  0.00  0.00    +0.000 A 
ATOM      4  C   UNL     1       1.473   9.435  19.226  0.00  0.00    +0.000 A 
ATOM      5  C   UNL     1       1.877   8.943  17.986  0.00  0.00    +0.000 A 
ATOM      6  C   UNL     1       2.323   7.610  17.869  0.00  0.00    +0.000 A 
ENDROOT
BRANCH   4   7
ATOM      7  C   UNL     1       1.204  10.880  19.466  0.00  0.00    +0.000 C 
ATOM      8  O   UNL     1       0.900  11.204  20.608  0.00  0.00    +0.000 OA
ATOM      9  N   UNL     1       1.293  11.746  18.383  0.00  0.00    +0.000 N 
ATOM     10  H   UNL     1       1.244  11.348  17.453  0.00  0.00    +0.000 HD
BRANCH   9  11
ATOM     11  C   UNL     1       1.242  13.159  18.491  0.00  0.00    +0.000 A 
ATOM     12  C   UNL     1       2.394  13.955  18.455  0.00  0.00    +0.000 A 
ATOM     13  C   UNL     1       2.322  15.344  18.579  0.00  0.00    +0.000 A 
ATOM     14  C   UNL     1       1.078  15.958  18.731  0.00  0.00    +0.000 A 
ATOM     15  C   UNL     1      -0.091  15.185  18.742  0.00  0.00    +0.000 A 
ATOM     16  C   UNL     1      -0.006  13.789  18.610  0.00  0.00    +0.000 A 
BRANCH  14  17
ATOM     17  N   UNL     1       1.006  17.419  18.875  0.00  0.00    +0.000 N 
ATOM     18  O   UNL     1       0.229  17.884  19.722  0.00  0.00    +0.000 OA
ATOM     19  O   UNL     1       1.730  18.104  18.138  0.00  0.00    +0.000 OA
ENDBRANCH  14  17
ENDBRANCH   9  11
ENDBRANCH   4   7
BRANCH   1  21
ATOM     20  N   UNL     1       4.008   4.770  18.795  0.00  0.00    +0.000 N 
ATOM     21  C   UNL     1       2.672   5.245  18.918  0.00  0.00    +0.000 C 
ATOM     22  O   UNL     1       1.722   4.457  18.977  0.00  0.00    +0.000 OA
BRANCH  20  24
ATOM     23  C   UNL     1       3.915   2.581  20.174  0.00  0.00    +0.000 C 
ATOM     24  C   UNL     1       4.243   3.287  18.846  0.00  0.00    +0.000 C 
ATOM     25  C   UNL     1       3.620   2.540  17.665  0.00  0.00    +0.000 C 
ENDBRANCH  20  24
BRANCH  20  26
ATOM     26  C   UNL     1       5.153   5.651  18.427  0.00  0.00    +0.000 C 
ATOM     27  C   UNL     1       6.500   5.373  19.110  0.00  0.00    +0.000 C 
ATOM     28  C   UNL     1       5.412   5.738  16.915  0.00  0.00    +0.000 C 
ENDBRANCH  20  26
ENDBRANCH   1  21
TORSDOF 6
ENDMDL
MODEL 3
REMARK VINA RESULT:      -7.1      3.548      4.346
REMARK  Name = 
REMARK  10 active torsions:
REMARK  status: ('A' for Active; 'I' for Inactive)
REMARK    1  A    between atoms: C_1  and  C_2
REMARK    2  A    between atoms: C_2  and  C_3
REMARK    3  A    between atoms: C_2  and  N_4
REMARK    4  A    between atoms: N_4  and  C_25
REMARK    5  A    between atoms: C_5  and  C_7
REMARK    6  A    between atoms: C_10  and  C_11
REMARK    7  A    between atoms: N_13  and  C_14
REMARK    8  A    between atoms: C_17  and  N_18
REMARK    9  A    between atoms: C_25  and  C_26
REMARK   10  A    between atoms: C_25  and  C_27
REMARK                            x       y       z     vdW  Elec       q    Type
REMARK                         _______ _______ _______ _____ _____    ______ ____
ROOT
ATOM      1  C   UNL     1       2.400   7.485  18.756  0.00  0.00    +0.000 A 
ATOM      2  C   UNL     1       2.039   7.618  20.110  0.00  0.00    +0.000 A 
ATOM      3  C   UNL     1       1.215   8.664  20.550  0.00  0.00    +0.000 A 
ATOM      4  C   UNL     1       0.697   9.598  19.642  0.00  0.00    +0.000 A 
ATOM      5  C   UNL     1       1.044   9.489  18.297  0.00  0.00    +0.000 A 
ATOM      6  C   UNL     1       1.929   8.474  17.878  0.00  0.00    +0.000 A 
ENDROOT
BRANCH   4   7
ATOM      7  C   UNL     1      -0.048  10.768  20.186  0.00  0.00    +0.000 C 
ATOM      8  O   UNL     1      -0.673  11.448  19.382  0.00  0.00    +0.000 OA
ATOM      9  N   UNL     1       0.041  11.015  21.551  0.00  0.00    +0.000 N 
ATOM     10  H   UNL     1       0.809  10.596  22.060  0.00  0.00    +0.000 HD
BRANCH   9  11
ATOM     11  C   UNL     1      -0.748  11.976  22.235  0.00  0.00    +0.000 A 
ATOM     12  C   UNL     1      -0.401  13.333  22.279  0.00  0.00    +0.000 A 
ATOM     13  C   UNL     1      -1.183  14.260  22.972  0.00  0.00    +0.000 A 
ATOM     14  C   UNL     1      -2.340  13.833  23.626  0.00  0.00    +0.000 A 
ATOM     15  C   UNL     1      -2.721  12.484  23.573  0.00  0.00    +0.000 A 
ATOM     16  C   UNL     1      -1.930  11.563  22.867  0.00  0.00    +0.000 A 
BRANCH  14  17
ATOM     17  N   UNL     1      -3.154  14.807  24.366  0.00  0.00    +0.000 N 
ATOM     18  O   UNL     1      -2.575  15.582  25.141  0.00  0.00    +0.000 OA
ATOM     19  O   UNL     1      -4.378  14.798  24.170  0.00  0.00    +0.000 OA
ENDBRANCH  14  17
ENDBRANCH   9  11
ENDBRANCH   4   7
BRANCH   1  21
ATOM     20  N   UNL     1       2.910   4.950  18.446  0.00  0.00    +0.000 N 
ATOM     21  C   UNL     1       3.303   6.317  18.405  0.00  0.00    +0.000 C 
ATOM     22  O   UNL     1       4.458   6.636  18.103  0.00  0.00    +0.000 OA
BRANCH  20  24
ATOM     23  C   UNL     1       4.484   4.063  16.592  0.00  0.00    +0.000 C 
ATOM     24  C   UNL     1       3.904   3.911  18.009  0.00  0.00    +0.000 C 
ATOM     25  C   UNL     1       5.019   3.680  19.031  0.00  0.00    +0.000 C 
ENDBRANCH  20  24
BRANCH  20  26
ATOM     26  C   UNL     1       1.641   4.487  19.077  0.00  0.00    +0.000 C 
ATOM     27  C   UNL     1       0.980   3.233  18.486  0.00  0.00    +0.000 C 
ATOM     28  C   UNL     1       1.738   4.284  20.597  0.00  0.00    +0.000 C 
ENDBRANCH  20  26
ENDBRANCH   1  21
TORSDOF 6
ENDMDL
MODEL 4
REMARK VINA RESULT:      -7.0      3.349      4.270
REMARK  Name = 
REMARK  10 active torsions:
REMARK  status: ('A' for Active; 'I' for Inactive)
REMARK    1  A    between atoms: C_1  and  C_2
REMARK    2  A    between atoms: C_2  and  C_3
REMARK    3  A    between atoms: C_2  and  N_4
REMARK    4  A    between atoms: N_4  and  C_25
REMARK    5  A    between atoms: C_5  and  C_7
REMARK    6  A    between atoms: C_10  and  C_11
REMARK    7  A    between atoms: N_13  and  C_14
REMARK    8  A    between atoms: C_17  and  N_18
REMARK    9  A    between atoms: C_25  and  C_26
REMARK   10  A    between atoms: C_25  and  C_27
REMARK                            x       y       z     vdW  Elec       q    Type
REMARK                         _______ _______ _______ _____ _____    ______ ____
ROOT
ATOM      1  C   UNL     1       2.418   6.788  19.611  0.00  0.00    +0.000 A 
ATOM      2  C   UNL     1       2.239   7.835  18.687  0.00  0.00    +0.000 A 
ATOM      3  C   UNL     1       1.517   8.989  19.018  0.00  0.00    +0.000 A 
ATOM      4  C   UNL     1       0.973   9.152  20.300  0.00  0.00    +0.000 A 
ATOM      5  C   UNL     1       1.132   8.127  21.230  0.00  0.00    +0.000 A 
ATOM      6  C   UNL     1       1.801   6.941  20.863  0.00  0.00    +0.000 A 
ENDROOT
BRANCH   4   7
ATOM      7  C   UNL     1       0.092  10.328  20.546  0.00  0.00    +0.000 C 
ATOM      8  O   UNL     1      -0.623  10.687  19.619  0.00  0.00    +0.000 OA
ATOM      9  N   UNL     1       0.165  10.944  21.789  0.00  0.00    +0.000 N 
ATOM     10  H   UNL     1       0.986  10.772  22.357  0.00  0.00    +0.000 HD
BRANCH   9  11
ATOM     11  C   UNL     1      -0.731  11.953  22.228  0.00  0.00    +0.000 A 
ATOM     12  C   UNL     1      -1.896  11.657  22.949  0.00  0.00    +0.000 A 
ATOM     13  C   UNL     1      -2.772  12.664  23.358  0.00  0.00    +0.000 A 
ATOM     14  C   UNL     1      -2.481  13.995  23.054  0.00  0.00    +0.000 A 
ATOM     15  C   UNL     1      -1.308  14.318  22.357  0.00  0.00    +0.000 A 
ATOM     16  C   UNL     1      -0.431  13.296  21.957  0.00  0.00    +0.000 A 
BRANCH  14  17
ATOM     17  N   UNL     1      -3.412  15.053  23.473  0.00  0.00    +0.000 N 
ATOM     18  O   UNL     1      -4.173  14.818  24.424  0.00  0.00    +0.000 OA
ATOM     19  O   UNL     1      -3.381  16.123  22.849  0.00  0.00    +0.000 OA
ENDBRANCH  14  17
ENDBRANCH   9  11
ENDBRANCH   4   7
BRANCH   1  21
ATOM     20  N   UNL     1       2.679   4.274  18.982  0.00  0.00    +0.000 N 
ATOM     21  C   UNL     1       3.211   5.586  19.132  0.00  0.00    +0.000 C 
ATOM     22  O   UNL     1       4.403   5.817  18.906  0.00  0.00    +0.000 OA
BRANCH  20  24
ATOM     23  C   UNL     1       4.282   3.501  17.102  0.00  0.00    +0.000 C 
ATOM     24  C   UNL     1       3.579   3.201  18.438  0.00  0.00    +0.000 C 
ATOM     25  C   UNL     1       4.577   2.674  19.471  0.00  0.00    +0.000 C 
ENDBRANCH  20  24
BRANCH  20  26
ATOM     26  C   UNL     1       1.346   3.871  19.512  0.00  0.00    +0.000 C 
ATOM     27  C   UNL     1       0.603   2.752  18.768  0.00  0.00    +0.000 C 
ATOM     28  C   UNL     1       1.352   3.506  21.005  0.00  0.00    +0.000 C 
ENDBRANCH  20  26
ENDBRANCH   1  21
TORSDOF 6
ENDMDL
MODEL 5
REMARK VINA RESULT:      -7.0      1.378      2.177
REMARK  Name = 
REMARK  10 active torsions:
REMARK  status: ('A' for Active; 'I' for Inactive)
REMARK    1  A    between atoms: C_1  and  C_2
REMARK    2  A    between atoms: C_2  and  C_3
REMARK    3  A    between atoms: C_2  and  N_4
REMARK    4  A    between atoms: N_4  and  C_25
REMARK    5  A    between atoms: C_5  and  C_7
REMARK    6  A    between atoms: C_10  and  C_11
REMARK    7  A    between atoms: N_13  and  C_14
REMARK    8  A    between atoms: C_17  and  N_18
REMARK    9  A    between atoms: C_25  and  C_26
REMARK   10  A    between atoms: C_25  and  C_27
REMARK                            x       y       z     vdW  Elec       q    Type
REMARK                         _______ _______ _______ _____ _____    ______ ____
ROOT
ATOM      1  C   UNL     1       3.122   6.411  19.027  0.00  0.00    +0.000 A 
ATOM      2  C   UNL     1       2.415   6.861  20.158  0.00  0.00    +0.000 A 
ATOM      3  C   UNL     1       1.712   8.074  20.148  0.00  0.00    +0.000 A 
ATOM      4  C   UNL     1       1.664   8.865  18.992  0.00  0.00    +0.000 A 
ATOM      5  C   UNL     1       2.360   8.443  17.862  0.00  0.00    +0.000 A 
ATOM      6  C   UNL     1       3.121   7.256  17.906  0.00  0.00    +0.000 A 
ENDROOT
BRANCH   4   7
ATOM      7  C   UNL     1       1.028  10.209  19.087  0.00  0.00    +0.000 C 
ATOM      8  O   UNL     1       0.009  10.292  19.761  0.00  0.00    +0.000 OA
ATOM      9  N   UNL     1       1.617  11.256  18.389  0.00  0.00    +0.000 N 
ATOM     10  H   UNL     1       2.253  11.026  17.635  0.00  0.00    +0.000 HD
BRANCH   9  11
ATOM     11  C   UNL     1       1.233  12.615  18.525  0.00  0.00    +0.000 A 
ATOM     12  C   UNL     1       2.170  13.645  18.683  0.00  0.00    +0.000 A 
ATOM     13  C   UNL     1       1.770  14.975  18.831  0.00  0.00    +0.000 A 
ATOM     14  C   UNL     1       0.410  15.291  18.810  0.00  0.00    +0.000 A 
ATOM     15  C   UNL     1      -0.545  14.280  18.626  0.00  0.00    +0.000 A 
ATOM     16  C   UNL     1      -0.129  12.947  18.472  0.00  0.00    +0.000 A 
BRANCH  14  17
ATOM     17  N   UNL     1      -0.010  16.689  18.980  0.00  0.00    +0.000 N 
ATOM     18  O   UNL     1       0.396  17.303  19.978  0.00  0.00    +0.000 OA
ATOM     19  O   UNL     1      -0.748  17.175  18.111  0.00  0.00    +0.000 OA
ENDBRANCH  14  17
ENDBRANCH   9  11
ENDBRANCH   4   7
BRANCH   1  21
ATOM     20  N   UNL     1       3.259   3.811  18.950  0.00  0.00    +0.000 N 
ATOM     21  C   UNL     1       3.852   5.088  19.163  0.00  0.00    +0.000 C 
ATOM     22  O   UNL     1       5.030   5.187  19.519  0.00  0.00    +0.000 OA
BRANCH  20  24
ATOM     23  C   UNL     1       4.422   2.084  20.487  0.00  0.00    +0.000 C 
ATOM     24  C   UNL     1       4.131   2.594  19.064  0.00  0.00    +0.000 C 
ATOM     25  C   UNL     1       3.682   1.446  18.157  0.00  0.00    +0.000 C 
ENDBRANCH  20  24
BRANCH  20  26
ATOM     26  C   UNL     1       1.788   3.612  18.810  0.00  0.00    +0.000 C 
ATOM     27  C   UNL     1       0.919   3.914  20.039  0.00  0.00    +0.000 C 
ATOM     28  C   UNL     1       1.169   4.352  17.614  0.00  0.00    +0.000 C 
ENDBRANCH  20  26
ENDBRANCH   1  21
TORSDOF 6
ENDMDL
MODEL 6
REMARK VINA RESULT:      -7.0      3.309      4.055
REMARK  Name = 
REMARK  10 active torsions:
REMARK  status: ('A' for Active; 'I' for Inactive)
REMARK    1  A    between atoms: C_1  and  C_2
REMARK    2  A    between atoms: C_2  and  C_3
REMARK    3  A    between atoms: C_2  and  N_4
REMARK    4  A    between atoms: N_4  and  C_25
REMARK    5  A    between atoms: C_5  and  C_7
REMARK    6  A    between atoms: C_10  and  C_11
REMARK    7  A    between atoms: N_13  and  C_14
REMARK    8  A    between atoms: C_17  and  N_18
REMARK    9  A    between atoms: C_25  and  C_26
REMARK   10  A    between atoms: C_25  and  C_27
REMARK                            x       y       z     vdW  Elec       q    Type
REMARK                         _______ _______ _______ _____ _____    ______ ____
ROOT
ATOM      1  C   UNL     1       2.424   7.364  18.763  0.00  0.00    +0.000 A 
ATOM      2  C   UNL     1       2.049   7.535  20.109  0.00  0.00    +0.000 A 
ATOM      3  C   UNL     1       1.240   8.606  20.514  0.00  0.00    +0.000 A 
ATOM      4  C   UNL     1       0.750   9.528  19.578  0.00  0.00    +0.000 A 
ATOM      5  C   UNL     1       1.112   9.382  18.241  0.00  0.00    +0.000 A 
ATOM      6  C   UNL     1       1.983   8.341  17.856  0.00  0.00    +0.000 A 
ENDROOT
BRANCH   4   7
ATOM      7  C   UNL     1       0.021  10.724  20.086  0.00  0.00    +0.000 C 
ATOM      8  O   UNL     1      -0.676  11.329  19.282  0.00  0.00    +0.000 OA
ATOM      9  N   UNL     1       0.203  11.078  21.417  0.00  0.00    +0.000 N 
ATOM     10  H   UNL     1       1.016  10.712  21.898  0.00  0.00    +0.000 HD
BRANCH   9  11
ATOM     11  C   UNL     1      -0.555  12.075  22.083  0.00  0.00    +0.000 A 
ATOM     12  C   UNL     1      -1.705  11.771  22.823  0.00  0.00    +0.000 A 
ATOM     13  C   UNL     1      -2.445  12.770  23.459  0.00  0.00    +0.000 A 
ATOM     14  C   UNL     1      -2.029  14.099  23.367  0.00  0.00    +0.000 A 
ATOM     15  C   UNL     1      -0.866  14.425  22.655  0.00  0.00    +0.000 A 
ATOM     16  C   UNL     1      -0.126  13.409  22.026  0.00  0.00    +0.000 A 
BRANCH  14  17
ATOM     17  N   UNL     1      -2.818  15.151  24.025  0.00  0.00    +0.000 N 
ATOM     18  O   UNL     1      -2.879  16.262  23.478  0.00  0.00    +0.000 OA
ATOM     19  O   UNL     1      -3.379  14.863  25.092  0.00  0.00    +0.000 OA
ENDBRANCH  14  17
ENDBRANCH   9  11
ENDBRANCH   4   7
BRANCH   1  21
ATOM     20  N   UNL     1       2.888   4.814  18.509  0.00  0.00    +0.000 N 
ATOM     21  C   UNL     1       3.310   6.172  18.450  0.00  0.00    +0.000 C 
ATOM     22  O   UNL     1       4.476   6.462  18.163  0.00  0.00    +0.000 OA
BRANCH  20  24
ATOM     23  C   UNL     1       4.484   3.866  16.705  0.00  0.00    +0.000 C 
ATOM     24  C   UNL     1       3.868   3.747  18.110  0.00  0.00    +0.000 C 
ATOM     25  C   UNL     1       4.954   3.507  19.161  0.00  0.00    +0.000 C 
ENDBRANCH  20  24
BRANCH  20  26
ATOM     26  C   UNL     1       1.599   4.389  19.126  0.00  0.00    +0.000 C 
ATOM     27  C   UNL     1       0.946   3.112  18.577  0.00  0.00    +0.000 C 
ATOM     28  C   UNL     1       1.653   4.257  20.656  0.00  0.00    +0.000 C 
ENDBRANCH  20  26
ENDBRANCH   1  21
TORSDOF 6
ENDMDL
MODEL 7
REMARK VINA RESULT:      -7.0      1.326      1.928
REMARK  Name = 
REMARK  10 active torsions:
REMARK  status: ('A' for Active; 'I' for Inactive)
REMARK    1  A    between atoms: C_1  and  C_2
REMARK    2  A    between atoms: C_2  and  C_3
REMARK    3  A    between atoms: C_2  and  N_4
REMARK    4  A    between atoms: N_4  and  C_25
REMARK    5  A    between atoms: C_5  and  C_7
REMARK    6  A    between atoms: C_10  and  C_11
REMARK    7  A    between atoms: N_13  and  C_14
REMARK    8  A    between atoms: C_17  and  N_18
REMARK    9  A    between atoms: C_25  and  C_26
REMARK   10  A    between atoms: C_25  and  C_27
REMARK                            x       y       z     vdW  Elec       q    Type
REMARK                         _______ _______ _______ _____ _____    ______ ____
ROOT
ATOM      1  C   UNL     1       3.117   6.424  19.027  0.00  0.00    +0.000 A 
ATOM      2  C   UNL     1       2.405   6.864  20.159  0.00  0.00    +0.000 A 
ATOM      3  C   UNL     1       1.703   8.077  20.158  0.00  0.00    +0.000 A 
ATOM      4  C   UNL     1       1.660   8.879  19.010  0.00  0.00    +0.000 A 
ATOM      5  C   UNL     1       2.361   8.467  17.878  0.00  0.00    +0.000 A 
ATOM      6  C   UNL     1       3.121   7.280  17.914  0.00  0.00    +0.000 A 
ENDROOT
BRANCH   4   7
ATOM      7  C   UNL     1       1.025  10.223  19.114  0.00  0.00    +0.000 C 
ATOM      8  O   UNL     1       0.000  10.299  19.781  0.00  0.00    +0.000 OA
ATOM      9  N   UNL     1       1.620  11.277  18.433  0.00  0.00    +0.000 N 
ATOM     10  H   UNL     1       2.262  11.054  17.682  0.00  0.00    +0.000 HD
BRANCH   9  11
ATOM     11  C   UNL     1       1.236  12.635  18.581  0.00  0.00    +0.000 A 
ATOM     12  C   UNL     1      -0.094  13.055  18.445  0.00  0.00    +0.000 A 
ATOM     13  C   UNL     1      -0.448  14.399  18.580  0.00  0.00    +0.000 A 
ATOM     14  C   UNL     1       0.537  15.346  18.866  0.00  0.00    +0.000 A 
ATOM     15  C   UNL     1       1.870  14.945  19.033  0.00  0.00    +0.000 A 
ATOM     16  C   UNL     1       2.213  13.588  18.903  0.00  0.00    +0.000 A 
BRANCH  14  17
ATOM     17  N   UNL     1       0.164  16.762  18.993  0.00  0.00    +0.000 N 
ATOM     18  O   UNL     1       0.697  17.576  18.225  0.00  0.00    +0.000 OA
ATOM     19  O   UNL     1      -0.666  17.059  19.864  0.00  0.00    +0.000 OA
ENDBRANCH  14  17
ENDBRANCH   9  11
ENDBRANCH   4   7
BRANCH   1  21
ATOM     20  N   UNL     1       3.249   3.824  18.937  0.00  0.00    +0.000 N 
ATOM     21  C   UNL     1       3.845   5.099  19.154  0.00  0.00    +0.000 C 
ATOM     22  O   UNL     1       5.025   5.195  19.506  0.00  0.00    +0.000 OA
BRANCH  20  24
ATOM     23  C   UNL     1       4.424   2.094  20.461  0.00  0.00    +0.000 C 
ATOM     24  C   UNL     1       4.120   2.605  19.042  0.00  0.00    +0.000 C 
ATOM     25  C   UNL     1       3.660   1.459  18.138  0.00  0.00    +0.000 C 
ENDBRANCH  20  24
BRANCH  20  26
ATOM     26  C   UNL     1       1.778   3.628  18.802  0.00  0.00    +0.000 C 
ATOM     27  C   UNL     1       0.914   3.925  20.037  0.00  0.00    +0.000 C 
ATOM     28  C   UNL     1       1.155   4.375  17.613  0.00  0.00    +0.000 C 
ENDBRANCH  20  26
ENDBRANCH   1  21
TORSDOF 6
ENDMDL
MODEL 8
REMARK VINA RESULT:      -7.0      3.443      4.453
REMARK  Name = 
REMARK  10 active torsions:
REMARK  status: ('A' for Active; 'I' for Inactive)
REMARK    1  A    between atoms: C_1  and  C_2
REMARK    2  A    between atoms: C_2  and  C_3
REMARK    3  A    between atoms: C_2  and  N_4
REMARK    4  A    between atoms: N_4  and  C_25
REMARK    5  A    between atoms: C_5  and  C_7
REMARK    6  A    between atoms: C_10  and  C_11
REMARK    7  A    between atoms: N_13  and  C_14
REMARK    8  A    between atoms: C_17  and  N_18
REMARK    9  A    between atoms: C_25  and  C_26
REMARK   10  A    between atoms: C_25  and  C_27
REMARK                            x       y       z     vdW  Elec       q    Type
REMARK                         _______ _______ _______ _____ _____    ______ ____
ROOT
ATOM      1  C   UNL     1       3.151   7.343  18.346  0.00  0.00    +0.000 A 
ATOM      2  C   UNL     1       2.683   8.453  17.617  0.00  0.00    +0.000 A 
ATOM      3  C   UNL     1       1.713   9.318  18.143  0.00  0.00    +0.000 A 
ATOM      4  C   UNL     1       1.201   9.122  19.433  0.00  0.00    +0.000 A 
ATOM      5  C   UNL     1       1.646   8.028  20.171  0.00  0.00    +0.000 A 
ATOM      6  C   UNL     1       2.570   7.124  19.605  0.00  0.00    +0.000 A 
ENDROOT
BRANCH   4   7
ATOM      7  C   UNL     1       0.070   9.983  19.878  0.00  0.00    +0.000 C 
ATOM      8  O   UNL     1      -0.963   9.921  19.224  0.00  0.00    +0.000 OA
ATOM      9  N   UNL     1       0.275  10.805  20.979  0.00  0.00    +0.000 N 
ATOM     10  H   UNL     1       1.230  11.008  21.248  0.00  0.00    +0.000 HD
BRANCH   9  11
ATOM     11  C   UNL     1      -0.754  11.541  21.622  0.00  0.00    +0.000 A 
ATOM     12  C   UNL     1      -1.354  11.105  22.811  0.00  0.00    +0.000 A 
ATOM     13  C   UNL     1      -2.375  11.836  23.420  0.00  0.00    +0.000 A 
ATOM     14  C   UNL     1      -2.805  13.032  22.842  0.00  0.00    +0.000 A 
ATOM     15  C   UNL     1      -2.201  13.502  21.667  0.00  0.00    +0.000 A 
ATOM     16  C   UNL     1      -1.169  12.761  21.068  0.00  0.00    +0.000 A 
BRANCH  14  17
ATOM     17  N   UNL     1      -3.890  13.794  23.476  0.00  0.00    +0.000 N 
ATOM     18  O   UNL     1      -3.611  14.881  24.002  0.00  0.00    +0.000 OA
ATOM     19  O   UNL     1      -5.028  13.301  23.447  0.00  0.00    +0.000 OA
ENDBRANCH  14  17
ENDBRANCH   9  11
ENDBRANCH   4   7
BRANCH   1  21
ATOM     20  N   UNL     1       4.122   5.058  17.559  0.00  0.00    +0.000 N 
ATOM     21  C   UNL     1       4.194   6.475  17.667  0.00  0.00    +0.000 C 
ATOM     22  O   UNL     1       5.168   7.095  17.226  0.00  0.00    +0.000 OA
BRANCH  20  24
ATOM     23  C   UNL     1       5.245   4.569  15.279  0.00  0.00    +0.000 C 
ATOM     24  C   UNL     1       5.206   4.345  16.801  0.00  0.00    +0.000 C 
ATOM     25  C   UNL     1       6.594   4.540  17.415  0.00  0.00    +0.000 C 
ENDBRANCH  20  24
BRANCH  20  26
ATOM     26  C   UNL     1       3.137   4.235  18.317  0.00  0.00    +0.000 C 
ATOM     27  C   UNL     1       1.792   3.944  17.634  0.00  0.00    +0.000 C 
ATOM     28  C   UNL     1       3.697   2.895  18.818  0.00  0.00    +0.000 C 
ENDBRANCH  20  26
ENDBRANCH   1  21
TORSDOF 6
ENDMDL
MODEL 9
REMARK VINA RESULT:      -7.0      3.410      4.384
REMARK  Name = 
REMARK  10 active torsions:
REMARK  status: ('A' for Active; 'I' for Inactive)
REMARK    1  A    between atoms: C_1  and  C_2
REMARK    2  A    between atoms: C_2  and  C_3
REMARK    3  A    between atoms: C_2  and  N_4
REMARK    4  A    between atoms: N_4  and  C_25
REMARK    5  A    between atoms: C_5  and  C_7
REMARK    6  A    between atoms: C_10  and  C_11
REMARK    7  A    between atoms: N_13  and  C_14
REMARK    8  A    between atoms: C_17  and  N_18
REMARK    9  A    between atoms: C_25  and  C_26
REMARK   10  A    between atoms: C_25  and  C_27
REMARK                            x       y       z     vdW  Elec       q    Type
REMARK                         _______ _______ _______ _____ _____    ______ ____
ROOT
ATOM      1  C   UNL     1       3.002   7.385  18.360  0.00  0.00    +0.000 A 
ATOM      2  C   UNL     1       2.505   8.438  17.569  0.00  0.00    +0.000 A 
ATOM      3  C   UNL     1       1.539   9.329  18.058  0.00  0.00    +0.000 A 
ATOM      4  C   UNL     1       1.060   9.218  19.370  0.00  0.00    +0.000 A 
ATOM      5  C   UNL     1       1.533   8.181  20.171  0.00  0.00    +0.000 A 
ATOM      6  C   UNL     1       2.453   7.249  19.645  0.00  0.00    +0.000 A 
ENDROOT
BRANCH   4   7
ATOM      7  C   UNL     1      -0.070  10.098  19.782  0.00  0.00    +0.000 C 
ATOM      8  O   UNL     1      -1.123   9.970  19.171  0.00  0.00    +0.000 OA
ATOM      9  N   UNL     1       0.159  11.010  20.805  0.00  0.00    +0.000 N 
ATOM     10  H   UNL     1       1.119  11.247  21.024  0.00  0.00    +0.000 HD
BRANCH   9  11
ATOM     11  C   UNL     1      -0.859  11.782  21.422  0.00  0.00    +0.000 A 
ATOM     12  C   UNL     1      -1.378  12.942  20.832  0.00  0.00    +0.000 A 
ATOM     13  C   UNL     1      -2.370  13.696  21.463  0.00  0.00    +0.000 A 
ATOM     14  C   UNL     1      -2.864  13.285  22.702  0.00  0.00    +0.000 A 
ATOM     15  C   UNL     1      -2.379  12.113  23.299  0.00  0.00    +0.000 A 
ATOM     16  C   UNL     1      -1.386  11.359  22.650  0.00  0.00    +0.000 A 
BRANCH  14  17
ATOM     17  N   UNL     1      -3.897  14.088  23.371  0.00  0.00    +0.000 N 
ATOM     18  O   UNL     1      -4.766  14.625  22.668  0.00  0.00    +0.000 OA
ATOM     19  O   UNL     1      -3.840  14.180  24.606  0.00  0.00    +0.000 OA
ENDBRANCH  14  17
ENDBRANCH   9  11
ENDBRANCH   4   7
BRANCH   1  21
ATOM     20  N   UNL     1       3.927   5.066  17.619  0.00  0.00    +0.000 N 
ATOM     21  C   UNL     1       4.038   6.482  17.717  0.00  0.00    +0.000 C 
ATOM     22  O   UNL     1       5.040   7.069  17.298  0.00  0.00    +0.000 OA
BRANCH  20  24
ATOM     23  C   UNL     1       5.091   4.517  15.374  0.00  0.00    +0.000 C 
ATOM     24  C   UNL     1       5.010   4.316  16.898  0.00  0.00    +0.000 C 
ATOM     25  C   UNL     1       6.388   4.484  17.542  0.00  0.00    +0.000 C 
ENDBRANCH  20  24
BRANCH  20  26
ATOM     26  C   UNL     1       2.898   4.278  18.357  0.00  0.00    +0.000 C 
ATOM     27  C   UNL     1       1.513   4.149  17.706  0.00  0.00    +0.000 C 
ATOM     28  C   UNL     1       3.356   2.865  18.748  0.00  0.00    +0.000 C 
ENDBRANCH  20  26
ENDBRANCH   1  21
TORSDOF 6
ENDMDL
