MODEL 1
REMARK VINA RESULT:      -5.4      0.000      0.000
REMARK  Name = 
REMARK  5 active torsions:
REMARK  status: ('A' for Active; 'I' for Inactive)
REMARK    1  A    between atoms: C_1  and  C_2
REMARK    2  A    between atoms: C_2  and  C_3
REMARK    3  A    between atoms: C_3  and  N_4
REMARK    4  A    between atoms: C_3  and  C_5
REMARK    5  A    between atoms: C_5  and  C_6
REMARK                            x       y       z     vdW  Elec       q    Type
REMARK                         _______ _______ _______ _____ _____    ______ ____
ROOT
ATOM      1  C   UNL     1       5.825   5.542  16.842  0.00  0.00    +0.000 C 
ENDROOT
BRANCH   1   2
ATOM      2  C   UNL     1       4.414   5.145  17.224  0.00  0.00    +0.000 A 
ATOM      3  C   UNL     1       3.928   3.859  16.957  0.00  0.00    +0.000 A 
ATOM      4  C   UNL     1       2.623   3.508  17.302  0.00  0.00    +0.000 A 
ATOM      5  C   UNL     1       1.792   4.435  17.928  0.00  0.00    +0.000 A 
ATOM      6  C   UNL     1       2.267   5.714  18.209  0.00  0.00    +0.000 A 
ATOM      7  C   UNL     1       3.572   6.069  17.860  0.00  0.00    +0.000 A 
ENDBRANCH   1   2
BRANCH   1   8
ATOM      8  C   UNL     1       6.686   4.380  16.287  0.00  0.00    +0.000 C 
BRANCH   8   9
ATOM      9  N   UNL     1       7.895   4.248  17.116  0.00  0.00    +0.000 NA
ATOM     10  H   UNL     1       7.664   4.443  18.090  0.00  0.00    +0.000 HD
ATOM     11  H   UNL     1       8.577   4.953  16.842  0.00  0.00    +0.000 HD
ENDBRANCH   8   9
BRANCH   8  13
ATOM     12  C   UNL     1       6.089   3.947  13.825  0.00  0.00    +0.000 C 
ATOM     13  C   UNL     1       7.049   4.607  14.805  0.00  0.00    +0.000 C 
ENDBRANCH   8  13
ENDBRANCH   1   8
TORSDOF 4
ENDMDL
MODEL 2
REMARK VINA RESULT:      -5.4      1.331      2.510
REMARK  Name = 
REMARK  5 active torsions:
REMARK  status: ('A' for Active; 'I' for Inactive)
REMARK    1  A    between atoms: C_1  and  C_2
REMARK    2  A    between atoms: C_2  and  C_3
REMARK    3  A    between atoms: C_3  and  N_4
REMARK    4  A    between atoms: C_3  and  C_5
REMARK    5  A    between atoms: C_5  and  C_6
REMARK                            x       y       z     vdW  Elec       q    Type
REMARK                         _______ _______ _______ _____ _____    ______ ____
ROOT
ATOM      1  C   UNL     1       5.598   4.162  16.160  0.00  0.00    +0.000 C 
ENDROOT
BRANCH   1   2
ATOM      2  C   UNL     1       4.322   4.506  16.899  0.00  0.00    +0.000 A 
ATOM      3  C   UNL     1       4.101   5.796  17.397  0.00  0.00    +0.000 A 
ATOM      4  C   UNL     1       2.927   6.100  18.087  0.00  0.00    +0.000 A 
ATOM      5  C   UNL     1       1.957   5.119  18.279  0.00  0.00    +0.000 A 
ATOM      6  C   UNL     1       2.160   3.834  17.781  0.00  0.00    +0.000 A 
ATOM      7  C   UNL     1       3.336   3.528  17.092  0.00  0.00    +0.000 A 
ENDBRANCH   1   2
BRANCH   1   8
ATOM      8  C   UNL     1       6.770   5.140  16.421  0.00  0.00    +0.000 C 
BRANCH   8   9
ATOM      9  N   UNL     1       7.567   5.263  15.190  0.00  0.00    +0.000 NA
ATOM     10  H   UNL     1       6.995   5.673  14.451  0.00  0.00    +0.000 HD
ATOM     11  H   UNL     1       7.832   4.338  14.859  0.00  0.00    +0.000 HD
ENDBRANCH   8   9
BRANCH   8  13
ATOM     12  C   UNL     1       7.627   5.618  18.796  0.00  0.00    +0.000 C 
ATOM     13  C   UNL     1       7.642   4.671  17.604  0.00  0.00    +0.000 C 
ENDBRANCH   8  13
ENDBRANCH   1   8
TORSDOF 4
ENDMDL
MODEL 3
REMARK VINA RESULT:      -5.3      1.825      2.828
REMARK  Name = 
REMARK  5 active torsions:
REMARK  status: ('A' for Active; 'I' for Inactive)
REMARK    1  A    between atoms: C_1  and  C_2
REMARK    2  A    between atoms: C_2  and  C_3
REMARK    3  A    between atoms: C_3  and  N_4
REMARK    4  A    between atoms: C_3  and  C_5
REMARK    5  A    between atoms: C_5  and  C_6
REMARK                            x       y       z     vdW  Elec       q    Type
REMARK                         _______ _______ _______ _____ _____    ______ ____
ROOT
ATOM      1  C   UNL     1       3.687   4.908  17.601  0.00  0.00    +0.000 C 
ENDROOT
BRANCH   1   2
ATOM      2  C   UNL     1       2.628   4.324  18.512  0.00  0.00    +0.000 A 
ATOM      3  C   UNL     1       2.343   4.907  19.754  0.00  0.00    +0.000 A 
ATOM      4  C   UNL     1       1.374   4.354  20.591  0.00  0.00    +0.000 A 
ATOM      5  C   UNL     1       0.671   3.218  20.192  0.00  0.00    +0.000 A 
ATOM      6  C   UNL     1       0.938   2.635  18.956  0.00  0.00    +0.000 A 
ATOM      7  C   UNL     1       1.911   3.185  18.118  0.00  0.00    +0.000 A 
ENDBRANCH   1   2
BRANCH   1   8
ATOM      8  C   UNL     1       4.837   3.931  17.250  0.00  0.00    +0.000 C 
BRANCH   8   9
ATOM      9  N   UNL     1       5.776   3.879  18.382  0.00  0.00    +0.000 NA
ATOM     10  H   UNL     1       6.222   2.962  18.415  0.00  0.00    +0.000 HD
ATOM     11  H   UNL     1       5.264   3.973  19.257  0.00  0.00    +0.000 HD
ENDBRANCH   8   9
BRANCH   8  13
ATOM     12  C   UNL     1       5.390   5.819  15.598  0.00  0.00    +0.000 C 
ATOM     13  C   UNL     1       5.554   4.348  15.950  0.00  0.00    +0.000 C 
ENDBRANCH   8  13
ENDBRANCH   1   8
TORSDOF 4
ENDMDL
MODEL 4
REMARK VINA RESULT:      -5.3      1.544      2.284
REMARK  Name = 
REMARK  5 active torsions:
REMARK  status: ('A' for Active; 'I' for Inactive)
REMARK    1  A    between atoms: C_1  and  C_2
REMARK    2  A    between atoms: C_2  and  C_3
REMARK    3  A    between atoms: C_3  and  N_4
REMARK    4  A    between atoms: C_3  and  C_5
REMARK    5  A    between atoms: C_5  and  C_6
REMARK                            x       y       z     vdW  Elec       q    Type
REMARK                         _______ _______ _______ _____ _____    ______ ____
ROOT
ATOM      1  C   UNL     1       6.060   4.586  17.280  0.00  0.00    +0.000 C 
ENDROOT
BRANCH   1   2
ATOM      2  C   UNL     1       4.558   4.578  17.466  0.00  0.00    +0.000 A 
ATOM      3  C   UNL     1       3.809   3.416  17.244  0.00  0.00    +0.000 A 
ATOM      4  C   UNL     1       2.423   3.422  17.407  0.00  0.00    +0.000 A 
ATOM      5  C   UNL     1       1.772   4.589  17.804  0.00  0.00    +0.000 A 
ATOM      6  C   UNL     1       2.507   5.749  18.038  0.00  0.00    +0.000 A 
ATOM      7  C   UNL     1       3.893   5.745  17.872  0.00  0.00    +0.000 A 
ENDBRANCH   1   2
BRANCH   1   8
ATOM      8  C   UNL     1       6.634   5.932  16.774  0.00  0.00    +0.000 C 
BRANCH   8   9
ATOM      9  N   UNL     1       7.410   5.686  15.548  0.00  0.00    +0.000 NA
ATOM     10  H   UNL     1       7.136   6.356  14.829  0.00  0.00    +0.000 HD
ATOM     11  H   UNL     1       7.181   4.766  15.176  0.00  0.00    +0.000 HD
ENDBRANCH   8   9
BRANCH   8  13
ATOM     12  C   UNL     1       7.741   8.099  17.599  0.00  0.00    +0.000 C 
ATOM     13  C   UNL     1       7.497   6.618  17.852  0.00  0.00    +0.000 C 
ENDBRANCH   8  13
ENDBRANCH   1   8
TORSDOF 4
ENDMDL
MODEL 5
REMARK VINA RESULT:      -5.2      2.774      5.147
REMARK  Name = 
REMARK  5 active torsions:
REMARK  status: ('A' for Active; 'I' for Inactive)
REMARK    1  A    between atoms: C_1  and  C_2
REMARK    2  A    between atoms: C_2  and  C_3
REMARK    3  A    between atoms: C_3  and  N_4
REMARK    4  A    between atoms: C_3  and  C_5
REMARK    5  A    between atoms: C_5  and  C_6
REMARK                            x       y       z     vdW  Elec       q    Type
REMARK                         _______ _______ _______ _____ _____    ______ ____
ROOT
ATOM      1  C   UNL     1       1.606   4.083  18.141  0.00  0.00    +0.000 C 
ENDROOT
BRANCH   1   2
ATOM      2  C   UNL     1       2.862   4.777  17.659  0.00  0.00    +0.000 A 
ATOM      3  C   UNL     1       3.854   4.074  16.964  0.00  0.00    +0.000 A 
ATOM      4  C   UNL     1       5.014   4.720  16.534  0.00  0.00    +0.000 A 
ATOM      5  C   UNL     1       5.190   6.079  16.786  0.00  0.00    +0.000 A 
ATOM      6  C   UNL     1       4.206   6.792  17.467  0.00  0.00    +0.000 A 
ATOM      7  C   UNL     1       3.047   6.146  17.901  0.00  0.00    +0.000 A 
ENDBRANCH   1   2
BRANCH   1   8
ATOM      8  C   UNL     1       1.851   2.990  19.210  0.00  0.00    +0.000 C 
BRANCH   8   9
ATOM      9  N   UNL     1       1.489   1.681  18.642  0.00  0.00    +0.000 NA
ATOM     10  H   UNL     1       1.959   0.940  19.162  0.00  0.00    +0.000 HD
ATOM     11  H   UNL     1       1.835   1.615  17.686  0.00  0.00    +0.000 HD
ENDBRANCH   8   9
BRANCH   8  13
ATOM     12  C   UNL     1       1.672   2.665  21.753  0.00  0.00    +0.000 C 
ATOM     13  C   UNL     1       1.057   3.275  20.501  0.00  0.00    +0.000 C 
ENDBRANCH   8  13
ENDBRANCH   1   8
TORSDOF 4
ENDMDL
MODEL 6
REMARK VINA RESULT:      -5.2      0.908      1.772
REMARK  Name = 
REMARK  5 active torsions:
REMARK  status: ('A' for Active; 'I' for Inactive)
REMARK    1  A    between atoms: C_1  and  C_2
REMARK    2  A    between atoms: C_2  and  C_3
REMARK    3  A    between atoms: C_3  and  N_4
REMARK    4  A    between atoms: C_3  and  C_5
REMARK    5  A    between atoms: C_5  and  C_6
REMARK                            x       y       z     vdW  Elec       q    Type
REMARK                         _______ _______ _______ _____ _____    ______ ____
ROOT
ATOM      1  C   UNL     1       5.894   4.730  18.409  0.00  0.00    +0.000 C 
ENDROOT
BRANCH   1   2
ATOM      2  C   UNL     1       4.408   4.602  18.148  0.00  0.00    +0.000 A 
ATOM      3  C   UNL     1       3.538   5.673  18.391  0.00  0.00    +0.000 A 
ATOM      4  C   UNL     1       2.169   5.541  18.158  0.00  0.00    +0.000 A 
ATOM      5  C   UNL     1       1.655   4.341  17.670  0.00  0.00    +0.000 A 
ATOM      6  C   UNL     1       2.512   3.272  17.414  0.00  0.00    +0.000 A 
ATOM      7  C   UNL     1       3.882   3.401  17.650  0.00  0.00    +0.000 A 
ENDBRANCH   1   2
BRANCH   1   8
ATOM      8  C   UNL     1       6.789   4.360  17.200  0.00  0.00    +0.000 C 
BRANCH   8   9
ATOM      9  N   UNL     1       8.170   4.169  17.673  0.00  0.00    +0.000 NA
ATOM     10  H   UNL     1       8.220   3.332  18.255  0.00  0.00    +0.000 HD
ATOM     11  H   UNL     1       8.436   4.946  18.276  0.00  0.00    +0.000 HD
ENDBRANCH   8   9
BRANCH   8  13
ATOM     12  C   UNL     1       6.078   4.958  14.805  0.00  0.00    +0.000 C 
ATOM     13  C   UNL     1       6.721   5.437  16.098  0.00  0.00    +0.000 C 
ENDBRANCH   8  13
ENDBRANCH   1   8
TORSDOF 4
ENDMDL
MODEL 7
REMARK VINA RESULT:      -5.2      2.801      5.351
REMARK  Name = 
REMARK  5 active torsions:
REMARK  status: ('A' for Active; 'I' for Inactive)
REMARK    1  A    between atoms: C_1  and  C_2
REMARK    2  A    between atoms: C_2  and  C_3
REMARK    3  A    between atoms: C_3  and  N_4
REMARK    4  A    between atoms: C_3  and  C_5
REMARK    5  A    between atoms: C_5  and  C_6
REMARK                            x       y       z     vdW  Elec       q    Type
REMARK                         _______ _______ _______ _____ _____    ______ ____
ROOT
ATOM      1  C   UNL     1       1.550   3.955  18.155  0.00  0.00    +0.000 C 
ENDROOT
BRANCH   1   2
ATOM      2  C   UNL     1       2.756   4.760  17.720  0.00  0.00    +0.000 A 
ATOM      3  C   UNL     1       2.849   6.130  17.997  0.00  0.00    +0.000 A 
ATOM      4  C   UNL     1       3.959   6.865  17.581  0.00  0.00    +0.000 A 
ATOM      5  C   UNL     1       4.995   6.236  16.893  0.00  0.00    +0.000 A 
ATOM      6  C   UNL     1       4.920   4.872  16.620  0.00  0.00    +0.000 A 
ATOM      7  C   UNL     1       3.807   4.136  17.032  0.00  0.00    +0.000 A 
ENDBRANCH   1   2
BRANCH   1   8
ATOM      8  C   UNL     1       1.849   2.890  19.238  0.00  0.00    +0.000 C 
BRANCH   8   9
ATOM      9  N   UNL     1       1.524   1.560  18.699  0.00  0.00    +0.000 NA
ATOM     10  H   UNL     1       0.514   1.420  18.721  0.00  0.00    +0.000 HD
ATOM     11  H   UNL     1       1.920   0.840  19.300  0.00  0.00    +0.000 HD
ENDBRANCH   8   9
BRANCH   8  13
ATOM     12  C   UNL     1       1.739   2.636  21.793  0.00  0.00    +0.000 C 
ATOM     13  C   UNL     1       1.066   3.171  20.537  0.00  0.00    +0.000 C 
ENDBRANCH   8  13
ENDBRANCH   1   8
TORSDOF 4
ENDMDL
MODEL 8
REMARK VINA RESULT:      -5.2      1.798      2.443
REMARK  Name = 
REMARK  5 active torsions:
REMARK  status: ('A' for Active; 'I' for Inactive)
REMARK    1  A    between atoms: C_1  and  C_2
REMARK    2  A    between atoms: C_2  and  C_3
REMARK    3  A    between atoms: C_3  and  N_4
REMARK    4  A    between atoms: C_3  and  C_5
REMARK    5  A    between atoms: C_5  and  C_6
REMARK                            x       y       z     vdW  Elec       q    Type
REMARK                         _______ _______ _______ _____ _____    ______ ____
ROOT
ATOM      1  C   UNL     1       3.684   4.900  17.510  0.00  0.00    +0.000 C 
ENDROOT
BRANCH   1   2
ATOM      2  C   UNL     1       2.635   4.311  18.430  0.00  0.00    +0.000 A 
ATOM      3  C   UNL     1       1.947   3.140  18.086  0.00  0.00    +0.000 A 
ATOM      4  C   UNL     1       0.974   2.612  18.935  0.00  0.00    +0.000 A 
ATOM      5  C   UNL     1       0.685   3.244  20.143  0.00  0.00    +0.000 A 
ATOM      6  C   UNL     1       1.369   4.403  20.502  0.00  0.00    +0.000 A 
ATOM      7  C   UNL     1       2.341   4.934  19.651  0.00  0.00    +0.000 A 
ENDBRANCH   1   2
BRANCH   1   8
ATOM      8  C   UNL     1       4.845   3.935  17.166  0.00  0.00    +0.000 C 
BRANCH   8   9
ATOM      9  N   UNL     1       5.686   3.760  18.362  0.00  0.00    +0.000 NA
ATOM     10  H   UNL     1       6.607   3.419  18.086  0.00  0.00    +0.000 HD
ATOM     11  H   UNL     1       5.286   3.038  18.959  0.00  0.00    +0.000 HD
ENDBRANCH   8   9
BRANCH   8  13
ATOM     12  C   UNL     1       5.351   5.886  15.572  0.00  0.00    +0.000 C 
ATOM     13  C   UNL     1       5.675   4.454  15.974  0.00  0.00    +0.000 C 
ENDBRANCH   8  13
ENDBRANCH   1   8
TORSDOF 4
ENDMDL
MODEL 9
REMARK VINA RESULT:      -5.2      1.033      1.836
REMARK  Name = 
REMARK  5 active torsions:
REMARK  status: ('A' for Active; 'I' for Inactive)
REMARK    1  A    between atoms: C_1  and  C_2
REMARK    2  A    between atoms: C_2  and  C_3
REMARK    3  A    between atoms: C_3  and  N_4
REMARK    4  A    between atoms: C_3  and  C_5
REMARK    5  A    between atoms: C_5  and  C_6
REMARK                            x       y       z     vdW  Elec       q    Type
REMARK                         _______ _______ _______ _____ _____    ______ ____
ROOT
ATOM      1  C   UNL     1       5.275   4.926  17.342  0.00  0.00    +0.000 C 
ENDROOT
BRANCH   1   2
ATOM      2  C   UNL     1       3.964   4.223  17.627  0.00  0.00    +0.000 A 
ATOM      3  C   UNL     1       2.778   4.948  17.796  0.00  0.00    +0.000 A 
ATOM      4  C   UNL     1       1.577   4.291  18.070  0.00  0.00    +0.000 A 
ATOM      5  C   UNL     1       1.548   2.901  18.167  0.00  0.00    +0.000 A 
ATOM      6  C   UNL     1       2.719   2.168  17.991  0.00  0.00    +0.000 A 
ATOM      7  C   UNL     1       3.922   2.824  17.720  0.00  0.00    +0.000 A 
ENDBRANCH   1   2
BRANCH   1   8
ATOM      8  C   UNL     1       6.112   4.281  16.211  0.00  0.00    +0.000 C 
BRANCH   8   9
ATOM      9  N   UNL     1       7.518   4.684  16.374  0.00  0.00    +0.000 NA
ATOM     10  H   UNL     1       7.971   4.077  17.058  0.00  0.00    +0.000 HD
ATOM     11  H   UNL     1       7.563   5.624  16.760  0.00  0.00    +0.000 HD
ENDBRANCH   8   9
BRANCH   8  13
ATOM     12  C   UNL     1       6.178   3.870  13.675  0.00  0.00    +0.000 C 
ATOM     13  C   UNL     1       5.578   4.676  14.819  0.00  0.00    +0.000 C 
ENDBRANCH   8  13
ENDBRANCH   1   8
TORSDOF 4
ENDMDL
