MODEL 1
REMARK VINA RESULT:      -7.1      0.000      0.000
REMARK  Name = 
REMARK  4 active torsions:
REMARK  status: ('A' for Active; 'I' for Inactive)
REMARK    1  A    between atoms: C_1  and  O_2
REMARK    2  A    between atoms: O_2  and  C_3
REMARK    3  A    between atoms: C_7  and  N_8
REMARK    4  A    between atoms: C_11  and  C_12
REMARK                            x       y       z     vdW  Elec       q    Type
REMARK                         _______ _______ _______ _____ _____    ______ ____
ROOT
ATOM      1  N   UNL     1       5.247   4.247  19.136  0.00  0.00    +0.000 N 
ATOM      2  C   UNL     1       5.758   4.639  17.954  0.00  0.00    +0.000 A 
ATOM      3  N   UNL     1       5.701   4.051  16.788  0.00  0.00    +0.000 NA
ATOM      4  C   UNL     1       6.371   4.932  15.967  0.00  0.00    +0.000 A 
ATOM      5  N   UNL     1       6.806   6.037  16.596  0.00  0.00    +0.000 NA
ATOM      6  O   UNL     1       6.424   5.828  17.923  0.00  0.00    +0.000 OA
ATOM      7  H   UNL     1       5.906   4.273  19.910  0.00  0.00    +0.000 HD
ENDROOT
BRANCH   1  12
ATOM      8  C   UNL     1       2.883   3.515  19.120  0.00  0.00    +0.000 C 
ATOM      9  C   UNL     1       2.611   3.704  20.612  0.00  0.00    +0.000 C 
ATOM     10  N   UNL     1       3.304   2.590  21.287  0.00  0.00    +0.000 NA
ATOM     11  C   UNL     1       4.457   2.254  20.418  0.00  0.00    +0.000 C 
ATOM     12  C   UNL     1       4.356   3.082  19.126  0.00  0.00    +0.000 C 
ATOM     13  H   UNL     1       2.672   1.785  21.262  0.00  0.00    +0.000 HD
BRANCH   8  15
ATOM     14  C   UNL     1       0.732   2.492  18.806  0.00  0.00    +0.000 C 
ATOM     15  O   UNL     1       2.121   2.447  18.528  0.00  0.00    +0.000 OA
ENDBRANCH   8  15
ENDBRANCH   1  12
BRANCH   4  16
ATOM     16  C   UNL     1       6.584   4.658  14.551  0.00  0.00    +0.000 A 
ATOM     17  C   UNL     1       7.571   5.354  13.837  0.00  0.00    +0.000 A 
ATOM     18  C   UNL     1       7.787   5.099  12.480  0.00  0.00    +0.000 A 
ATOM     19  C   UNL     1       7.008   4.151  11.820  0.00  0.00    +0.000 A 
ATOM     20  C   UNL     1       6.019   3.457  12.513  0.00  0.00    +0.000 A 
ATOM     21  C   UNL     1       5.806   3.710  13.870  0.00  0.00    +0.000 A 
ENDBRANCH   4  16
TORSDOF 3
ENDMDL
MODEL 2
REMARK VINA RESULT:      -7.1      0.299      1.146
REMARK  Name = 
REMARK  4 active torsions:
REMARK  status: ('A' for Active; 'I' for Inactive)
REMARK    1  A    between atoms: C_1  and  O_2
REMARK    2  A    between atoms: O_2  and  C_3
REMARK    3  A    between atoms: C_7  and  N_8
REMARK    4  A    between atoms: C_11  and  C_12
REMARK                            x       y       z     vdW  Elec       q    Type
REMARK                         _______ _______ _______ _____ _____    ______ ____
ROOT
ATOM      1  N   UNL     1       5.501   4.050  19.020  0.00  0.00    +0.000 N 
ATOM      2  C   UNL     1       6.034   4.470  17.857  0.00  0.00    +0.000 A 
ATOM      3  N   UNL     1       5.886   3.985  16.652  0.00  0.00    +0.000 NA
ATOM      4  C   UNL     1       6.642   4.842  15.882  0.00  0.00    +0.000 A 
ATOM      5  N   UNL     1       7.217   5.836  16.581  0.00  0.00    +0.000 NA
ATOM      6  O   UNL     1       6.837   5.571  17.898  0.00  0.00    +0.000 OA
ATOM      7  H   UNL     1       6.173   3.939  19.775  0.00  0.00    +0.000 HD
ENDROOT
BRANCH   1  12
ATOM      8  C   UNL     1       3.071   3.612  18.859  0.00  0.00    +0.000 C 
ATOM      9  C   UNL     1       2.737   3.828  20.335  0.00  0.00    +0.000 C 
ATOM     10  N   UNL     1       3.248   2.637  21.038  0.00  0.00    +0.000 NA
ATOM     11  C   UNL     1       4.401   2.165  20.234  0.00  0.00    +0.000 C 
ATOM     12  C   UNL     1       4.477   3.002  18.946  0.00  0.00    +0.000 C 
ATOM     13  H   UNL     1       2.526   1.914  20.968  0.00  0.00    +0.000 HD
BRANCH   8  15
ATOM     14  C   UNL     1       0.883   2.634  18.681  0.00  0.00    +0.000 C 
ATOM     15  O   UNL     1       2.222   2.646  18.213  0.00  0.00    +0.000 OA
ENDBRANCH   8  15
ENDBRANCH   1  12
BRANCH   4  16
ATOM     16  C   UNL     1       6.796   4.656  14.444  0.00  0.00    +0.000 A 
ATOM     17  C   UNL     1       6.027   3.697  13.769  0.00  0.00    +0.000 A 
ATOM     18  C   UNL     1       6.163   3.510  12.390  0.00  0.00    +0.000 A 
ATOM     19  C   UNL     1       7.081   4.276  11.675  0.00  0.00    +0.000 A 
ATOM     20  C   UNL     1       7.858   5.227  12.332  0.00  0.00    +0.000 A 
ATOM     21  C   UNL     1       7.719   5.415  13.709  0.00  0.00    +0.000 A 
ENDBRANCH   4  16
TORSDOF 3
ENDMDL
MODEL 3
REMARK VINA RESULT:      -7.0      1.402      1.882
REMARK  Name = 
REMARK  4 active torsions:
REMARK  status: ('A' for Active; 'I' for Inactive)
REMARK    1  A    between atoms: C_1  and  O_2
REMARK    2  A    between atoms: O_2  and  C_3
REMARK    3  A    between atoms: C_7  and  N_8
REMARK    4  A    between atoms: C_11  and  C_12
REMARK                            x       y       z     vdW  Elec       q    Type
REMARK                         _______ _______ _______ _____ _____    ______ ____
ROOT
ATOM      1  N   UNL     1       5.224   5.322  19.086  0.00  0.00    +0.000 N 
ATOM      2  C   UNL     1       5.885   5.393  17.915  0.00  0.00    +0.000 A 
ATOM      3  N   UNL     1       5.615   4.816  16.773  0.00  0.00    +0.000 NA
ATOM      4  C   UNL     1       6.617   5.284  15.950  0.00  0.00    +0.000 A 
ATOM      5  N   UNL     1       7.461   6.139  16.553  0.00  0.00    +0.000 NA
ATOM      6  O   UNL     1       6.991   6.188  17.867  0.00  0.00    +0.000 OA
ATOM      7  H   UNL     1       5.812   5.114  19.889  0.00  0.00    +0.000 HD
ENDROOT
BRANCH   1  12
ATOM      8  C   UNL     1       2.835   5.540  18.480  0.00  0.00    +0.000 C 
ATOM      9  C   UNL     1       2.399   6.353  19.698  0.00  0.00    +0.000 C 
ATOM     10  N   UNL     1       2.375   5.401  20.824  0.00  0.00    +0.000 NA
ATOM     11  C   UNL     1       3.396   4.376  20.500  0.00  0.00    +0.000 C 
ATOM     12  C   UNL     1       3.925   4.641  19.081  0.00  0.00    +0.000 C 
ATOM     13  H   UNL     1       1.467   4.929  20.799  0.00  0.00    +0.000 HD
BRANCH   8  15
ATOM     14  C   UNL     1       2.278   3.490  17.358  0.00  0.00    +0.000 C 
ATOM     15  O   UNL     1       1.803   4.680  17.964  0.00  0.00    +0.000 OA
ENDBRANCH   8  15
ENDBRANCH   1  12
BRANCH   4  16
ATOM     16  C   UNL     1       6.732   4.863  14.558  0.00  0.00    +0.000 A 
ATOM     17  C   UNL     1       5.890   3.864  14.050  0.00  0.00    +0.000 A 
ATOM     18  C   UNL     1       5.989   3.453  12.717  0.00  0.00    +0.000 A 
ATOM     19  C   UNL     1       6.942   4.032  11.883  0.00  0.00    +0.000 A 
ATOM     20  C   UNL     1       7.791   5.020  12.375  0.00  0.00    +0.000 A 
ATOM     21  C   UNL     1       7.690   5.432  13.706  0.00  0.00    +0.000 A 
ENDBRANCH   4  16
TORSDOF 3
ENDMDL
MODEL 4
REMARK VINA RESULT:      -6.9      1.474      1.816
REMARK  Name = 
REMARK  4 active torsions:
REMARK  status: ('A' for Active; 'I' for Inactive)
REMARK    1  A    between atoms: C_1  and  O_2
REMARK    2  A    between atoms: O_2  and  C_3
REMARK    3  A    between atoms: C_7  and  N_8
REMARK    4  A    between atoms: C_11  and  C_12
REMARK                            x       y       z     vdW  Elec       q    Type
REMARK                         _______ _______ _______ _____ _____    ______ ____
ROOT
ATOM      1  N   UNL     1       5.163   4.433  19.079  0.00  0.00    +0.000 N 
ATOM      2  C   UNL     1       5.925   4.419  17.968  0.00  0.00    +0.000 A 
ATOM      3  N   UNL     1       5.562   4.434  16.712  0.00  0.00    +0.000 NA
ATOM      4  C   UNL     1       6.769   4.437  16.046  0.00  0.00    +0.000 A 
ATOM      5  N   UNL     1       7.839   4.447  16.858  0.00  0.00    +0.000 NA
ATOM      6  O   UNL     1       7.277   4.405  18.137  0.00  0.00    +0.000 OA
ATOM      7  H   UNL     1       5.402   3.718  19.762  0.00  0.00    +0.000 HD
ENDROOT
BRANCH   1  12
ATOM      8  C   UNL     1       3.043   4.952  20.244  0.00  0.00    +0.000 C 
ATOM      9  C   UNL     1       2.752   3.542  20.755  0.00  0.00    +0.000 C 
ATOM     10  N   UNL     1       2.310   2.774  19.577  0.00  0.00    +0.000 NA
ATOM     11  C   UNL     1       2.988   3.400  18.416  0.00  0.00    +0.000 C 
ATOM     12  C   UNL     1       3.725   4.660  18.900  0.00  0.00    +0.000 C 
ATOM     13  H   UNL     1       1.308   2.952  19.462  0.00  0.00    +0.000 HD
BRANCH   8  15
ATOM     14  C   UNL     1       2.052   7.123  19.963  0.00  0.00    +0.000 C 
ATOM     15  O   UNL     1       1.857   5.719  19.968  0.00  0.00    +0.000 OA
ENDBRANCH   8  15
ENDBRANCH   1  12
BRANCH   4  16
ATOM     16  C   UNL     1       6.846   4.417  14.589  0.00  0.00    +0.000 A 
ATOM     17  C   UNL     1       7.742   5.261  13.918  0.00  0.00    +0.000 A 
ATOM     18  C   UNL     1       7.828   5.250  12.522  0.00  0.00    +0.000 A 
ATOM     19  C   UNL     1       7.008   4.400  11.784  0.00  0.00    +0.000 A 
ATOM     20  C   UNL     1       6.107   3.561  12.437  0.00  0.00    +0.000 A 
ATOM     21  C   UNL     1       6.024   3.570  13.831  0.00  0.00    +0.000 A 
ENDBRANCH   4  16
TORSDOF 3
ENDMDL
MODEL 5
REMARK VINA RESULT:      -6.9      1.451      1.571
REMARK  Name = 
REMARK  4 active torsions:
REMARK  status: ('A' for Active; 'I' for Inactive)
REMARK    1  A    between atoms: C_1  and  O_2
REMARK    2  A    between atoms: O_2  and  C_3
REMARK    3  A    between atoms: C_7  and  N_8
REMARK    4  A    between atoms: C_11  and  C_12
REMARK                            x       y       z     vdW  Elec       q    Type
REMARK                         _______ _______ _______ _____ _____    ______ ____
ROOT
ATOM      1  N   UNL     1       5.107   4.265  19.346  0.00  0.00    +0.000 N 
ATOM      2  C   UNL     1       5.850   4.367  18.228  0.00  0.00    +0.000 A 
ATOM      3  N   UNL     1       5.491   4.239  16.978  0.00  0.00    +0.000 NA
ATOM      4  C   UNL     1       6.665   4.477  16.296  0.00  0.00    +0.000 A 
ATOM      5  N   UNL     1       7.707   4.765  17.094  0.00  0.00    +0.000 NA
ATOM      6  O   UNL     1       7.172   4.663  18.380  0.00  0.00    +0.000 OA
ATOM      7  H   UNL     1       5.500   3.656  20.060  0.00  0.00    +0.000 HD
ENDROOT
BRANCH   1  12
ATOM      8  C   UNL     1       3.078   5.431  18.540  0.00  0.00    +0.000 C 
ATOM      9  C   UNL     1       2.864   6.318  19.766  0.00  0.00    +0.000 C 
ATOM     10  N   UNL     1       2.343   5.425  20.817  0.00  0.00    +0.000 NA
ATOM     11  C   UNL     1       2.909   4.087  20.519  0.00  0.00    +0.000 C 
ATOM     12  C   UNL     1       3.654   4.157  19.175  0.00  0.00    +0.000 C 
ATOM     13  H   UNL     1       1.331   5.354  20.677  0.00  0.00    +0.000 HD
BRANCH   8  15
ATOM     14  C   UNL     1       1.863   3.769  17.300  0.00  0.00    +0.000 C 
ATOM     15  O   UNL     1       1.855   5.065  17.874  0.00  0.00    +0.000 OA
ENDBRANCH   8  15
ENDBRANCH   1  12
BRANCH   4  16
ATOM     16  C   UNL     1       6.743   4.403  14.842  0.00  0.00    +0.000 A 
ATOM     17  C   UNL     1       7.670   5.188  14.143  0.00  0.00    +0.000 A 
ATOM     18  C   UNL     1       7.757   5.124  12.749  0.00  0.00    +0.000 A 
ATOM     19  C   UNL     1       6.905   4.281  12.040  0.00  0.00    +0.000 A 
ATOM     20  C   UNL     1       5.972   3.501  12.719  0.00  0.00    +0.000 A 
ATOM     21  C   UNL     1       5.889   3.562  14.112  0.00  0.00    +0.000 A 
ENDBRANCH   4  16
TORSDOF 3
ENDMDL
MODEL 6
REMARK VINA RESULT:      -6.9      2.024      2.597
REMARK  Name = 
REMARK  4 active torsions:
REMARK  status: ('A' for Active; 'I' for Inactive)
REMARK    1  A    between atoms: C_1  and  O_2
REMARK    2  A    between atoms: O_2  and  C_3
REMARK    3  A    between atoms: C_7  and  N_8
REMARK    4  A    between atoms: C_11  and  C_12
REMARK                            x       y       z     vdW  Elec       q    Type
REMARK                         _______ _______ _______ _____ _____    ______ ____
ROOT
ATOM      1  N   UNL     1       4.728   4.993  18.895  0.00  0.00    +0.000 N 
ATOM      2  C   UNL     1       5.569   4.797  17.862  0.00  0.00    +0.000 A 
ATOM      3  N   UNL     1       5.335   4.861  16.577  0.00  0.00    +0.000 NA
ATOM      4  C   UNL     1       6.571   4.598  16.028  0.00  0.00    +0.000 A 
ATOM      5  N   UNL     1       7.540   4.403  16.938  0.00  0.00    +0.000 NA
ATOM      6  O   UNL     1       6.867   4.506  18.157  0.00  0.00    +0.000 OA
ATOM      7  H   UNL     1       4.748   4.259  19.599  0.00  0.00    +0.000 HD
ENDROOT
BRANCH   1  12
ATOM      8  C   UNL     1       2.820   6.311  19.760  0.00  0.00    +0.000 C 
ATOM      9  C   UNL     1       2.189   5.205  20.605  0.00  0.00    +0.000 C 
ATOM     10  N   UNL     1       1.554   4.283  19.646  0.00  0.00    +0.000 NA
ATOM     11  C   UNL     1       2.355   4.389  18.403  0.00  0.00    +0.000 C 
ATOM     12  C   UNL     1       3.392   5.511  18.581  0.00  0.00    +0.000 C 
ATOM     13  H   UNL     1       0.628   4.665  19.431  0.00  0.00    +0.000 HD
BRANCH   8  15
ATOM     14  C   UNL     1       2.369   8.083  18.202  0.00  0.00    +0.000 C 
ATOM     15  O   UNL     1       1.863   7.243  19.225  0.00  0.00    +0.000 OA
ENDBRANCH   8  15
ENDBRANCH   1  12
BRANCH   4  16
ATOM     16  C   UNL     1       6.777   4.532  14.585  0.00  0.00    +0.000 A 
ATOM     17  C   UNL     1       6.034   3.633  13.806  0.00  0.00    +0.000 A 
ATOM     18  C   UNL     1       6.219   3.561  12.422  0.00  0.00    +0.000 A 
ATOM     19  C   UNL     1       7.161   4.382  11.806  0.00  0.00    +0.000 A 
ATOM     20  C   UNL     1       7.912   5.274  12.567  0.00  0.00    +0.000 A 
ATOM     21  C   UNL     1       7.724   5.348  13.949  0.00  0.00    +0.000 A 
ENDBRANCH   4  16
TORSDOF 3
ENDMDL
MODEL 7
REMARK VINA RESULT:      -6.7      1.408      1.994
REMARK  Name = 
REMARK  4 active torsions:
REMARK  status: ('A' for Active; 'I' for Inactive)
REMARK    1  A    between atoms: C_1  and  O_2
REMARK    2  A    between atoms: O_2  and  C_3
REMARK    3  A    between atoms: C_7  and  N_8
REMARK    4  A    between atoms: C_11  and  C_12
REMARK                            x       y       z     vdW  Elec       q    Type
REMARK                         _______ _______ _______ _____ _____    ______ ____
ROOT
ATOM      1  N   UNL     1       5.412   4.379  19.257  0.00  0.00    +0.000 N 
ATOM      2  C   UNL     1       6.099   4.409  18.100  0.00  0.00    +0.000 A 
ATOM      3  N   UNL     1       5.659   4.338  16.871  0.00  0.00    +0.000 NA
ATOM      4  C   UNL     1       6.813   4.450  16.125  0.00  0.00    +0.000 A 
ATOM      5  N   UNL     1       7.924   4.610  16.864  0.00  0.00    +0.000 NA
ATOM      6  O   UNL     1       7.452   4.553  18.178  0.00  0.00    +0.000 OA
ATOM      7  H   UNL     1       5.773   3.722  19.944  0.00  0.00    +0.000 HD
ENDROOT
BRANCH   1  12
ATOM      8  C   UNL     1       3.302   3.338  20.021  0.00  0.00    +0.000 C 
ATOM      9  C   UNL     1       3.309   2.154  19.055  0.00  0.00    +0.000 C 
ATOM     10  N   UNL     1       2.952   2.713  17.738  0.00  0.00    +0.000 NA
ATOM     11  C   UNL     1       3.434   4.114  17.756  0.00  0.00    +0.000 C 
ATOM     12  C   UNL     1       3.949   4.438  19.168  0.00  0.00    +0.000 C 
ATOM     13  H   UNL     1       1.929   2.755  17.697  0.00  0.00    +0.000 HD
BRANCH   8  15
ATOM     14  C   UNL     1       1.335   2.999  21.359  0.00  0.00    +0.000 C 
ATOM     15  O   UNL     1       1.979   3.785  20.371  0.00  0.00    +0.000 OA
ENDBRANCH   8  15
ENDBRANCH   1  12
BRANCH   4  16
ATOM     16  C   UNL     1       6.800   4.385  14.668  0.00  0.00    +0.000 A 
ATOM     17  C   UNL     1       5.918   3.518  14.007  0.00  0.00    +0.000 A 
ATOM     18  C   UNL     1       5.894   3.448  12.611  0.00  0.00    +0.000 A 
ATOM     19  C   UNL     1       6.763   4.238  11.863  0.00  0.00    +0.000 A 
ATOM     20  C   UNL     1       7.652   5.097  12.505  0.00  0.00    +0.000 A 
ATOM     21  C   UNL     1       7.672   5.170  13.900  0.00  0.00    +0.000 A 
ENDBRANCH   4  16
TORSDOF 3
ENDMDL
MODEL 8
REMARK VINA RESULT:      -6.7      4.912      8.121
REMARK  Name = 
REMARK  4 active torsions:
REMARK  status: ('A' for Active; 'I' for Inactive)
REMARK    1  A    between atoms: C_1  and  O_2
REMARK    2  A    between atoms: O_2  and  C_3
REMARK    3  A    between atoms: C_7  and  N_8
REMARK    4  A    between atoms: C_11  and  C_12
REMARK                            x       y       z     vdW  Elec       q    Type
REMARK                         _______ _______ _______ _____ _____    ______ ____
ROOT
ATOM      1  N   UNL     1       3.522   6.657  17.716  0.00  0.00    +0.000 N 
ATOM      2  C   UNL     1       2.697   7.599  18.211  0.00  0.00    +0.000 A 
ATOM      3  N   UNL     1       2.259   7.760  19.432  0.00  0.00    +0.000 NA
ATOM      4  C   UNL     1       1.485   8.896  19.332  0.00  0.00    +0.000 A 
ATOM      5  N   UNL     1       1.463   9.432  18.100  0.00  0.00    +0.000 NA
ATOM      6  O   UNL     1       2.246   8.553  17.348  0.00  0.00    +0.000 OA
ATOM      7  H   UNL     1       3.183   6.202  16.872  0.00  0.00    +0.000 HD
ENDROOT
BRANCH   1  12
ATOM      8  C   UNL     1       5.668   5.614  18.374  0.00  0.00    +0.000 C 
ATOM      9  C   UNL     1       5.661   4.488  17.341  0.00  0.00    +0.000 C 
ATOM     10  N   UNL     1       4.656   3.519  17.815  0.00  0.00    +0.000 NA
ATOM     11  C   UNL     1       3.662   4.315  18.573  0.00  0.00    +0.000 C 
ATOM     12  C   UNL     1       4.171   5.763  18.681  0.00  0.00    +0.000 C 
ATOM     13  H   UNL     1       5.124   2.910  18.493  0.00  0.00    +0.000 HD
BRANCH   8  15
ATOM     14  C   UNL     1       7.704   5.598  19.649  0.00  0.00    +0.000 C 
ATOM     15  O   UNL     1       6.327   5.262  19.604  0.00  0.00    +0.000 OA
ENDBRANCH   8  15
ENDBRANCH   1  12
BRANCH   4  16
ATOM     16  C   UNL     1       0.755   9.437  20.473  0.00  0.00    +0.000 A 
ATOM     17  C   UNL     1       0.289   8.583  21.483  0.00  0.00    +0.000 A 
ATOM     18  C   UNL     1      -0.408   9.089  22.584  0.00  0.00    +0.000 A 
ATOM     19  C   UNL     1      -0.657  10.456  22.678  0.00  0.00    +0.000 A 
ATOM     20  C   UNL     1      -0.208  11.316  21.678  0.00  0.00    +0.000 A 
ATOM     21  C   UNL     1       0.492  10.810  20.581  0.00  0.00    +0.000 A 
ENDBRANCH   4  16
TORSDOF 3
ENDMDL
MODEL 9
REMARK VINA RESULT:      -6.6      4.036      6.185
REMARK  Name = 
REMARK  4 active torsions:
REMARK  status: ('A' for Active; 'I' for Inactive)
REMARK    1  A    between atoms: C_1  and  O_2
REMARK    2  A    between atoms: O_2  and  C_3
REMARK    3  A    between atoms: C_7  and  N_8
REMARK    4  A    between atoms: C_11  and  C_12
REMARK                            x       y       z     vdW  Elec       q    Type
REMARK                         _______ _______ _______ _____ _____    ______ ____
ROOT
ATOM      1  N   UNL     1       3.721   4.217  17.622  0.00  0.00    +0.000 N 
ATOM      2  C   UNL     1       3.427   5.520  17.788  0.00  0.00    +0.000 A 
ATOM      3  N   UNL     1       2.428   6.072  18.425  0.00  0.00    +0.000 NA
ATOM      4  C   UNL     1       2.675   7.419  18.275  0.00  0.00    +0.000 A 
ATOM      5  N   UNL     1       3.799   7.692  17.591  0.00  0.00    +0.000 NA
ATOM      6  O   UNL     1       4.283   6.429  17.241  0.00  0.00    +0.000 OA
ATOM      7  H   UNL     1       3.915   3.948  16.661  0.00  0.00    +0.000 HD
ENDROOT
BRANCH   1  12
ATOM      8  C   UNL     1       3.392   3.177  19.843  0.00  0.00    +0.000 C 
ATOM      9  C   UNL     1       4.529   2.160  19.751  0.00  0.00    +0.000 C 
ATOM     10  N   UNL     1       4.059   1.119  18.819  0.00  0.00    +0.000 NA
ATOM     11  C   UNL     1       3.127   1.806  17.893  0.00  0.00    +0.000 C 
ATOM     12  C   UNL     1       2.923   3.249  18.383  0.00  0.00    +0.000 C 
ATOM     13  H   UNL     1       3.497   0.459  19.365  0.00  0.00    +0.000 HD
BRANCH   8  15
ATOM     14  C   UNL     1       1.102   3.503  20.494  0.00  0.00    +0.000 C 
ATOM     15  O   UNL     1       2.277   2.722  20.632  0.00  0.00    +0.000 OA
ENDBRANCH   8  15
ENDBRANCH   1  12
BRANCH   4  16
ATOM     16  C   UNL     1       1.775   8.434  18.810  0.00  0.00    +0.000 A 
ATOM     17  C   UNL     1       1.446   8.439  20.173  0.00  0.00    +0.000 A 
ATOM     18  C   UNL     1       0.586   9.408  20.699  0.00  0.00    +0.000 A 
ATOM     19  C   UNL     1       0.038  10.376  19.861  0.00  0.00    +0.000 A 
ATOM     20  C   UNL     1       0.349  10.379  18.503  0.00  0.00    +0.000 A 
ATOM     21  C   UNL     1       1.211   9.413  17.979  0.00  0.00    +0.000 A 
ENDBRANCH   4  16
TORSDOF 3
ENDMDL
