MODEL 1
REMARK VINA RESULT:      -9.9      0.000      0.000
REMARK  Name = 
REMARK  5 active torsions:
REMARK  status: ('A' for Active; 'I' for Inactive)
REMARK    1  A    between atoms: C_1  and  C_2
REMARK    2  A    between atoms: C_6  and  O_7
REMARK    3  A    between atoms: O_7  and  C_8
REMARK    4  A    between atoms: C_11  and  C_12
REMARK    5  A    between atoms: C_14  and  C_15
REMARK                            x       y       z     vdW  Elec       q    Type
REMARK                         _______ _______ _______ _____ _____    ______ ____
ROOT
ATOM      1  C   UNL     1       3.219   5.671  18.055  0.00  0.00    +0.000 A 
ATOM      2  N   UNL     1       4.263   5.676  17.146  0.00  0.00    +0.000 NA
ATOM      3  C   UNL     1       4.573   4.414  16.937  0.00  0.00    +0.000 A 
ATOM      4  N   UNL     1       3.783   3.584  17.696  0.00  0.00    +0.000 N 
ATOM      5  C   UNL     1       3.800   2.212  17.868  0.00  0.00    +0.000 A 
ATOM      6  C   UNL     1       2.886   1.663  18.676  0.00  0.00    +0.000 A 
ATOM      7  N   UNL     1       1.894   2.379  19.305  0.00  0.00    +0.000 NA
ATOM      8  C   UNL     1       1.847   3.686  19.152  0.00  0.00    +0.000 A 
ATOM      9  N   UNL     1       0.785   4.274  19.776  0.00  0.00    +0.000 N 
ATOM     10  C   UNL     1       2.861   4.368  18.367  0.00  0.00    +0.000 A 
ATOM     11  H   UNL     1       0.401   3.645  20.474  0.00  0.00    +0.000 HD
ATOM     12  H   UNL     1       0.976   5.180  20.178  0.00  0.00    +0.000 HD
ENDROOT
BRANCH   1  16
ATOM     13  C   UNL     1       1.270   9.294  19.204  0.00  0.00    +0.000 A 
ATOM     14  C   UNL     1       1.799   9.147  17.920  0.00  0.00    +0.000 A 
ATOM     15  C   UNL     1       2.440   7.956  17.555  0.00  0.00    +0.000 A 
ATOM     16  C   UNL     1       2.623   6.926  18.488  0.00  0.00    +0.000 A 
ATOM     17  C   UNL     1       2.245   7.177  19.806  0.00  0.00    +0.000 A 
ATOM     18  F   UNL     1       2.507   6.289  20.777  0.00  0.00    +0.000 F 
ATOM     19  C   UNL     1       1.541   8.324  20.162  0.00  0.00    +0.000 A 
BRANCH  13  20
ATOM     20  O   UNL     1       0.525  10.364  19.639  0.00  0.00    +0.000 OA
BRANCH  20  26
ATOM     21  C   UNL     1      -2.799   9.905  15.988  0.00  0.00    +0.000 C 
ATOM     22  C   UNL     1      -2.375  10.461  17.315  0.00  0.00    +0.000 A 
ATOM     23  C   UNL     1      -3.139  11.431  17.972  0.00  0.00    +0.000 A 
ATOM     24  C   UNL     1      -2.701  11.975  19.182  0.00  0.00    +0.000 A 
ATOM     25  C   UNL     1      -1.474  11.587  19.717  0.00  0.00    +0.000 A 
ATOM     26  C   UNL     1      -0.686  10.649  19.052  0.00  0.00    +0.000 A 
ATOM     27  C   UNL     1      -1.168  10.041  17.887  0.00  0.00    +0.000 A 
ENDBRANCH  20  26
ENDBRANCH  13  20
ENDBRANCH   1  16
BRANCH   3  28
ATOM     28  C   UNL     1       5.687   3.963  15.995  0.00  0.00    +0.000 C 
ATOM     29  C   UNL     1       5.539   4.423  14.515  0.00  0.00    +0.000 C 
ATOM     30  C   UNL     1       7.040   4.757  14.523  0.00  0.00    +0.000 C 
ATOM     31  C   UNL     1       6.925   4.905  16.048  0.00  0.00    +0.000 C 
ENDBRANCH   3  28
TORSDOF 4
ENDMDL
MODEL 2
REMARK VINA RESULT:      -9.5      4.156      9.303
REMARK  Name = 
REMARK  5 active torsions:
REMARK  status: ('A' for Active; 'I' for Inactive)
REMARK    1  A    between atoms: C_1  and  C_2
REMARK    2  A    between atoms: C_6  and  O_7
REMARK    3  A    between atoms: O_7  and  C_8
REMARK    4  A    between atoms: C_11  and  C_12
REMARK    5  A    between atoms: C_14  and  C_15
REMARK                            x       y       z     vdW  Elec       q    Type
REMARK                         _______ _______ _______ _____ _____    ______ ____
ROOT
ATOM      1  C   UNL     1       0.054  11.399  19.499  0.00  0.00    +0.000 A 
ATOM      2  N   UNL     1      -1.234  11.482  19.999  0.00  0.00    +0.000 NA
ATOM      3  C   UNL     1      -1.551  12.760  19.983  0.00  0.00    +0.000 A 
ATOM      4  N   UNL     1      -0.505  13.518  19.512  0.00  0.00    +0.000 N 
ATOM      5  C   UNL     1      -0.349  14.886  19.397  0.00  0.00    +0.000 A 
ATOM      6  C   UNL     1       0.796  15.352  18.883  0.00  0.00    +0.000 A 
ATOM      7  N   UNL     1       1.805  14.546  18.411  0.00  0.00    +0.000 NA
ATOM      8  C   UNL     1       1.679  13.239  18.498  0.00  0.00    +0.000 A 
ATOM      9  N   UNL     1       2.718  12.548  17.942  0.00  0.00    +0.000 N 
ATOM     10  C   UNL     1       0.508  12.656  19.131  0.00  0.00    +0.000 A 
ATOM     11  H   UNL     1       3.520  13.160  17.830  0.00  0.00    +0.000 HD
ATOM     12  H   UNL     1       2.978  11.704  18.432  0.00  0.00    +0.000 HD
ENDROOT
BRANCH   1  16
ATOM     13  C   UNL     1       2.165   7.711  19.062  0.00  0.00    +0.000 A 
ATOM     14  C   UNL     1       1.786   8.451  17.941  0.00  0.00    +0.000 A 
ATOM     15  C   UNL     1       1.090   9.657  18.095  0.00  0.00    +0.000 A 
ATOM     16  C   UNL     1       0.703  10.103  19.366  0.00  0.00    +0.000 A 
ATOM     17  C   UNL     1       0.937   9.252  20.446  0.00  0.00    +0.000 A 
ATOM     18  F   UNL     1       0.480   9.554  21.670  0.00  0.00    +0.000 F 
ATOM     19  C   UNL     1       1.693   8.090  20.313  0.00  0.00    +0.000 A 
BRANCH  13  20
ATOM     20  O   UNL     1       2.944   6.579  19.041  0.00  0.00    +0.000 OA
BRANCH  20  26
ATOM     21  C   UNL     1       1.456   2.655  21.683  0.00  0.00    +0.000 C 
ATOM     22  C   UNL     1       1.586   3.387  20.381  0.00  0.00    +0.000 A 
ATOM     23  C   UNL     1       1.250   2.776  19.169  0.00  0.00    +0.000 A 
ATOM     24  C   UNL     1       1.428   3.456  17.961  0.00  0.00    +0.000 A 
ATOM     25  C   UNL     1       1.987   4.733  17.957  0.00  0.00    +0.000 A 
ATOM     26  C   UNL     1       2.362   5.337  19.156  0.00  0.00    +0.000 A 
ATOM     27  C   UNL     1       2.101   4.690  20.369  0.00  0.00    +0.000 A 
ENDBRANCH  20  26
ENDBRANCH  13  20
ENDBRANCH   1  16
BRANCH   3  28
ATOM     28  C   UNL     1      -2.896  13.301  20.459  0.00  0.00    +0.000 C 
ATOM     29  C   UNL     1      -4.149  12.548  19.923  0.00  0.00    +0.000 C 
ATOM     30  C   UNL     1      -4.740  12.628  21.341  0.00  0.00    +0.000 C 
ATOM     31  C   UNL     1      -3.298  12.746  21.858  0.00  0.00    +0.000 C 
ENDBRANCH   3  28
TORSDOF 4
ENDMDL
MODEL 3
REMARK VINA RESULT:      -9.4      1.341      1.929
REMARK  Name = 
REMARK  5 active torsions:
REMARK  status: ('A' for Active; 'I' for Inactive)
REMARK    1  A    between atoms: C_1  and  C_2
REMARK    2  A    between atoms: C_6  and  O_7
REMARK    3  A    between atoms: O_7  and  C_8
REMARK    4  A    between atoms: C_11  and  C_12
REMARK    5  A    between atoms: C_14  and  C_15
REMARK                            x       y       z     vdW  Elec       q    Type
REMARK                         _______ _______ _______ _____ _____    ______ ____
ROOT
ATOM      1  C   UNL     1       3.081   5.460  18.335  0.00  0.00    +0.000 A 
ATOM      2  N   UNL     1       4.118   5.530  17.421  0.00  0.00    +0.000 NA
ATOM      3  C   UNL     1       4.404   4.287  17.095  0.00  0.00    +0.000 A 
ATOM      4  N   UNL     1       3.605   3.405  17.782  0.00  0.00    +0.000 N 
ATOM      5  C   UNL     1       3.599   2.024  17.828  0.00  0.00    +0.000 A 
ATOM      6  C   UNL     1       2.681   1.419  18.592  0.00  0.00    +0.000 A 
ATOM      7  N   UNL     1       1.708   2.091  19.292  0.00  0.00    +0.000 NA
ATOM      8  C   UNL     1       1.682   3.407  19.259  0.00  0.00    +0.000 A 
ATOM      9  N   UNL     1       0.635   3.954  19.943  0.00  0.00    +0.000 N 
ATOM     10  C   UNL     1       2.702   4.141  18.530  0.00  0.00    +0.000 A 
ATOM     11  H   UNL     1       0.245   3.271  20.584  0.00  0.00    +0.000 HD
ATOM     12  H   UNL     1       0.846   4.816  20.425  0.00  0.00    +0.000 HD
ENDROOT
BRANCH   1  16
ATOM     13  C   UNL     1       1.201   8.989  19.837  0.00  0.00    +0.000 A 
ATOM     14  C   UNL     1       1.658   8.932  18.519  0.00  0.00    +0.000 A 
ATOM     15  C   UNL     1       2.277   7.772  18.038  0.00  0.00    +0.000 A 
ATOM     16  C   UNL     1       2.511   6.680  18.886  0.00  0.00    +0.000 A 
ATOM     17  C   UNL     1       2.207   6.839  20.237  0.00  0.00    +0.000 A 
ATOM     18  F   UNL     1       2.522   5.887  21.129  0.00  0.00    +0.000 F 
ATOM     19  C   UNL     1       1.524   7.957  20.710  0.00  0.00    +0.000 A 
BRANCH  13  20
ATOM     20  O   UNL     1       0.482  10.024  20.386  0.00  0.00    +0.000 OA
BRANCH  20  26
ATOM     21  C   UNL     1       1.742  14.593  18.927  0.00  0.00    +0.000 C 
ATOM     22  C   UNL     1       0.823  13.408  18.885  0.00  0.00    +0.000 A 
ATOM     23  C   UNL     1      -0.401  13.464  18.212  0.00  0.00    +0.000 A 
ATOM     24  C   UNL     1      -1.268  12.368  18.228  0.00  0.00    +0.000 A 
ATOM     25  C   UNL     1      -0.935  11.228  18.957  0.00  0.00    +0.000 A 
ATOM     26  C   UNL     1       0.265  11.175  19.664  0.00  0.00    +0.000 A 
ATOM     27  C   UNL     1       1.170  12.239  19.573  0.00  0.00    +0.000 A 
ENDBRANCH  20  26
ENDBRANCH  13  20
ENDBRANCH   1  16
BRANCH   3  28
ATOM     28  C   UNL     1       5.503   3.906  16.106  0.00  0.00    +0.000 C 
ATOM     29  C   UNL     1       5.521   4.719  14.779  0.00  0.00    +0.000 C 
ATOM     30  C   UNL     1       7.051   4.806  14.914  0.00  0.00    +0.000 C 
ATOM     31  C   UNL     1       6.857   4.605  16.425  0.00  0.00    +0.000 C 
ENDBRANCH   3  28
TORSDOF 4
ENDMDL
MODEL 4
REMARK VINA RESULT:      -9.3      0.330      1.274
REMARK  Name = 
REMARK  5 active torsions:
REMARK  status: ('A' for Active; 'I' for Inactive)
REMARK    1  A    between atoms: C_1  and  C_2
REMARK    2  A    between atoms: C_6  and  O_7
REMARK    3  A    between atoms: O_7  and  C_8
REMARK    4  A    between atoms: C_11  and  C_12
REMARK    5  A    between atoms: C_14  and  C_15
REMARK                            x       y       z     vdW  Elec       q    Type
REMARK                         _______ _______ _______ _____ _____    ______ ____
ROOT
ATOM      1  C   UNL     1       3.163   5.747  18.109  0.00  0.00    +0.000 A 
ATOM      2  N   UNL     1       4.207   5.729  17.201  0.00  0.00    +0.000 NA
ATOM      3  C   UNL     1       4.501   4.461  17.005  0.00  0.00    +0.000 A 
ATOM      4  N   UNL     1       3.700   3.649  17.773  0.00  0.00    +0.000 N 
ATOM      5  C   UNL     1       3.700   2.279  17.959  0.00  0.00    +0.000 A 
ATOM      6  C   UNL     1       2.779   1.751  18.774  0.00  0.00    +0.000 A 
ATOM      7  N   UNL     1       1.797   2.486  19.395  0.00  0.00    +0.000 NA
ATOM      8  C   UNL     1       1.766   3.791  19.228  0.00  0.00    +0.000 A 
ATOM      9  N   UNL     1       0.711   4.400  19.846  0.00  0.00    +0.000 N 
ATOM     10  C   UNL     1       2.788   4.452  18.436  0.00  0.00    +0.000 A 
ATOM     11  H   UNL     1       0.320   3.784  20.550  0.00  0.00    +0.000 HD
ATOM     12  H   UNL     1       0.915   5.308  20.238  0.00  0.00    +0.000 HD
ENDROOT
BRANCH   1  16
ATOM     13  C   UNL     1       1.262   9.407  19.219  0.00  0.00    +0.000 A 
ATOM     14  C   UNL     1       1.794   9.241  17.939  0.00  0.00    +0.000 A 
ATOM     15  C   UNL     1       2.420   8.039  17.587  0.00  0.00    +0.000 A 
ATOM     16  C   UNL     1       2.584   7.014  18.530  0.00  0.00    +0.000 A 
ATOM     17  C   UNL     1       2.204   7.282  19.844  0.00  0.00    +0.000 A 
ATOM     18  F   UNL     1       2.449   6.398  20.824  0.00  0.00    +0.000 F 
ATOM     19  C   UNL     1       1.515   8.442  20.187  0.00  0.00    +0.000 A 
BRANCH  13  20
ATOM     20  O   UNL     1       0.531  10.492  19.642  0.00  0.00    +0.000 OA
BRANCH  20  26
ATOM     21  C   UNL     1      -3.953  12.603  19.782  0.00  0.00    +0.000 C 
ATOM     22  C   UNL     1      -2.929  11.741  19.106  0.00  0.00    +0.000 A 
ATOM     23  C   UNL     1      -3.246  11.001  17.963  0.00  0.00    +0.000 A 
ATOM     24  C   UNL     1      -2.293  10.163  17.377  0.00  0.00    +0.000 A 
ATOM     25  C   UNL     1      -1.035  10.025  17.961  0.00  0.00    +0.000 A 
ATOM     26  C   UNL     1      -0.720  10.729  19.122  0.00  0.00    +0.000 A 
ATOM     27  C   UNL     1      -1.645  11.634  19.655  0.00  0.00    +0.000 A 
ENDBRANCH  20  26
ENDBRANCH  13  20
ENDBRANCH   1  16
BRANCH   3  28
ATOM     28  C   UNL     1       5.608   3.986  16.068  0.00  0.00    +0.000 C 
ATOM     29  C   UNL     1       5.502   4.487  14.598  0.00  0.00    +0.000 C 
ATOM     30  C   UNL     1       7.016   4.757  14.635  0.00  0.00    +0.000 C 
ATOM     31  C   UNL     1       6.885   4.873  16.161  0.00  0.00    +0.000 C 
ENDBRANCH   3  28
TORSDOF 4
ENDMDL
MODEL 5
REMARK VINA RESULT:      -9.2      1.213      1.552
REMARK  Name = 
REMARK  5 active torsions:
REMARK  status: ('A' for Active; 'I' for Inactive)
REMARK    1  A    between atoms: C_1  and  C_2
REMARK    2  A    between atoms: C_6  and  O_7
REMARK    3  A    between atoms: O_7  and  C_8
REMARK    4  A    between atoms: C_11  and  C_12
REMARK    5  A    between atoms: C_14  and  C_15
REMARK                            x       y       z     vdW  Elec       q    Type
REMARK                         _______ _______ _______ _____ _____    ______ ____
ROOT
ATOM      1  C   UNL     1       3.218   6.034  18.973  0.00  0.00    +0.000 A 
ATOM      2  N   UNL     1       4.385   6.149  18.238  0.00  0.00    +0.000 NA
ATOM      3  C   UNL     1       4.889   4.935  18.158  0.00  0.00    +0.000 A 
ATOM      4  N   UNL     1       4.103   4.034  18.836  0.00  0.00    +0.000 N 
ATOM      5  C   UNL     1       4.272   2.686  19.092  0.00  0.00    +0.000 A 
ATOM      6  C   UNL     1       3.320   2.047  19.782  0.00  0.00    +0.000 A 
ATOM      7  N   UNL     1       2.154   2.642  20.204  0.00  0.00    +0.000 NA
ATOM      8  C   UNL     1       1.960   3.922  19.965  0.00  0.00    +0.000 A 
ATOM      9  N   UNL     1       0.743   4.380  20.380  0.00  0.00    +0.000 N 
ATOM     10  C   UNL     1       2.989   4.708  19.306  0.00  0.00    +0.000 A 
ATOM     11  H   UNL     1       0.338   3.733  21.047  0.00  0.00    +0.000 HD
ATOM     12  H   UNL     1       0.746   5.320  20.750  0.00  0.00    +0.000 HD
ENDROOT
BRANCH   1  16
ATOM     13  C   UNL     1       0.995   9.569  19.873  0.00  0.00    +0.000 A 
ATOM     14  C   UNL     1       1.081   8.527  20.798  0.00  0.00    +0.000 A 
ATOM     15  C   UNL     1       1.808   7.370  20.491  0.00  0.00    +0.000 A 
ATOM     16  C   UNL     1       2.400   7.210  19.230  0.00  0.00    +0.000 A 
ATOM     17  C   UNL     1       2.143   8.187  18.270  0.00  0.00    +0.000 A 
ATOM     18  F   UNL     1       2.568   8.037  17.007  0.00  0.00    +0.000 F 
ATOM     19  C   UNL     1       1.486   9.373  18.587  0.00  0.00    +0.000 A 
BRANCH  13  20
ATOM     20  O   UNL     1       0.409  10.790  20.103  0.00  0.00    +0.000 OA
BRANCH  20  26
ATOM     21  C   UNL     1      -3.300  10.085  16.888  0.00  0.00    +0.000 C 
ATOM     22  C   UNL     1      -2.725  10.751  18.102  0.00  0.00    +0.000 A 
ATOM     23  C   UNL     1      -3.395  11.800  18.739  0.00  0.00    +0.000 A 
ATOM     24  C   UNL     1      -2.818  12.443  19.838  0.00  0.00    +0.000 A 
ATOM     25  C   UNL     1      -1.548  12.071  20.274  0.00  0.00    +0.000 A 
ATOM     26  C   UNL     1      -0.854  11.053  19.623  0.00  0.00    +0.000 A 
ATOM     27  C   UNL     1      -1.470  10.352  18.580  0.00  0.00    +0.000 A 
ENDBRANCH  20  26
ENDBRANCH  13  20
ENDBRANCH   1  16
BRANCH   3  28
ATOM     28  C   UNL     1       6.190   4.607  17.429  0.00  0.00    +0.000 C 
ATOM     29  C   UNL     1       6.025   4.004  16.004  0.00  0.00    +0.000 C 
ATOM     30  C   UNL     1       7.161   4.931  15.537  0.00  0.00    +0.000 C 
ATOM     31  C   UNL     1       6.797   5.850  16.714  0.00  0.00    +0.000 C 
ENDBRANCH   3  28
TORSDOF 4
ENDMDL
MODEL 6
REMARK VINA RESULT:      -9.1      1.266      1.753
REMARK  Name = 
REMARK  5 active torsions:
REMARK  status: ('A' for Active; 'I' for Inactive)
REMARK    1  A    between atoms: C_1  and  C_2
REMARK    2  A    between atoms: C_6  and  O_7
REMARK    3  A    between atoms: O_7  and  C_8
REMARK    4  A    between atoms: C_11  and  C_12
REMARK    5  A    between atoms: C_14  and  C_15
REMARK                            x       y       z     vdW  Elec       q    Type
REMARK                         _______ _______ _______ _____ _____    ______ ____
ROOT
ATOM      1  C   UNL     1       3.020   5.465  18.447  0.00  0.00    +0.000 A 
ATOM      2  N   UNL     1       4.052   5.569  17.530  0.00  0.00    +0.000 NA
ATOM      3  C   UNL     1       4.387   4.336  17.214  0.00  0.00    +0.000 A 
ATOM      4  N   UNL     1       3.625   3.428  17.910  0.00  0.00    +0.000 N 
ATOM      5  C   UNL     1       3.674   2.048  17.968  0.00  0.00    +0.000 A 
ATOM      6  C   UNL     1       2.783   1.414  18.739  0.00  0.00    +0.000 A 
ATOM      7  N   UNL     1       1.785   2.052  19.436  0.00  0.00    +0.000 NA
ATOM      8  C   UNL     1       1.707   3.366  19.392  0.00  0.00    +0.000 A 
ATOM      9  N   UNL     1       0.641   3.876  20.075  0.00  0.00    +0.000 N 
ATOM     10  C   UNL     1       2.695   4.134  18.654  0.00  0.00    +0.000 A 
ATOM     11  H   UNL     1       0.280   3.184  20.723  0.00  0.00    +0.000 HD
ATOM     12  H   UNL     1       0.818   4.750  20.548  0.00  0.00    +0.000 HD
ENDROOT
BRANCH   1  16
ATOM     13  C   UNL     1       1.409   9.022  20.178  0.00  0.00    +0.000 A 
ATOM     14  C   UNL     1       1.409   7.821  20.890  0.00  0.00    +0.000 A 
ATOM     15  C   UNL     1       1.935   6.659  20.311  0.00  0.00    +0.000 A 
ATOM     16  C   UNL     1       2.404   6.667  18.990  0.00  0.00    +0.000 A 
ATOM     17  C   UNL     1       2.223   7.834  18.249  0.00  0.00    +0.000 A 
ATOM     18  F   UNL     1       2.528   7.873  16.943  0.00  0.00    +0.000 F 
ATOM     19  C   UNL     1       1.771   9.013  18.836  0.00  0.00    +0.000 A 
BRANCH  13  20
ATOM     20  O   UNL     1       1.025  10.243  20.679  0.00  0.00    +0.000 OA
BRANCH  20  26
ATOM     21  C   UNL     1      -2.833  11.516  17.836  0.00  0.00    +0.000 C 
ATOM     22  C   UNL     1      -1.526  11.840  18.496  0.00  0.00    +0.000 A 
ATOM     23  C   UNL     1      -0.849  13.032  18.218  0.00  0.00    +0.000 A 
ATOM     24  C   UNL     1       0.393  13.292  18.802  0.00  0.00    +0.000 A 
ATOM     25  C   UNL     1       0.986  12.340  19.630  0.00  0.00    +0.000 A 
ATOM     26  C   UNL     1       0.339  11.132  19.884  0.00  0.00    +0.000 A 
ATOM     27  C   UNL     1      -0.944  10.912  19.369  0.00  0.00    +0.000 A 
ENDBRANCH  20  26
ENDBRANCH  13  20
ENDBRANCH   1  16
BRANCH   3  28
ATOM     28  C   UNL     1       5.497   3.990  16.224  0.00  0.00    +0.000 C 
ATOM     29  C   UNL     1       5.552   4.872  14.943  0.00  0.00    +0.000 C 
ATOM     30  C   UNL     1       7.080   4.928  15.109  0.00  0.00    +0.000 C 
ATOM     31  C   UNL     1       6.856   4.650  16.603  0.00  0.00    +0.000 C 
ENDBRANCH   3  28
TORSDOF 4
ENDMDL
MODEL 7
REMARK VINA RESULT:      -8.9      1.803      2.484
REMARK  Name = 
REMARK  5 active torsions:
REMARK  status: ('A' for Active; 'I' for Inactive)
REMARK    1  A    between atoms: C_1  and  C_2
REMARK    2  A    between atoms: C_6  and  O_7
REMARK    3  A    between atoms: O_7  and  C_8
REMARK    4  A    between atoms: C_11  and  C_12
REMARK    5  A    between atoms: C_14  and  C_15
REMARK                            x       y       z     vdW  Elec       q    Type
REMARK                         _______ _______ _______ _____ _____    ______ ____
ROOT
ATOM      1  C   UNL     1       3.198   5.756  18.099  0.00  0.00    +0.000 A 
ATOM      2  N   UNL     1       4.255   5.786  17.207  0.00  0.00    +0.000 NA
ATOM      3  C   UNL     1       4.609   4.532  17.016  0.00  0.00    +0.000 A 
ATOM      4  N   UNL     1       3.833   3.685  17.771  0.00  0.00    +0.000 N 
ATOM      5  C   UNL     1       3.891   2.316  17.956  0.00  0.00    +0.000 A 
ATOM      6  C   UNL     1       2.982   1.746  18.756  0.00  0.00    +0.000 A 
ATOM      7  N   UNL     1       1.958   2.436  19.362  0.00  0.00    +0.000 NA
ATOM      8  C   UNL     1       1.872   3.739  19.194  0.00  0.00    +0.000 A 
ATOM      9  N   UNL     1       0.782   4.299  19.796  0.00  0.00    +0.000 N 
ATOM     10  C   UNL     1       2.876   4.446  18.419  0.00  0.00    +0.000 A 
ATOM     11  H   UNL     1       0.407   3.665  20.494  0.00  0.00    +0.000 HD
ATOM     12  H   UNL     1       0.938   5.215  20.192  0.00  0.00    +0.000 HD
ENDROOT
BRANCH   1  16
ATOM     13  C   UNL     1       1.111   9.317  19.197  0.00  0.00    +0.000 A 
ATOM     14  C   UNL     1       1.580   9.140  17.894  0.00  0.00    +0.000 A 
ATOM     15  C   UNL     1       2.267   7.971  17.546  0.00  0.00    +0.000 A 
ATOM     16  C   UNL     1       2.556   6.996  18.511  0.00  0.00    +0.000 A 
ATOM     17  C   UNL     1       2.233   7.286  19.836  0.00  0.00    +0.000 A 
ATOM     18  F   UNL     1       2.595   6.458  20.828  0.00  0.00    +0.000 F 
ATOM     19  C   UNL     1       1.485   8.409  20.180  0.00  0.00    +0.000 A 
BRANCH  13  20
ATOM     20  O   UNL     1       0.331  10.365  19.626  0.00  0.00    +0.000 OA
BRANCH  20  26
ATOM     21  C   UNL     1       3.259  14.108  18.212  0.00  0.00    +0.000 C 
ATOM     22  C   UNL     1       2.279  13.498  19.170  0.00  0.00    +0.000 A 
ATOM     23  C   UNL     1       1.980  14.112  20.390  0.00  0.00    +0.000 A 
ATOM     24  C   UNL     1       1.105  13.501  21.293  0.00  0.00    +0.000 A 
ATOM     25  C   UNL     1       0.562  12.251  20.999  0.00  0.00    +0.000 A 
ATOM     26  C   UNL     1       0.884  11.612  19.803  0.00  0.00    +0.000 A 
ATOM     27  C   UNL     1       1.689  12.265  18.863  0.00  0.00    +0.000 A 
ENDBRANCH  20  26
ENDBRANCH  13  20
ENDBRANCH   1  16
BRANCH   3  28
ATOM     28  C   UNL     1       5.751   4.108  16.096  0.00  0.00    +0.000 C 
ATOM     29  C   UNL     1       5.506   4.334  14.576  0.00  0.00    +0.000 C 
ATOM     30  C   UNL     1       6.946   4.864  14.475  0.00  0.00    +0.000 C 
ATOM     31  C   UNL     1       6.849   5.205  15.969  0.00  0.00    +0.000 C 
ENDBRANCH   3  28
TORSDOF 4
ENDMDL
MODEL 8
REMARK VINA RESULT:      -8.9      1.306      2.055
REMARK  Name = 
REMARK  5 active torsions:
REMARK  status: ('A' for Active; 'I' for Inactive)
REMARK    1  A    between atoms: C_1  and  C_2
REMARK    2  A    between atoms: C_6  and  O_7
REMARK    3  A    between atoms: O_7  and  C_8
REMARK    4  A    between atoms: C_11  and  C_12
REMARK    5  A    between atoms: C_14  and  C_15
REMARK                            x       y       z     vdW  Elec       q    Type
REMARK                         _______ _______ _______ _____ _____    ______ ____
ROOT
ATOM      1  C   UNL     1       3.369   6.209  18.862  0.00  0.00    +0.000 A 
ATOM      2  N   UNL     1       4.500   6.283  18.068  0.00  0.00    +0.000 NA
ATOM      3  C   UNL     1       5.051   5.088  18.102  0.00  0.00    +0.000 A 
ATOM      4  N   UNL     1       4.332   4.241  18.910  0.00  0.00    +0.000 N 
ATOM      5  C   UNL     1       4.568   2.938  19.309  0.00  0.00    +0.000 A 
ATOM      6  C   UNL     1       3.672   2.347  20.107  0.00  0.00    +0.000 A 
ATOM      7  N   UNL     1       2.500   2.941  20.511  0.00  0.00    +0.000 NA
ATOM      8  C   UNL     1       2.242   4.177  20.139  0.00  0.00    +0.000 A 
ATOM      9  N   UNL     1       1.024   4.634  20.553  0.00  0.00    +0.000 N 
ATOM     10  C   UNL     1       3.210   4.921  19.351  0.00  0.00    +0.000 A 
ATOM     11  H   UNL     1       0.673   4.052  21.306  0.00  0.00    +0.000 HD
ATOM     12  H   UNL     1       1.002   5.609  20.815  0.00  0.00    +0.000 HD
ENDROOT
BRANCH   1  16
ATOM     13  C   UNL     1       1.027   9.727  19.477  0.00  0.00    +0.000 A 
ATOM     14  C   UNL     1       1.103   8.742  20.463  0.00  0.00    +0.000 A 
ATOM     15  C   UNL     1       1.870   7.590  20.250  0.00  0.00    +0.000 A 
ATOM     16  C   UNL     1       2.513   7.375  19.022  0.00  0.00    +0.000 A 
ATOM     17  C   UNL     1       2.268   8.289  17.999  0.00  0.00    +0.000 A 
ATOM     18  F   UNL     1       2.744   8.080  16.762  0.00  0.00    +0.000 F 
ATOM     19  C   UNL     1       1.570   9.473  18.224  0.00  0.00    +0.000 A 
BRANCH  13  20
ATOM     20  O   UNL     1       0.402  10.944  19.616  0.00  0.00    +0.000 OA
BRANCH  20  26
ATOM     21  C   UNL     1      -4.162  12.837  20.034  0.00  0.00    +0.000 C 
ATOM     22  C   UNL     1      -3.145  12.014  19.301  0.00  0.00    +0.000 A 
ATOM     23  C   UNL     1      -3.501  11.239  18.193  0.00  0.00    +0.000 A 
ATOM     24  C   UNL     1      -2.551  10.438  17.556  0.00  0.00    +0.000 A 
ATOM     25  C   UNL     1      -1.250  10.372  18.053  0.00  0.00    +0.000 A 
ATOM     26  C   UNL     1      -0.893  11.110  19.179  0.00  0.00    +0.000 A 
ATOM     27  C   UNL     1      -1.822  11.979  19.762  0.00  0.00    +0.000 A 
ENDBRANCH  20  26
ENDBRANCH  13  20
ENDBRANCH   1  16
BRANCH   3  28
ATOM     28  C   UNL     1       6.335   4.729  17.358  0.00  0.00    +0.000 C 
ATOM     29  C   UNL     1       6.139   3.969  16.014  0.00  0.00    +0.000 C 
ATOM     30  C   UNL     1       7.219   4.879  15.402  0.00  0.00    +0.000 C 
ATOM     31  C   UNL     1       6.865   5.907  16.488  0.00  0.00    +0.000 C 
ENDBRANCH   3  28
TORSDOF 4
ENDMDL
MODEL 9
REMARK VINA RESULT:      -8.9      1.635      2.338
REMARK  Name = 
REMARK  5 active torsions:
REMARK  status: ('A' for Active; 'I' for Inactive)
REMARK    1  A    between atoms: C_1  and  C_2
REMARK    2  A    between atoms: C_6  and  O_7
REMARK    3  A    between atoms: O_7  and  C_8
REMARK    4  A    between atoms: C_11  and  C_12
REMARK    5  A    between atoms: C_14  and  C_15
REMARK                            x       y       z     vdW  Elec       q    Type
REMARK                         _______ _______ _______ _____ _____    ______ ____
ROOT
ATOM      1  C   UNL     1       3.110   5.689  18.808  0.00  0.00    +0.000 A 
ATOM      2  N   UNL     1       4.270   5.873  18.076  0.00  0.00    +0.000 NA
ATOM      3  C   UNL     1       4.692   4.669  17.751  0.00  0.00    +0.000 A 
ATOM      4  N   UNL     1       3.860   3.704  18.264  0.00  0.00    +0.000 N 
ATOM      5  C   UNL     1       3.946   2.324  18.252  0.00  0.00    +0.000 A 
ATOM      6  C   UNL     1       2.965   1.623  18.833  0.00  0.00    +0.000 A 
ATOM      7  N   UNL     1       1.847   2.194  19.395  0.00  0.00    +0.000 NA
ATOM      8  C   UNL     1       1.734   3.506  19.412  0.00  0.00    +0.000 A 
ATOM      9  N   UNL     1       0.556   3.949  19.941  0.00  0.00    +0.000 N 
ATOM     10  C   UNL     1       2.801   4.340  18.887  0.00  0.00    +0.000 A 
ATOM     11  H   UNL     1       0.120   3.210  20.483  0.00  0.00    +0.000 HD
ATOM     12  H   UNL     1       0.626   4.797  20.485  0.00  0.00    +0.000 HD
ENDROOT
BRANCH   1  16
ATOM     13  C   UNL     1       1.143   9.118  20.426  0.00  0.00    +0.000 A 
ATOM     14  C   UNL     1       1.221   7.932  21.157  0.00  0.00    +0.000 A 
ATOM     15  C   UNL     1       1.864   6.812  20.616  0.00  0.00    +0.000 A 
ATOM     16  C   UNL     1       2.375   6.841  19.311  0.00  0.00    +0.000 A 
ATOM     17  C   UNL     1       2.121   7.978  18.545  0.00  0.00    +0.000 A 
ATOM     18  F   UNL     1       2.467   8.026  17.250  0.00  0.00    +0.000 F 
ATOM     19  C   UNL     1       1.550   9.122  19.097  0.00  0.00    +0.000 A 
BRANCH  13  20
ATOM     20  O   UNL     1       0.640  10.309  20.894  0.00  0.00    +0.000 OA
BRANCH  20  26
ATOM     21  C   UNL     1       1.834  14.585  18.684  0.00  0.00    +0.000 C 
ATOM     22  C   UNL     1       0.905  13.423  18.881  0.00  0.00    +0.000 A 
ATOM     23  C   UNL     1      -0.361  13.399  18.287  0.00  0.00    +0.000 A 
ATOM     24  C   UNL     1      -1.232  12.333  18.524  0.00  0.00    +0.000 A 
ATOM     25  C   UNL     1      -0.860  11.309  19.394  0.00  0.00    +0.000 A 
ATOM     26  C   UNL     1       0.384  11.342  20.022  0.00  0.00    +0.000 A 
ATOM     27  C   UNL     1       1.289  12.365  19.714  0.00  0.00    +0.000 A 
ENDBRANCH  20  26
ENDBRANCH  13  20
ENDBRANCH   1  16
BRANCH   3  28
ATOM     28  C   UNL     1       5.957   4.410  16.935  0.00  0.00    +0.000 C 
ATOM     29  C   UNL     1       5.725   3.988  15.455  0.00  0.00    +0.000 C 
ATOM     30  C   UNL     1       6.862   4.945  15.058  0.00  0.00    +0.000 C 
ATOM     31  C   UNL     1       6.564   5.720  16.351  0.00  0.00    +0.000 C 
ENDBRANCH   3  28
TORSDOF 4
ENDMDL
