MODEL 1
REMARK VINA RESULT:      -6.5      0.000      0.000
REMARK  Name = 
REMARK  13 active torsions:
REMARK  status: ('A' for Active; 'I' for Inactive)
REMARK    1  A    between atoms: C_1  and  C_2
REMARK    2  A    between atoms: C_2  and  C_3
REMARK    3  A    between atoms: C_3  and  C_4
REMARK    4  A    between atoms: C_4  and  C_5
REMARK    5  A    between atoms: C_5  and  C_6
REMARK    6  A    between atoms: C_6  and  C_7
REMARK    7  A    between atoms: C_8  and  O_9
REMARK    8  A    between atoms: C_11  and  C_12
REMARK    9  A    between atoms: C_12  and  C_13
REMARK   10  A    between atoms: C_13  and  C_14
REMARK   11  A    between atoms: C_14  and  C_15
REMARK   12  A    between atoms: C_15  and  C_16
REMARK   13  A    between atoms: C_18  and  O_19
REMARK                            x       y       z     vdW  Elec       q    Type
REMARK                         _______ _______ _______ _____ _____    ______ ____
ROOT
ATOM      1  C   UNL     1       4.812   6.046  17.871  0.00  0.00    +0.000 A 
ATOM      2  C   UNL     1       5.110   4.932  18.669  0.00  0.00    +0.000 A 
ATOM      3  C   UNL     1       4.238   4.498  19.669  0.00  0.00    +0.000 A 
ATOM      4  C   UNL     1       3.057   5.194  19.938  0.00  0.00    +0.000 A 
ATOM      5  C   UNL     1       2.744   6.312  19.157  0.00  0.00    +0.000 A 
ATOM      6  C   UNL     1       3.612   6.723  18.141  0.00  0.00    +0.000 A 
ENDROOT
BRANCH   2   7
ATOM      7  O   UNL     1       6.257   4.200  18.545  0.00  0.00    +0.000 OA
ATOM      8  H   UNL     1       6.373   3.952  17.616  0.00  0.00    +0.000 HD
ENDBRANCH   2   7
BRANCH   6   9
ATOM      9  O   UNL     1       3.279   7.817  17.385  0.00  0.00    +0.000 OA
ATOM     10  H   UNL     1       2.312   7.887  17.342  0.00  0.00    +0.000 HD
ENDBRANCH   6   9
BRANCH   1  11
ATOM     11  C   UNL     1       5.711   6.507  16.745  0.00  0.00    +0.000 C 
BRANCH  11  12
ATOM     12  C   UNL     1       5.411   5.865  15.383  0.00  0.00    +0.000 C 
BRANCH  12  13
ATOM     13  C   UNL     1       6.572   5.027  14.848  0.00  0.00    +0.000 C 
BRANCH  13  14
ATOM     14  C   UNL     1       6.061   3.736  14.211  0.00  0.00    +0.000 C 
BRANCH  14  16
ATOM     15  C   UNL     1       5.131   3.191  11.942  0.00  0.00    +0.000 C 
ATOM     16  C   UNL     1       6.327   3.728  12.708  0.00  0.00    +0.000 C 
ENDBRANCH  14  16
ENDBRANCH  13  14
ENDBRANCH  12  13
ENDBRANCH  11  12
ENDBRANCH   1  11
BRANCH   4  17
ATOM     17  C   UNL     1       2.149   4.767  21.064  0.00  0.00    +0.000 C 
BRANCH  17  18
ATOM     18  C   UNL     1       1.607   3.340  20.909  0.00  0.00    +0.000 C 
BRANCH  18  19
ATOM     19  C   UNL     1       0.802   3.135  19.621  0.00  0.00    +0.000 C 
BRANCH  19  20
ATOM     20  C   UNL     1       1.388   1.993  18.789  0.00  0.00    +0.000 C 
ATOM     21  C   UNL     1       2.238   2.513  17.641  0.00  0.00    +0.000 C 
ENDBRANCH  19  20
ENDBRANCH  18  19
ENDBRANCH  17  18
ENDBRANCH   4  17
TORSDOF 11
ENDMDL
MODEL 2
REMARK VINA RESULT:      -6.4      2.871      4.938
REMARK  Name = 
REMARK  13 active torsions:
REMARK  status: ('A' for Active; 'I' for Inactive)
REMARK    1  A    between atoms: C_1  and  C_2
REMARK    2  A    between atoms: C_2  and  C_3
REMARK    3  A    between atoms: C_3  and  C_4
REMARK    4  A    between atoms: C_4  and  C_5
REMARK    5  A    between atoms: C_5  and  C_6
REMARK    6  A    between atoms: C_6  and  C_7
REMARK    7  A    between atoms: C_8  and  O_9
REMARK    8  A    between atoms: C_11  and  C_12
REMARK    9  A    between atoms: C_12  and  C_13
REMARK   10  A    between atoms: C_13  and  C_14
REMARK   11  A    between atoms: C_14  and  C_15
REMARK   12  A    between atoms: C_15  and  C_16
REMARK   13  A    between atoms: C_18  and  O_19
REMARK                            x       y       z     vdW  Elec       q    Type
REMARK                         _______ _______ _______ _____ _____    ______ ____
ROOT
ATOM      1  C   UNL     1       6.167   6.130  17.830  0.00  0.00    +0.000 A 
ATOM      2  C   UNL     1       5.123   6.445  16.948  0.00  0.00    +0.000 A 
ATOM      3  C   UNL     1       3.790   6.193  17.277  0.00  0.00    +0.000 A 
ATOM      4  C   UNL     1       3.457   5.574  18.485  0.00  0.00    +0.000 A 
ATOM      5  C   UNL     1       4.485   5.248  19.377  0.00  0.00    +0.000 A 
ATOM      6  C   UNL     1       5.815   5.527  19.048  0.00  0.00    +0.000 A 
ENDROOT
BRANCH   2   7
ATOM      7  O   UNL     1       5.319   7.000  15.714  0.00  0.00    +0.000 OA
ATOM      8  H   UNL     1       4.458   7.238  15.337  0.00  0.00    +0.000 HD
ENDBRANCH   2   7
BRANCH   6   9
ATOM      9  O   UNL     1       6.803   5.204  19.942  0.00  0.00    +0.000 OA
ATOM     10  H   UNL     1       6.538   4.405  20.427  0.00  0.00    +0.000 HD
ENDBRANCH   6   9
BRANCH   1  11
ATOM     11  C   UNL     1       7.616   6.441  17.524  0.00  0.00    +0.000 C 
BRANCH  11  12
ATOM     12  C   UNL     1       8.195   7.629  18.305  0.00  0.00    +0.000 C 
BRANCH  12  13
ATOM     13  C   UNL     1       7.791   8.982  17.721  0.00  0.00    +0.000 C 
BRANCH  13  14
ATOM     14  C   UNL     1       8.860  10.037  18.003  0.00  0.00    +0.000 C 
BRANCH  14  16
ATOM     15  C   UNL     1       9.897  11.366  19.865  0.00  0.00    +0.000 C 
ATOM     16  C   UNL     1       9.222  10.060  19.485  0.00  0.00    +0.000 C 
ENDBRANCH  14  16
ENDBRANCH  13  14
ENDBRANCH  12  13
ENDBRANCH  11  12
ENDBRANCH   1  11
BRANCH   4  17
ATOM     17  C   UNL     1       2.024   5.240  18.810  0.00  0.00    +0.000 C 
BRANCH  17  18
ATOM     18  C   UNL     1       1.512   3.976  18.107  0.00  0.00    +0.000 C 
BRANCH  18  19
ATOM     19  C   UNL     1       1.452   2.753  19.028  0.00  0.00    +0.000 C 
BRANCH  19  20
ATOM     20  C   UNL     1       1.047   3.159  20.445  0.00  0.00    +0.000 C 
ATOM     21  C   UNL     1       2.068   2.703  21.475  0.00  0.00    +0.000 C 
ENDBRANCH  19  20
ENDBRANCH  18  19
ENDBRANCH  17  18
ENDBRANCH   4  17
TORSDOF 11
ENDMDL
MODEL 3
REMARK VINA RESULT:      -6.4      1.669      6.083
REMARK  Name = 
REMARK  13 active torsions:
REMARK  status: ('A' for Active; 'I' for Inactive)
REMARK    1  A    between atoms: C_1  and  C_2
REMARK    2  A    between atoms: C_2  and  C_3
REMARK    3  A    between atoms: C_3  and  C_4
REMARK    4  A    between atoms: C_4  and  C_5
REMARK    5  A    between atoms: C_5  and  C_6
REMARK    6  A    between atoms: C_6  and  C_7
REMARK    7  A    between atoms: C_8  and  O_9
REMARK    8  A    between atoms: C_11  and  C_12
REMARK    9  A    between atoms: C_12  and  C_13
REMARK   10  A    between atoms: C_13  and  C_14
REMARK   11  A    between atoms: C_14  and  C_15
REMARK   12  A    between atoms: C_15  and  C_16
REMARK   13  A    between atoms: C_18  and  O_19
REMARK                            x       y       z     vdW  Elec       q    Type
REMARK                         _______ _______ _______ _____ _____    ______ ____
ROOT
ATOM      1  C   UNL     1       3.392   3.021  18.480  0.00  0.00    +0.000 A 
ATOM      2  C   UNL     1       4.640   3.240  19.080  0.00  0.00    +0.000 A 
ATOM      3  C   UNL     1       5.433   4.335  18.734  0.00  0.00    +0.000 A 
ATOM      4  C   UNL     1       5.024   5.228  17.740  0.00  0.00    +0.000 A 
ATOM      5  C   UNL     1       3.783   5.024  17.125  0.00  0.00    +0.000 A 
ATOM      6  C   UNL     1       2.986   3.937  17.496  0.00  0.00    +0.000 A 
ENDROOT
BRANCH   2   7
ATOM      7  O   UNL     1       5.180   2.411  20.024  0.00  0.00    +0.000 OA
ATOM      8  H   UNL     1       4.765   2.597  20.879  0.00  0.00    +0.000 HD
ENDBRANCH   2   7
BRANCH   6   9
ATOM      9  O   UNL     1       1.772   3.764  16.884  0.00  0.00    +0.000 OA
ATOM     10  H   UNL     1       1.920   3.533  15.953  0.00  0.00    +0.000 HD
ENDBRANCH   6   9
BRANCH   1  11
ATOM     11  C   UNL     1       2.488   1.873  18.873  0.00  0.00    +0.000 C 
BRANCH  11  12
ATOM     12  C   UNL     1       1.355   2.252  19.837  0.00  0.00    +0.000 C 
BRANCH  12  13
ATOM     13  C   UNL     1       1.830   2.422  21.280  0.00  0.00    +0.000 C 
BRANCH  13  14
ATOM     14  C   UNL     1       2.064   3.897  21.604  0.00  0.00    +0.000 C 
BRANCH  14  16
ATOM     15  C   UNL     1       2.057   6.029  20.276  0.00  0.00    +0.000 C 
ATOM     16  C   UNL     1       1.264   4.794  20.664  0.00  0.00    +0.000 C 
ENDBRANCH  14  16
ENDBRANCH  13  14
ENDBRANCH  12  13
ENDBRANCH  11  12
ENDBRANCH   1  11
BRANCH   4  17
ATOM     17  C   UNL     1       5.911   6.371  17.318  0.00  0.00    +0.000 C 
BRANCH  17  18
ATOM     18  C   UNL     1       7.255   5.923  16.730  0.00  0.00    +0.000 C 
BRANCH  18  19
ATOM     19  C   UNL     1       7.150   4.648  15.885  0.00  0.00    +0.000 C 
BRANCH  19  20
ATOM     20  C   UNL     1       6.828   4.985  14.429  0.00  0.00    +0.000 C 
ATOM     21  C   UNL     1       6.038   3.874  13.756  0.00  0.00    +0.000 C 
ENDBRANCH  19  20
ENDBRANCH  18  19
ENDBRANCH  17  18
ENDBRANCH   4  17
TORSDOF 11
ENDMDL
MODEL 4
REMARK VINA RESULT:      -6.3      2.142      6.017
REMARK  Name = 
REMARK  13 active torsions:
REMARK  status: ('A' for Active; 'I' for Inactive)
REMARK    1  A    between atoms: C_1  and  C_2
REMARK    2  A    between atoms: C_2  and  C_3
REMARK    3  A    between atoms: C_3  and  C_4
REMARK    4  A    between atoms: C_4  and  C_5
REMARK    5  A    between atoms: C_5  and  C_6
REMARK    6  A    between atoms: C_6  and  C_7
REMARK    7  A    between atoms: C_8  and  O_9
REMARK    8  A    between atoms: C_11  and  C_12
REMARK    9  A    between atoms: C_12  and  C_13
REMARK   10  A    between atoms: C_13  and  C_14
REMARK   11  A    between atoms: C_14  and  C_15
REMARK   12  A    between atoms: C_15  and  C_16
REMARK   13  A    between atoms: C_18  and  O_19
REMARK                            x       y       z     vdW  Elec       q    Type
REMARK                         _______ _______ _______ _____ _____    ______ ____
ROOT
ATOM      1  C   UNL     1       2.819   2.778  19.003  0.00  0.00    +0.000 A 
ATOM      2  C   UNL     1       4.219   2.802  19.069  0.00  0.00    +0.000 A 
ATOM      3  C   UNL     1       4.989   3.330  18.031  0.00  0.00    +0.000 A 
ATOM      4  C   UNL     1       4.384   3.811  16.866  0.00  0.00    +0.000 A 
ATOM      5  C   UNL     1       2.987   3.791  16.779  0.00  0.00    +0.000 A 
ATOM      6  C   UNL     1       2.225   3.283  17.835  0.00  0.00    +0.000 A 
ENDROOT
BRANCH   2   7
ATOM      7  O   UNL     1       4.934   2.312  20.126  0.00  0.00    +0.000 OA
ATOM      8  H   UNL     1       5.818   2.061  19.818  0.00  0.00    +0.000 HD
ENDBRANCH   2   7
BRANCH   6   9
ATOM      9  O   UNL     1       0.858   3.281  17.727  0.00  0.00    +0.000 OA
ATOM     10  H   UNL     1       0.587   4.020  17.159  0.00  0.00    +0.000 HD
ENDBRANCH   6   9
BRANCH   1  11
ATOM     11  C   UNL     1       1.957   2.263  20.135  0.00  0.00    +0.000 C 
BRANCH  11  12
ATOM     12  C   UNL     1       1.294   3.356  20.984  0.00  0.00    +0.000 C 
BRANCH  12  13
ATOM     13  C   UNL     1       2.222   4.536  21.271  0.00  0.00    +0.000 C 
BRANCH  13  14
ATOM     14  C   UNL     1       1.804   5.765  20.467  0.00  0.00    +0.000 C 
BRANCH  14  16
ATOM     15  C   UNL     1       2.521   7.015  18.409  0.00  0.00    +0.000 C 
ATOM     16  C   UNL     1       2.985   6.329  19.681  0.00  0.00    +0.000 C 
ENDBRANCH  14  16
ENDBRANCH  13  14
ENDBRANCH  12  13
ENDBRANCH  11  12
ENDBRANCH   1  11
BRANCH   4  17
ATOM     17  C   UNL     1       5.218   4.317  15.717  0.00  0.00    +0.000 C 
BRANCH  17  18
ATOM     18  C   UNL     1       5.631   5.788  15.857  0.00  0.00    +0.000 C 
BRANCH  18  19
ATOM     19  C   UNL     1       7.034   5.969  16.446  0.00  0.00    +0.000 C 
BRANCH  19  20
ATOM     20  C   UNL     1       6.964   6.621  17.827  0.00  0.00    +0.000 C 
ATOM     21  C   UNL     1       7.719   5.813  18.869  0.00  0.00    +0.000 C 
ENDBRANCH  19  20
ENDBRANCH  18  19
ENDBRANCH  17  18
ENDBRANCH   4  17
TORSDOF 11
ENDMDL
MODEL 5
REMARK VINA RESULT:      -6.3      1.457      2.212
REMARK  Name = 
REMARK  13 active torsions:
REMARK  status: ('A' for Active; 'I' for Inactive)
REMARK    1  A    between atoms: C_1  and  C_2
REMARK    2  A    between atoms: C_2  and  C_3
REMARK    3  A    between atoms: C_3  and  C_4
REMARK    4  A    between atoms: C_4  and  C_5
REMARK    5  A    between atoms: C_5  and  C_6
REMARK    6  A    between atoms: C_6  and  C_7
REMARK    7  A    between atoms: C_8  and  O_9
REMARK    8  A    between atoms: C_11  and  C_12
REMARK    9  A    between atoms: C_12  and  C_13
REMARK   10  A    between atoms: C_13  and  C_14
REMARK   11  A    between atoms: C_14  and  C_15
REMARK   12  A    between atoms: C_15  and  C_16
REMARK   13  A    between atoms: C_18  and  O_19
REMARK                            x       y       z     vdW  Elec       q    Type
REMARK                         _______ _______ _______ _____ _____    ______ ____
ROOT
ATOM      1  C   UNL     1       5.255   4.802  16.585  0.00  0.00    +0.000 A 
ATOM      2  C   UNL     1       4.493   3.922  17.367  0.00  0.00    +0.000 A 
ATOM      3  C   UNL     1       3.508   4.388  18.239  0.00  0.00    +0.000 A 
ATOM      4  C   UNL     1       3.281   5.759  18.394  0.00  0.00    +0.000 A 
ATOM      5  C   UNL     1       4.035   6.654  17.626  0.00  0.00    +0.000 A 
ATOM      6  C   UNL     1       5.003   6.175  16.738  0.00  0.00    +0.000 A 
ENDROOT
BRANCH   2   7
ATOM      7  O   UNL     1       4.655   2.565  17.351  0.00  0.00    +0.000 OA
ATOM      8  H   UNL     1       4.299   2.216  16.521  0.00  0.00    +0.000 HD
ENDBRANCH   2   7
BRANCH   6   9
ATOM      9  O   UNL     1       5.722   7.072  15.992  0.00  0.00    +0.000 OA
ATOM     10  H   UNL     1       6.600   6.698  15.812  0.00  0.00    +0.000 HD
ENDBRANCH   6   9
BRANCH   1  11
ATOM     11  C   UNL     1       6.292   4.323  15.593  0.00  0.00    +0.000 C 
BRANCH  11  12
ATOM     12  C   UNL     1       5.788   4.206  14.147  0.00  0.00    +0.000 C 
BRANCH  12  13
ATOM     13  C   UNL     1       6.919   4.064  13.130  0.00  0.00    +0.000 C 
BRANCH  13  14
ATOM     14  C   UNL     1       6.377   3.617  11.773  0.00  0.00    +0.000 C 
BRANCH  14  16
ATOM     15  C   UNL     1       3.973   3.324  11.106  0.00  0.00    +0.000 C 
ATOM     16  C   UNL     1       5.115   2.775  11.943  0.00  0.00    +0.000 C 
ENDBRANCH  14  16
ENDBRANCH  13  14
ENDBRANCH  12  13
ENDBRANCH  11  12
ENDBRANCH   1  11
BRANCH   4  17
ATOM     17  C   UNL     1       2.265   6.265  19.386  0.00  0.00    +0.000 C 
BRANCH  17  18
ATOM     18  C   UNL     1       2.052   5.326  20.580  0.00  0.00    +0.000 C 
BRANCH  18  19
ATOM     19  C   UNL     1       0.831   4.414  20.422  0.00  0.00    +0.000 C 
BRANCH  19  20
ATOM     20  C   UNL     1       1.236   2.942  20.514  0.00  0.00    +0.000 C 
ATOM     21  C   UNL     1       2.195   2.694  21.667  0.00  0.00    +0.000 C 
ENDBRANCH  19  20
ENDBRANCH  18  19
ENDBRANCH  17  18
ENDBRANCH   4  17
TORSDOF 11
ENDMDL
MODEL 6
REMARK VINA RESULT:      -6.3      1.079      6.044
REMARK  Name = 
REMARK  13 active torsions:
REMARK  status: ('A' for Active; 'I' for Inactive)
REMARK    1  A    between atoms: C_1  and  C_2
REMARK    2  A    between atoms: C_2  and  C_3
REMARK    3  A    between atoms: C_3  and  C_4
REMARK    4  A    between atoms: C_4  and  C_5
REMARK    5  A    between atoms: C_5  and  C_6
REMARK    6  A    between atoms: C_6  and  C_7
REMARK    7  A    between atoms: C_8  and  O_9
REMARK    8  A    between atoms: C_11  and  C_12
REMARK    9  A    between atoms: C_12  and  C_13
REMARK   10  A    between atoms: C_13  and  C_14
REMARK   11  A    between atoms: C_14  and  C_15
REMARK   12  A    between atoms: C_15  and  C_16
REMARK   13  A    between atoms: C_18  and  O_19
REMARK                            x       y       z     vdW  Elec       q    Type
REMARK                         _______ _______ _______ _____ _____    ______ ____
ROOT
ATOM      1  C   UNL     1       4.512   5.468  18.178  0.00  0.00    +0.000 A 
ATOM      2  C   UNL     1       5.316   4.349  17.921  0.00  0.00    +0.000 A 
ATOM      3  C   UNL     1       6.050   4.236  16.739  0.00  0.00    +0.000 A 
ATOM      4  C   UNL     1       5.969   5.221  15.751  0.00  0.00    +0.000 A 
ATOM      5  C   UNL     1       5.168   6.344  15.987  0.00  0.00    +0.000 A 
ATOM      6  C   UNL     1       4.456   6.458  17.185  0.00  0.00    +0.000 A 
ENDROOT
BRANCH   2   7
ATOM      7  O   UNL     1       5.437   3.292  18.779  0.00  0.00    +0.000 OA
ATOM      8  H   UNL     1       4.622   3.213  19.297  0.00  0.00    +0.000 HD
ENDBRANCH   2   7
BRANCH   6   9
ATOM      9  O   UNL     1       3.684   7.572  17.395  0.00  0.00    +0.000 OA
ATOM     10  H   UNL     1       2.988   7.603  16.719  0.00  0.00    +0.000 HD
ENDBRANCH   6   9
BRANCH   1  11
ATOM     11  C   UNL     1       3.748   5.643  19.473  0.00  0.00    +0.000 C 
BRANCH  11  12
ATOM     12  C   UNL     1       2.237   5.393  19.364  0.00  0.00    +0.000 C 
BRANCH  12  13
ATOM     13  C   UNL     1       1.889   4.242  18.420  0.00  0.00    +0.000 C 
BRANCH  13  14
ATOM     14  C   UNL     1       1.306   3.061  19.196  0.00  0.00    +0.000 C 
BRANCH  14  16
ATOM     15  C   UNL     1       1.663   2.585  21.636  0.00  0.00    +0.000 C 
ATOM     16  C   UNL     1       0.956   3.469  20.624  0.00  0.00    +0.000 C 
ENDBRANCH  14  16
ENDBRANCH  13  14
ENDBRANCH  12  13
ENDBRANCH  11  12
ENDBRANCH   1  11
BRANCH   4  17
ATOM     17  C   UNL     1       6.708   5.066  14.446  0.00  0.00    +0.000 C 
BRANCH  17  18
ATOM     18  C   UNL     1       6.373   3.768  13.700  0.00  0.00    +0.000 C 
BRANCH  18  19
ATOM     19  C   UNL     1       4.964   3.763  13.096  0.00  0.00    +0.000 C 
BRANCH  19  20
ATOM     20  C   UNL     1       4.993   3.271  11.649  0.00  0.00    +0.000 C 
ATOM     21  C   UNL     1       5.791   1.984  11.509  0.00  0.00    +0.000 C 
ENDBRANCH  19  20
ENDBRANCH  18  19
ENDBRANCH  17  18
ENDBRANCH   4  17
TORSDOF 11
ENDMDL
MODEL 7
REMARK VINA RESULT:      -6.3      3.017      4.949
REMARK  Name = 
REMARK  13 active torsions:
REMARK  status: ('A' for Active; 'I' for Inactive)
REMARK    1  A    between atoms: C_1  and  C_2
REMARK    2  A    between atoms: C_2  and  C_3
REMARK    3  A    between atoms: C_3  and  C_4
REMARK    4  A    between atoms: C_4  and  C_5
REMARK    5  A    between atoms: C_5  and  C_6
REMARK    6  A    between atoms: C_6  and  C_7
REMARK    7  A    between atoms: C_8  and  O_9
REMARK    8  A    between atoms: C_11  and  C_12
REMARK    9  A    between atoms: C_12  and  C_13
REMARK   10  A    between atoms: C_13  and  C_14
REMARK   11  A    between atoms: C_14  and  C_15
REMARK   12  A    between atoms: C_15  and  C_16
REMARK   13  A    between atoms: C_18  and  O_19
REMARK                            x       y       z     vdW  Elec       q    Type
REMARK                         _______ _______ _______ _____ _____    ______ ____
ROOT
ATOM      1  C   UNL     1       6.134   6.201  17.829  0.00  0.00    +0.000 A 
ATOM      2  C   UNL     1       5.031   6.371  16.980  0.00  0.00    +0.000 A 
ATOM      3  C   UNL     1       3.751   5.962  17.358  0.00  0.00    +0.000 A 
ATOM      4  C   UNL     1       3.537   5.326  18.583  0.00  0.00    +0.000 A 
ATOM      5  C   UNL     1       4.626   5.142  19.443  0.00  0.00    +0.000 A 
ATOM      6  C   UNL     1       5.900   5.578  19.064  0.00  0.00    +0.000 A 
ENDROOT
BRANCH   2   7
ATOM      7  O   UNL     1       5.115   6.927  15.734  0.00  0.00    +0.000 OA
ATOM      8  H   UNL     1       4.947   6.240  15.071  0.00  0.00    +0.000 HD
ENDBRANCH   2   7
BRANCH   6   9
ATOM      9  O   UNL     1       6.949   5.393  19.927  0.00  0.00    +0.000 OA
ATOM     10  H   UNL     1       7.335   6.257  20.142  0.00  0.00    +0.000 HD
ENDBRANCH   6   9
BRANCH   1  11
ATOM     11  C   UNL     1       7.523   6.683  17.468  0.00  0.00    +0.000 C 
BRANCH  11  12
ATOM     12  C   UNL     1       7.691   8.209  17.467  0.00  0.00    +0.000 C 
BRANCH  12  13
ATOM     13  C   UNL     1       8.644   8.707  18.554  0.00  0.00    +0.000 C 
BRANCH  13  14
ATOM     14  C   UNL     1       8.798  10.225  18.487  0.00  0.00    +0.000 C 
BRANCH  14  16
ATOM     15  C   UNL     1       9.346  11.182  20.744  0.00  0.00    +0.000 C 
ATOM     16  C   UNL     1       9.909  10.700  19.419  0.00  0.00    +0.000 C 
ENDBRANCH  14  16
ENDBRANCH  13  14
ENDBRANCH  12  13
ENDBRANCH  11  12
ENDBRANCH   1  11
BRANCH   4  17
ATOM     17  C   UNL     1       2.168   4.822  18.962  0.00  0.00    +0.000 C 
BRANCH  17  18
ATOM     18  C   UNL     1       2.155   3.982  20.245  0.00  0.00    +0.000 C 
BRANCH  18  19
ATOM     19  C   UNL     1       1.658   2.549  20.026  0.00  0.00    +0.000 C 
BRANCH  19  20
ATOM     20  C   UNL     1       1.973   2.076  18.606  0.00  0.00    +0.000 C 
ATOM     21  C   UNL     1       3.398   1.558  18.489  0.00  0.00    +0.000 C 
ENDBRANCH  19  20
ENDBRANCH  18  19
ENDBRANCH  17  18
ENDBRANCH   4  17
TORSDOF 11
ENDMDL
MODEL 8
REMARK VINA RESULT:      -6.2      2.796      4.727
REMARK  Name = 
REMARK  13 active torsions:
REMARK  status: ('A' for Active; 'I' for Inactive)
REMARK    1  A    between atoms: C_1  and  C_2
REMARK    2  A    between atoms: C_2  and  C_3
REMARK    3  A    between atoms: C_3  and  C_4
REMARK    4  A    between atoms: C_4  and  C_5
REMARK    5  A    between atoms: C_5  and  C_6
REMARK    6  A    between atoms: C_6  and  C_7
REMARK    7  A    between atoms: C_8  and  O_9
REMARK    8  A    between atoms: C_11  and  C_12
REMARK    9  A    between atoms: C_12  and  C_13
REMARK   10  A    between atoms: C_13  and  C_14
REMARK   11  A    between atoms: C_14  and  C_15
REMARK   12  A    between atoms: C_15  and  C_16
REMARK   13  A    between atoms: C_18  and  O_19
REMARK                            x       y       z     vdW  Elec       q    Type
REMARK                         _______ _______ _______ _____ _____    ______ ____
ROOT
ATOM      1  C   UNL     1       6.097   5.100  17.337  0.00  0.00    +0.000 A 
ATOM      2  C   UNL     1       5.830   4.617  18.626  0.00  0.00    +0.000 A 
ATOM      3  C   UNL     1       4.783   3.726  18.868  0.00  0.00    +0.000 A 
ATOM      4  C   UNL     1       3.935   3.322  17.833  0.00  0.00    +0.000 A 
ATOM      5  C   UNL     1       4.182   3.797  16.540  0.00  0.00    +0.000 A 
ATOM      6  C   UNL     1       5.249   4.670  16.304  0.00  0.00    +0.000 A 
ENDROOT
BRANCH   2   7
ATOM      7  O   UNL     1       6.547   4.978  19.732  0.00  0.00    +0.000 OA
ATOM      8  H   UNL     1       7.177   4.272  19.941  0.00  0.00    +0.000 HD
ENDBRANCH   2   7
BRANCH   6   9
ATOM      9  O   UNL     1       5.473   5.116  15.028  0.00  0.00    +0.000 OA
ATOM     10  H   UNL     1       6.431   5.142  14.868  0.00  0.00    +0.000 HD
ENDBRANCH   6   9
BRANCH   1  11
ATOM     11  C   UNL     1       7.257   6.023  17.036  0.00  0.00    +0.000 C 
BRANCH  11  12
ATOM     12  C   UNL     1       7.044   7.481  17.466  0.00  0.00    +0.000 C 
BRANCH  12  13
ATOM     13  C   UNL     1       8.225   8.053  18.250  0.00  0.00    +0.000 C 
BRANCH  13  14
ATOM     14  C   UNL     1       8.359   9.556  18.013  0.00  0.00    +0.000 C 
BRANCH  14  16
ATOM     15  C   UNL     1       9.332  11.700  18.889  0.00  0.00    +0.000 C 
ATOM     16  C   UNL     1       9.275  10.191  19.055  0.00  0.00    +0.000 C 
ENDBRANCH  14  16
ENDBRANCH  13  14
ENDBRANCH  12  13
ENDBRANCH  11  12
ENDBRANCH   1  11
BRANCH   4  17
ATOM     17  C   UNL     1       2.762   2.415  18.106  0.00  0.00    +0.000 C 
BRANCH  17  18
ATOM     18  C   UNL     1       2.398   2.312  19.593  0.00  0.00    +0.000 C 
BRANCH  18  19
ATOM     19  C   UNL     1       1.283   3.277  20.011  0.00  0.00    +0.000 C 
BRANCH  19  20
ATOM     20  C   UNL     1       1.790   4.275  21.052  0.00  0.00    +0.000 C 
ATOM     21  C   UNL     1       1.901   5.678  20.478  0.00  0.00    +0.000 C 
ENDBRANCH  19  20
ENDBRANCH  18  19
ENDBRANCH  17  18
ENDBRANCH   4  17
TORSDOF 11
ENDMDL
MODEL 9
REMARK VINA RESULT:      -6.2      1.493      2.768
REMARK  Name = 
REMARK  13 active torsions:
REMARK  status: ('A' for Active; 'I' for Inactive)
REMARK    1  A    between atoms: C_1  and  C_2
REMARK    2  A    between atoms: C_2  and  C_3
REMARK    3  A    between atoms: C_3  and  C_4
REMARK    4  A    between atoms: C_4  and  C_5
REMARK    5  A    between atoms: C_5  and  C_6
REMARK    6  A    between atoms: C_6  and  C_7
REMARK    7  A    between atoms: C_8  and  O_9
REMARK    8  A    between atoms: C_11  and  C_12
REMARK    9  A    between atoms: C_12  and  C_13
REMARK   10  A    between atoms: C_13  and  C_14
REMARK   11  A    between atoms: C_14  and  C_15
REMARK   12  A    between atoms: C_15  and  C_16
REMARK   13  A    between atoms: C_18  and  O_19
REMARK                            x       y       z     vdW  Elec       q    Type
REMARK                         _______ _______ _______ _____ _____    ______ ____
ROOT
ATOM      1  C   UNL     1       5.433   4.719  16.563  0.00  0.00    +0.000 A 
ATOM      2  C   UNL     1       5.268   6.088  16.819  0.00  0.00    +0.000 A 
ATOM      3  C   UNL     1       4.311   6.550  17.724  0.00  0.00    +0.000 A 
ATOM      4  C   UNL     1       3.451   5.658  18.371  0.00  0.00    +0.000 A 
ATOM      5  C   UNL     1       3.596   4.288  18.125  0.00  0.00    +0.000 A 
ATOM      6  C   UNL     1       4.575   3.835  17.235  0.00  0.00    +0.000 A 
ENDROOT
BRANCH   2   7
ATOM      7  O   UNL     1       6.006   7.064  16.210  0.00  0.00    +0.000 OA
ATOM      8  H   UNL     1       5.468   7.478  15.518  0.00  0.00    +0.000 HD
ENDBRANCH   2   7
BRANCH   6   9
ATOM      9  O   UNL     1       4.701   2.487  17.017  0.00  0.00    +0.000 OA
ATOM     10  H   UNL     1       5.312   2.119  17.674  0.00  0.00    +0.000 HD
ENDBRANCH   6   9
BRANCH   1  11
ATOM     11  C   UNL     1       6.497   4.186  15.629  0.00  0.00    +0.000 C 
BRANCH  11  12
ATOM     12  C   UNL     1       6.343   4.624  14.166  0.00  0.00    +0.000 C 
BRANCH  12  13
ATOM     13  C   UNL     1       5.980   3.470  13.231  0.00  0.00    +0.000 C 
BRANCH  13  14
ATOM     14  C   UNL     1       5.167   3.972  12.039  0.00  0.00    +0.000 C 
BRANCH  14  16
ATOM     15  C   UNL     1       3.333   3.353  10.438  0.00  0.00    +0.000 C 
ATOM     16  C   UNL     1       4.397   2.828  11.386  0.00  0.00    +0.000 C 
ENDBRANCH  14  16
ENDBRANCH  13  14
ENDBRANCH  12  13
ENDBRANCH  11  12
ENDBRANCH   1  11
BRANCH   4  17
ATOM     17  C   UNL     1       2.372   6.162  19.295  0.00  0.00    +0.000 C 
BRANCH  17  18
ATOM     18  C   UNL     1       2.145   5.269  20.522  0.00  0.00    +0.000 C 
BRANCH  18  19
ATOM     19  C   UNL     1       0.874   4.418  20.425  0.00  0.00    +0.000 C 
BRANCH  19  20
ATOM     20  C   UNL     1       1.194   2.937  20.623  0.00  0.00    +0.000 C 
ATOM     21  C   UNL     1       2.298   2.732  21.648  0.00  0.00    +0.000 C 
ENDBRANCH  19  20
ENDBRANCH  18  19
ENDBRANCH  17  18
ENDBRANCH   4  17
TORSDOF 11
ENDMDL
