MODEL 1
REMARK VINA RESULT:      -7.2      0.000      0.000
REMARK  Name = 
REMARK  12 active torsions:
REMARK  status: ('A' for Active; 'I' for Inactive)
REMARK    1  A    between atoms: C_1  and  O_2
REMARK    2  A    between atoms: O_2  and  C_3
REMARK    3  A    between atoms: C_6  and  C_7
REMARK    4  A    between atoms: C_7  and  C_9
REMARK    5  A    between atoms: C_9  and  N_10
REMARK    6  A    between atoms: C_14  and  C_15
REMARK    7  A    between atoms: C_17  and  O_18
REMARK    8  A    between atoms: O_18  and  C_19
REMARK    9  A    between atoms: C_20  and  O_21
REMARK   10  A    between atoms: O_21  and  C_22
REMARK   11  A    between atoms: C_23  and  O_24
REMARK   12  A    between atoms: O_24  and  C_25
REMARK                            x       y       z     vdW  Elec       q    Type
REMARK                         _______ _______ _______ _____ _____    ______ ____
ROOT
ATOM      1  N   UNL     1       0.485   9.410  19.921  0.00  0.00    +0.000 N 
ATOM      2  C   UNL     1       1.443   8.441  19.684  0.00  0.00    +0.000 C 
ATOM      3  O   UNL     1       1.725   7.535  20.455  0.00  0.00    +0.000 OA
ATOM      4  C   UNL     1       2.146   8.715  18.399  0.00  0.00    +0.000 C 
ATOM      5  C   UNL     1       2.979   7.903  17.739  0.00  0.00    +0.000 C 
ATOM      6  S   UNL     1       1.658  10.255  17.790  0.00  0.00    +0.000 S 
ATOM      7  C   UNL     1       0.428  10.460  19.033  0.00  0.00    +0.000 C 
ATOM      8  S   UNL     1      -0.579  11.789  19.074  0.00  0.00    +0.000 S 
ENDROOT
BRANCH   5   9
ATOM      9  C   UNL     1       3.269   6.524  18.137  0.00  0.00    +0.000 A 
ATOM     10  C   UNL     1       4.564   6.207  18.545  0.00  0.00    +0.000 A 
ATOM     11  C   UNL     1       4.887   4.905  18.934  0.00  0.00    +0.000 A 
ATOM     12  C   UNL     1       3.902   3.894  18.886  0.00  0.00    +0.000 A 
ATOM     13  C   UNL     1       2.597   4.206  18.441  0.00  0.00    +0.000 A 
ATOM     14  C   UNL     1       2.292   5.529  18.085  0.00  0.00    +0.000 A 
BRANCH  11  15
ATOM     15  O   UNL     1       6.145   4.542  19.358  0.00  0.00    +0.000 OA
ATOM     16  C   UNL     1       7.132   5.569  19.350  0.00  0.00    +0.000 C 
ENDBRANCH  11  15
BRANCH  12  17
ATOM     17  O   UNL     1       4.341   2.633  19.226  0.00  0.00    +0.000 OA
ATOM     18  C   UNL     1       4.185   2.245  20.585  0.00  0.00    +0.000 C 
ENDBRANCH  12  17
BRANCH  13  19
ATOM     19  O   UNL     1       1.687   3.184  18.352  0.00  0.00    +0.000 OA
ATOM     20  C   UNL     1       0.799   2.980  19.442  0.00  0.00    +0.000 C 
ENDBRANCH  13  19
ENDBRANCH   5   9
BRANCH   1  21
ATOM     21  C   UNL     1      -0.360   9.251  21.100  0.00  0.00    +0.000 C 
BRANCH  21  22
ATOM     22  C   UNL     1       0.111  10.145  22.247  0.00  0.00    +0.000 C 
ATOM     23  O   UNL     1       1.126   9.906  22.900  0.00  0.00    +0.000 OA
BRANCH  22  27
ATOM     24  C   UNL     1      -2.205  13.615  23.343  0.00  0.00    +0.000 A 
ATOM     25  C   UNL     1      -0.955  13.749  22.736  0.00  0.00    +0.000 A 
ATOM     26  C   UNL     1      -0.225  12.620  22.348  0.00  0.00    +0.000 A 
ATOM     27  C   UNL     1      -0.731  11.337  22.587  0.00  0.00    +0.000 A 
ATOM     28  C   UNL     1      -1.995  11.208  23.179  0.00  0.00    +0.000 A 
ATOM     29  C   UNL     1      -2.725  12.342  23.557  0.00  0.00    +0.000 A 
BRANCH  24  31
ATOM     30  C   UNL     1      -4.210  14.867  23.536  0.00  0.00    +0.000 C 
ATOM     31  O   UNL     1      -2.800  14.788  23.719  0.00  0.00    +0.000 OA
ENDBRANCH  24  31
ENDBRANCH  22  27
ENDBRANCH  21  22
ENDBRANCH   1  21
TORSDOF 8
ENDMDL
MODEL 2
REMARK VINA RESULT:      -7.1      0.294      2.471
REMARK  Name = 
REMARK  12 active torsions:
REMARK  status: ('A' for Active; 'I' for Inactive)
REMARK    1  A    between atoms: C_1  and  O_2
REMARK    2  A    between atoms: O_2  and  C_3
REMARK    3  A    between atoms: C_6  and  C_7
REMARK    4  A    between atoms: C_7  and  C_9
REMARK    5  A    between atoms: C_9  and  N_10
REMARK    6  A    between atoms: C_14  and  C_15
REMARK    7  A    between atoms: C_17  and  O_18
REMARK    8  A    between atoms: O_18  and  C_19
REMARK    9  A    between atoms: C_20  and  O_21
REMARK   10  A    between atoms: O_21  and  C_22
REMARK   11  A    between atoms: C_23  and  O_24
REMARK   12  A    between atoms: O_24  and  C_25
REMARK                            x       y       z     vdW  Elec       q    Type
REMARK                         _______ _______ _______ _____ _____    ______ ____
ROOT
ATOM      1  N   UNL     1       0.500   9.232  20.000  0.00  0.00    +0.000 N 
ATOM      2  C   UNL     1       1.500   8.320  19.714  0.00  0.00    +0.000 C 
ATOM      3  O   UNL     1       1.886   7.446  20.476  0.00  0.00    +0.000 OA
ATOM      4  C   UNL     1       2.101   8.616  18.382  0.00  0.00    +0.000 C 
ATOM      5  C   UNL     1       2.938   7.846  17.680  0.00  0.00    +0.000 C 
ATOM      6  S   UNL     1       1.479  10.113  17.788  0.00  0.00    +0.000 S 
ATOM      7  C   UNL     1       0.320  10.262  19.105  0.00  0.00    +0.000 C 
ATOM      8  S   UNL     1      -0.763  11.527  19.195  0.00  0.00    +0.000 S 
ENDROOT
BRANCH   5   9
ATOM      9  C   UNL     1       3.339   6.494  18.075  0.00  0.00    +0.000 A 
ATOM     10  C   UNL     1       2.387   5.477  18.030  0.00  0.00    +0.000 A 
ATOM     11  C   UNL     1       2.724   4.172  18.397  0.00  0.00    +0.000 A 
ATOM     12  C   UNL     1       4.033   3.886  18.846  0.00  0.00    +0.000 A 
ATOM     13  C   UNL     1       4.990   4.922  18.924  0.00  0.00    +0.000 A 
ATOM     14  C   UNL     1       4.633   6.218  18.520  0.00  0.00    +0.000 A 
BRANCH  11  15
ATOM     15  O   UNL     1       1.828   3.129  18.359  0.00  0.00    +0.000 OA
ATOM     16  C   UNL     1       0.802   3.145  19.347  0.00  0.00    +0.000 C 
ENDBRANCH  11  15
BRANCH  12  17
ATOM     17  O   UNL     1       4.242   2.585  19.247  0.00  0.00    +0.000 OA
ATOM     18  C   UNL     1       4.138   2.318  20.640  0.00  0.00    +0.000 C 
ENDBRANCH  12  17
BRANCH  13  19
ATOM     19  O   UNL     1       6.231   4.615  19.422  0.00  0.00    +0.000 OA
ATOM     20  C   UNL     1       7.248   5.603  19.343  0.00  0.00    +0.000 C 
ENDBRANCH  13  19
ENDBRANCH   5   9
BRANCH   1  21
ATOM     21  C   UNL     1      -0.256   9.040  21.235  0.00  0.00    +0.000 C 
BRANCH  21  22
ATOM     22  C   UNL     1       0.224   9.988  22.334  0.00  0.00    +0.000 C 
ATOM     23  O   UNL     1       1.252   9.787  22.980  0.00  0.00    +0.000 OA
BRANCH  22  27
ATOM     24  C   UNL     1      -2.326  13.382  23.096  0.00  0.00    +0.000 A 
ATOM     25  C   UNL     1      -2.731  12.089  23.433  0.00  0.00    +0.000 A 
ATOM     26  C   UNL     1      -1.884  10.996  23.219  0.00  0.00    +0.000 A 
ATOM     27  C   UNL     1      -0.625  11.184  22.638  0.00  0.00    +0.000 A 
ATOM     28  C   UNL     1      -0.214  12.486  22.319  0.00  0.00    +0.000 A 
ATOM     29  C   UNL     1      -1.062  13.577  22.544  0.00  0.00    +0.000 A 
BRANCH  24  31
ATOM     30  C   UNL     1      -4.584  13.920  23.580  0.00  0.00    +0.000 C 
ATOM     31  O   UNL     1      -3.257  14.360  23.309  0.00  0.00    +0.000 OA
ENDBRANCH  24  31
ENDBRANCH  22  27
ENDBRANCH  21  22
ENDBRANCH   1  21
TORSDOF 8
ENDMDL
MODEL 3
REMARK VINA RESULT:      -7.1      0.575      2.373
REMARK  Name = 
REMARK  12 active torsions:
REMARK  status: ('A' for Active; 'I' for Inactive)
REMARK    1  A    between atoms: C_1  and  O_2
REMARK    2  A    between atoms: O_2  and  C_3
REMARK    3  A    between atoms: C_6  and  C_7
REMARK    4  A    between atoms: C_7  and  C_9
REMARK    5  A    between atoms: C_9  and  N_10
REMARK    6  A    between atoms: C_14  and  C_15
REMARK    7  A    between atoms: C_17  and  O_18
REMARK    8  A    between atoms: O_18  and  C_19
REMARK    9  A    between atoms: C_20  and  O_21
REMARK   10  A    between atoms: O_21  and  C_22
REMARK   11  A    between atoms: C_23  and  O_24
REMARK   12  A    between atoms: O_24  and  C_25
REMARK                            x       y       z     vdW  Elec       q    Type
REMARK                         _______ _______ _______ _____ _____    ______ ____
ROOT
ATOM      1  N   UNL     1       0.593   9.006  19.966  0.00  0.00    +0.000 N 
ATOM      2  C   UNL     1       1.659   8.166  19.698  0.00  0.00    +0.000 C 
ATOM      3  O   UNL     1       2.150   7.384  20.499  0.00  0.00    +0.000 OA
ATOM      4  C   UNL     1       2.181   8.418  18.325  0.00  0.00    +0.000 C 
ATOM      5  C   UNL     1       3.057   7.675  17.640  0.00  0.00    +0.000 C 
ATOM      6  S   UNL     1       1.407   9.810  17.659  0.00  0.00    +0.000 S 
ATOM      7  C   UNL     1       0.290   9.950  19.013  0.00  0.00    +0.000 C 
ATOM      8  S   UNL     1      -0.898  11.121  19.064  0.00  0.00    +0.000 S 
ENDROOT
BRANCH   5   9
ATOM      9  C   UNL     1       3.591   6.394  18.107  0.00  0.00    +0.000 A 
ATOM     10  C   UNL     1       2.791   5.258  17.993  0.00  0.00    +0.000 A 
ATOM     11  C   UNL     1       3.259   4.015  18.424  0.00  0.00    +0.000 A 
ATOM     12  C   UNL     1       4.541   3.912  19.008  0.00  0.00    +0.000 A 
ATOM     13  C   UNL     1       5.340   5.068  19.154  0.00  0.00    +0.000 A 
ATOM     14  C   UNL     1       4.857   6.299  18.685  0.00  0.00    +0.000 A 
BRANCH  11  15
ATOM     15  O   UNL     1       2.517   2.860  18.324  0.00  0.00    +0.000 OA
ATOM     16  C   UNL     1       1.109   3.002  18.484  0.00  0.00    +0.000 C 
ENDBRANCH  11  15
BRANCH  12  17
ATOM     17  O   UNL     1       4.879   2.655  19.460  0.00  0.00    +0.000 OA
ATOM     18  C   UNL     1       4.342   2.259  20.716  0.00  0.00    +0.000 C 
ENDBRANCH  12  17
BRANCH  13  19
ATOM     19  O   UNL     1       6.553   4.936  19.781  0.00  0.00    +0.000 OA
ATOM     20  C   UNL     1       7.636   5.732  19.319  0.00  0.00    +0.000 C 
ENDBRANCH  13  19
ENDBRANCH   5   9
BRANCH   1  21
ATOM     21  C   UNL     1      -0.096   8.837  21.242  0.00  0.00    +0.000 C 
BRANCH  21  22
ATOM     22  C   UNL     1       0.384   9.858  22.273  0.00  0.00    +0.000 C 
ATOM     23  O   UNL     1       1.419   9.709  22.921  0.00  0.00    +0.000 OA
BRANCH  22  27
ATOM     24  C   UNL     1      -1.974  13.386  23.047  0.00  0.00    +0.000 A 
ATOM     25  C   UNL     1      -0.760  13.470  22.363  0.00  0.00    +0.000 A 
ATOM     26  C   UNL     1      -0.018  12.318  22.081  0.00  0.00    +0.000 A 
ATOM     27  C   UNL     1      -0.474  11.064  22.505  0.00  0.00    +0.000 A 
ATOM     28  C   UNL     1      -1.703  10.983  23.175  0.00  0.00    +0.000 A 
ATOM     29  C   UNL     1      -2.446  12.139  23.447  0.00  0.00    +0.000 A 
BRANCH  24  31
ATOM     30  C   UNL     1      -3.290  14.679  24.536  0.00  0.00    +0.000 C 
ATOM     31  O   UNL     1      -2.583  14.584  23.304  0.00  0.00    +0.000 OA
ENDBRANCH  24  31
ENDBRANCH  22  27
ENDBRANCH  21  22
ENDBRANCH   1  21
TORSDOF 8
ENDMDL
MODEL 4
REMARK VINA RESULT:      -7.0      0.580      1.041
REMARK  Name = 
REMARK  12 active torsions:
REMARK  status: ('A' for Active; 'I' for Inactive)
REMARK    1  A    between atoms: C_1  and  O_2
REMARK    2  A    between atoms: O_2  and  C_3
REMARK    3  A    between atoms: C_6  and  C_7
REMARK    4  A    between atoms: C_7  and  C_9
REMARK    5  A    between atoms: C_9  and  N_10
REMARK    6  A    between atoms: C_14  and  C_15
REMARK    7  A    between atoms: C_17  and  O_18
REMARK    8  A    between atoms: O_18  and  C_19
REMARK    9  A    between atoms: C_20  and  O_21
REMARK   10  A    between atoms: O_21  and  C_22
REMARK   11  A    between atoms: C_23  and  O_24
REMARK   12  A    between atoms: O_24  and  C_25
REMARK                            x       y       z     vdW  Elec       q    Type
REMARK                         _______ _______ _______ _____ _____    ______ ____
ROOT
ATOM      1  N   UNL     1       0.450   9.540  19.886  0.00  0.00    +0.000 N 
ATOM      2  C   UNL     1       1.369   8.526  19.687  0.00  0.00    +0.000 C 
ATOM      3  O   UNL     1       1.579   7.611  20.470  0.00  0.00    +0.000 OA
ATOM      4  C   UNL     1       2.131   8.760  18.428  0.00  0.00    +0.000 C 
ATOM      5  C   UNL     1       2.947   7.906  17.801  0.00  0.00    +0.000 C 
ATOM      6  S   UNL     1       1.739  10.319  17.797  0.00  0.00    +0.000 S 
ATOM      7  C   UNL     1       0.475  10.587  18.993  0.00  0.00    +0.000 C 
ATOM      8  S   UNL     1      -0.469  11.963  18.993  0.00  0.00    +0.000 S 
ENDROOT
BRANCH   5   9
ATOM      9  C   UNL     1       3.157   6.517  18.214  0.00  0.00    +0.000 A 
ATOM     10  C   UNL     1       4.441   6.121  18.589  0.00  0.00    +0.000 A 
ATOM     11  C   UNL     1       4.688   4.806  18.990  0.00  0.00    +0.000 A 
ATOM     12  C   UNL     1       3.637   3.862  18.989  0.00  0.00    +0.000 A 
ATOM     13  C   UNL     1       2.342   4.255  18.579  0.00  0.00    +0.000 A 
ATOM     14  C   UNL     1       2.115   5.590  18.209  0.00  0.00    +0.000 A 
BRANCH  11  15
ATOM     15  O   UNL     1       5.931   4.365  19.381  0.00  0.00    +0.000 OA
ATOM     16  C   UNL     1       6.972   5.338  19.382  0.00  0.00    +0.000 C 
ENDBRANCH  11  15
BRANCH  12  17
ATOM     17  O   UNL     1       4.001   2.580  19.337  0.00  0.00    +0.000 OA
ATOM     18  C   UNL     1       3.910   1.589  18.321  0.00  0.00    +0.000 C 
ENDBRANCH  12  17
BRANCH  13  19
ATOM     19  O   UNL     1       1.364   3.295  18.534  0.00  0.00    +0.000 OA
ATOM     20  C   UNL     1       0.696   2.962  19.744  0.00  0.00    +0.000 C 
ENDBRANCH  13  19
ENDBRANCH   5   9
BRANCH   1  21
ATOM     21  C   UNL     1      -0.445   9.426  21.034  0.00  0.00    +0.000 C 
BRANCH  21  22
ATOM     22  C   UNL     1       0.053  10.265  22.211  0.00  0.00    +0.000 C 
ATOM     23  O   UNL     1       1.069   9.980  22.845  0.00  0.00    +0.000 OA
BRANCH  22  27
ATOM     24  C   UNL     1      -2.405  13.656  23.240  0.00  0.00    +0.000 A 
ATOM     25  C   UNL     1      -2.831  12.354  23.507  0.00  0.00    +0.000 A 
ATOM     26  C   UNL     1      -2.012  11.259  23.206  0.00  0.00    +0.000 A 
ATOM     27  C   UNL     1      -0.763  11.457  22.608  0.00  0.00    +0.000 A 
ATOM     28  C   UNL     1      -0.332  12.767  22.359  0.00  0.00    +0.000 A 
ATOM     29  C   UNL     1      -1.151  13.860  22.671  0.00  0.00    +0.000 A 
BRANCH  24  31
ATOM     30  C   UNL     1      -2.845  15.695  24.367  0.00  0.00    +0.000 C 
ATOM     31  O   UNL     1      -3.311  14.638  23.534  0.00  0.00    +0.000 OA
ENDBRANCH  24  31
ENDBRANCH  22  27
ENDBRANCH  21  22
ENDBRANCH   1  21
TORSDOF 8
ENDMDL
MODEL 5
REMARK VINA RESULT:      -6.6      3.172      4.491
REMARK  Name = 
REMARK  12 active torsions:
REMARK  status: ('A' for Active; 'I' for Inactive)
REMARK    1  A    between atoms: C_1  and  O_2
REMARK    2  A    between atoms: O_2  and  C_3
REMARK    3  A    between atoms: C_6  and  C_7
REMARK    4  A    between atoms: C_7  and  C_9
REMARK    5  A    between atoms: C_9  and  N_10
REMARK    6  A    between atoms: C_14  and  C_15
REMARK    7  A    between atoms: C_17  and  O_18
REMARK    8  A    between atoms: O_18  and  C_19
REMARK    9  A    between atoms: C_20  and  O_21
REMARK   10  A    between atoms: O_21  and  C_22
REMARK   11  A    between atoms: C_23  and  O_24
REMARK   12  A    between atoms: O_24  and  C_25
REMARK                            x       y       z     vdW  Elec       q    Type
REMARK                         _______ _______ _______ _____ _____    ______ ____
ROOT
ATOM      1  N   UNL     1       0.834   9.988  19.435  0.00  0.00    +0.000 N 
ATOM      2  C   UNL     1       1.378   8.793  19.000  0.00  0.00    +0.000 C 
ATOM      3  O   UNL     1       1.490   8.462  17.829  0.00  0.00    +0.000 OA
ATOM      4  C   UNL     1       1.720   7.929  20.166  0.00  0.00    +0.000 C 
ATOM      5  C   UNL     1       2.443   6.804  20.159  0.00  0.00    +0.000 C 
ATOM      6  S   UNL     1       1.112   8.646  21.614  0.00  0.00    +0.000 S 
ATOM      7  C   UNL     1       0.615  10.118  20.787  0.00  0.00    +0.000 C 
ATOM      8  S   UNL     1      -0.060  11.408  21.601  0.00  0.00    +0.000 S 
ENDROOT
BRANCH   5   9
ATOM      9  C   UNL     1       3.122   6.270  18.976  0.00  0.00    +0.000 A 
ATOM     10  C   UNL     1       2.714   5.035  18.475  0.00  0.00    +0.000 A 
ATOM     11  C   UNL     1       3.333   4.487  17.348  0.00  0.00    +0.000 A 
ATOM     12  C   UNL     1       4.399   5.176  16.729  0.00  0.00    +0.000 A 
ATOM     13  C   UNL     1       4.835   6.413  17.256  0.00  0.00    +0.000 A 
ATOM     14  C   UNL     1       4.176   6.954  18.370  0.00  0.00    +0.000 A 
BRANCH  11  15
ATOM     15  O   UNL     1       2.961   3.279  16.805  0.00  0.00    +0.000 OA
ATOM     16  C   UNL     1       2.506   2.290  17.723  0.00  0.00    +0.000 C 
ENDBRANCH  11  15
BRANCH  12  17
ATOM     17  O   UNL     1       4.983   4.519  15.668  0.00  0.00    +0.000 OA
ATOM     18  C   UNL     1       6.231   3.884  15.915  0.00  0.00    +0.000 C 
ENDBRANCH  12  17
BRANCH  13  19
ATOM     19  O   UNL     1       5.912   7.020  16.663  0.00  0.00    +0.000 OA
ATOM     20  C   UNL     1       7.102   7.168  17.424  0.00  0.00    +0.000 C 
ENDBRANCH  13  19
ENDBRANCH   5   9
BRANCH   1  21
ATOM     21  C   UNL     1       0.517  10.993  18.424  0.00  0.00    +0.000 C 
BRANCH  21  22
ATOM     22  C   UNL     1       1.645  12.014  18.283  0.00  0.00    +0.000 C 
ATOM     23  O   UNL     1       2.785  11.700  17.943  0.00  0.00    +0.000 OA
BRANCH  22  27
ATOM     24  C   UNL     1       0.687  16.146  19.065  0.00  0.00    +0.000 A 
ATOM     25  C   UNL     1      -0.320  15.201  18.864  0.00  0.00    +0.000 A 
ATOM     26  C   UNL     1      -0.005  13.855  18.649  0.00  0.00    +0.000 A 
ATOM     27  C   UNL     1       1.332  13.443  18.607  0.00  0.00    +0.000 A 
ATOM     28  C   UNL     1       2.340  14.391  18.829  0.00  0.00    +0.000 A 
ATOM     29  C   UNL     1       2.018  15.736  19.053  0.00  0.00    +0.000 A 
BRANCH  24  31
ATOM     30  C   UNL     1       1.201  18.356  19.754  0.00  0.00    +0.000 C 
ATOM     31  O   UNL     1       0.257  17.435  19.219  0.00  0.00    +0.000 OA
ENDBRANCH  24  31
ENDBRANCH  22  27
ENDBRANCH  21  22
ENDBRANCH   1  21
TORSDOF 8
ENDMDL
MODEL 6
REMARK VINA RESULT:      -6.6      2.625      9.952
REMARK  Name = 
REMARK  12 active torsions:
REMARK  status: ('A' for Active; 'I' for Inactive)
REMARK    1  A    between atoms: C_1  and  O_2
REMARK    2  A    between atoms: O_2  and  C_3
REMARK    3  A    between atoms: C_6  and  C_7
REMARK    4  A    between atoms: C_7  and  C_9
REMARK    5  A    between atoms: C_9  and  N_10
REMARK    6  A    between atoms: C_14  and  C_15
REMARK    7  A    between atoms: C_17  and  O_18
REMARK    8  A    between atoms: O_18  and  C_19
REMARK    9  A    between atoms: C_20  and  O_21
REMARK   10  A    between atoms: O_21  and  C_22
REMARK   11  A    between atoms: C_23  and  O_24
REMARK   12  A    between atoms: O_24  and  C_25
REMARK                            x       y       z     vdW  Elec       q    Type
REMARK                         _______ _______ _______ _____ _____    ______ ____
ROOT
ATOM      1  N   UNL     1       0.521  11.986  19.702  0.00  0.00    +0.000 N 
ATOM      2  C   UNL     1      -0.771  12.255  20.118  0.00  0.00    +0.000 C 
ATOM      3  O   UNL     1      -1.528  11.436  20.617  0.00  0.00    +0.000 OA
ATOM      4  C   UNL     1      -1.136  13.661  19.785  0.00  0.00    +0.000 C 
ATOM      5  C   UNL     1      -2.207  14.344  20.205  0.00  0.00    +0.000 C 
ATOM      6  S   UNL     1       0.103  14.366  18.811  0.00  0.00    +0.000 S 
ATOM      7  C   UNL     1       1.166  12.974  18.994  0.00  0.00    +0.000 C 
ATOM      8  S   UNL     1       2.695  12.933  18.329  0.00  0.00    +0.000 S 
ENDROOT
BRANCH   5   9
ATOM      9  C   UNL     1      -3.178  13.833  21.175  0.00  0.00    +0.000 A 
ATOM     10  C   UNL     1      -2.930  14.030  22.533  0.00  0.00    +0.000 A 
ATOM     11  C   UNL     1      -3.829  13.561  23.494  0.00  0.00    +0.000 A 
ATOM     12  C   UNL     1      -4.984  12.856  23.089  0.00  0.00    +0.000 A 
ATOM     13  C   UNL     1      -5.220  12.627  21.714  0.00  0.00    +0.000 A 
ATOM     14  C   UNL     1      -4.316  13.135  20.769  0.00  0.00    +0.000 A 
BRANCH  11  15
ATOM     15  O   UNL     1      -3.640  13.739  24.845  0.00  0.00    +0.000 OA
ATOM     16  C   UNL     1      -3.037  14.969  25.238  0.00  0.00    +0.000 C 
ENDBRANCH  11  15
BRANCH  12  17
ATOM     17  O   UNL     1      -5.769  12.379  24.116  0.00  0.00    +0.000 OA
ATOM     18  C   UNL     1      -7.056  12.964  24.265  0.00  0.00    +0.000 C 
ENDBRANCH  12  17
BRANCH  13  19
ATOM     19  O   UNL     1      -6.321  11.886  21.366  0.00  0.00    +0.000 OA
ATOM     20  C   UNL     1      -7.093  12.315  20.253  0.00  0.00    +0.000 C 
ENDBRANCH  13  19
ENDBRANCH   5   9
BRANCH   1  21
ATOM     21  C   UNL     1       1.075  10.675  20.025  0.00  0.00    +0.000 C 
BRANCH  21  22
ATOM     22  C   UNL     1       0.950   9.713  18.844  0.00  0.00    +0.000 C 
ATOM     23  O   UNL     1       0.123   9.869  17.946  0.00  0.00    +0.000 OA
BRANCH  22  27
ATOM     24  C   UNL     1       3.483   6.226  18.650  0.00  0.00    +0.000 A 
ATOM     25  C   UNL     1       3.468   7.162  17.614  0.00  0.00    +0.000 A 
ATOM     26  C   UNL     1       2.673   8.310  17.699  0.00  0.00    +0.000 A 
ATOM     27  C   UNL     1       1.860   8.523  18.819  0.00  0.00    +0.000 A 
ATOM     28  C   UNL     1       1.893   7.591  19.865  0.00  0.00    +0.000 A 
ATOM     29  C   UNL     1       2.697   6.448  19.778  0.00  0.00    +0.000 A 
BRANCH  24  31
ATOM     30  C   UNL     1       5.491   5.068  19.147  0.00  0.00    +0.000 C 
ATOM     31  O   UNL     1       4.262   5.124  18.431  0.00  0.00    +0.000 OA
ENDBRANCH  24  31
ENDBRANCH  22  27
ENDBRANCH  21  22
ENDBRANCH   1  21
TORSDOF 8
ENDMDL
MODEL 7
REMARK VINA RESULT:      -6.4      2.777      9.947
REMARK  Name = 
REMARK  12 active torsions:
REMARK  status: ('A' for Active; 'I' for Inactive)
REMARK    1  A    between atoms: C_1  and  O_2
REMARK    2  A    between atoms: O_2  and  C_3
REMARK    3  A    between atoms: C_6  and  C_7
REMARK    4  A    between atoms: C_7  and  C_9
REMARK    5  A    between atoms: C_9  and  N_10
REMARK    6  A    between atoms: C_14  and  C_15
REMARK    7  A    between atoms: C_17  and  O_18
REMARK    8  A    between atoms: O_18  and  C_19
REMARK    9  A    between atoms: C_20  and  O_21
REMARK   10  A    between atoms: O_21  and  C_22
REMARK   11  A    between atoms: C_23  and  O_24
REMARK   12  A    between atoms: O_24  and  C_25
REMARK                            x       y       z     vdW  Elec       q    Type
REMARK                         _______ _______ _______ _____ _____    ______ ____
ROOT
ATOM      1  N   UNL     1       0.083  11.744  18.889  0.00  0.00    +0.000 N 
ATOM      2  C   UNL     1      -1.131  12.198  19.370  0.00  0.00    +0.000 C 
ATOM      3  O   UNL     1      -2.159  11.539  19.405  0.00  0.00    +0.000 OA
ATOM      4  C   UNL     1      -1.028  13.635  19.753  0.00  0.00    +0.000 C 
ATOM      5  C   UNL     1      -1.919  14.359  20.439  0.00  0.00    +0.000 C 
ATOM      6  S   UNL     1       0.502  14.258  19.251  0.00  0.00    +0.000 S 
ATOM      7  C   UNL     1       1.087  12.675  18.752  0.00  0.00    +0.000 C 
ATOM      8  S   UNL     1       2.631  12.445  18.164  0.00  0.00    +0.000 S 
ENDROOT
BRANCH   5   9
ATOM      9  C   UNL     1      -3.140  13.812  21.033  0.00  0.00    +0.000 A 
ATOM     10  C   UNL     1      -3.057  13.204  22.286  0.00  0.00    +0.000 A 
ATOM     11  C   UNL     1      -4.197  12.668  22.891  0.00  0.00    +0.000 A 
ATOM     12  C   UNL     1      -5.437  12.716  22.217  0.00  0.00    +0.000 A 
ATOM     13  C   UNL     1      -5.517  13.303  20.934  0.00  0.00    +0.000 A 
ATOM     14  C   UNL     1      -4.362  13.860  20.362  0.00  0.00    +0.000 A 
BRANCH  11  15
ATOM     15  O   UNL     1      -4.173  12.069  24.129  0.00  0.00    +0.000 OA
ATOM     16  C   UNL     1      -4.002  12.939  25.245  0.00  0.00    +0.000 C 
ENDBRANCH  11  15
BRANCH  12  17
ATOM     17  O   UNL     1      -6.482  12.101  22.871  0.00  0.00    +0.000 OA
ATOM     18  C   UNL     1      -7.376  12.945  23.587  0.00  0.00    +0.000 C 
ENDBRANCH  12  17
BRANCH  13  19
ATOM     19  O   UNL     1      -6.726  13.276  20.289  0.00  0.00    +0.000 OA
ATOM     20  C   UNL     1      -6.739  13.453  18.879  0.00  0.00    +0.000 C 
ENDBRANCH  13  19
ENDBRANCH   5   9
BRANCH   1  21
ATOM     21  C   UNL     1       0.187  10.329  18.545  0.00  0.00    +0.000 C 
BRANCH  21  22
ATOM     22  C   UNL     1       0.942   9.549  19.621  0.00  0.00    +0.000 C 
ATOM     23  O   UNL     1       0.885   9.841  20.815  0.00  0.00    +0.000 OA
BRANCH  22  27
ATOM     24  C   UNL     1       3.528   6.300  18.452  0.00  0.00    +0.000 A 
ATOM     25  C   UNL     1       2.829   6.262  19.659  0.00  0.00    +0.000 A 
ATOM     26  C   UNL     1       1.961   7.301  20.016  0.00  0.00    +0.000 A 
ATOM     27  C   UNL     1       1.804   8.408  19.173  0.00  0.00    +0.000 A 
ATOM     28  C   UNL     1       2.494   8.433  17.953  0.00  0.00    +0.000 A 
ATOM     29  C   UNL     1       3.354   7.386  17.598  0.00  0.00    +0.000 A 
BRANCH  24  31
ATOM     30  C   UNL     1       5.676   5.364  18.813  0.00  0.00    +0.000 C 
ATOM     31  O   UNL     1       4.379   5.251  18.237  0.00  0.00    +0.000 OA
ENDBRANCH  24  31
ENDBRANCH  22  27
ENDBRANCH  21  22
ENDBRANCH   1  21
TORSDOF 8
ENDMDL
MODEL 8
REMARK VINA RESULT:      -6.3      3.055      3.793
REMARK  Name = 
REMARK  12 active torsions:
REMARK  status: ('A' for Active; 'I' for Inactive)
REMARK    1  A    between atoms: C_1  and  O_2
REMARK    2  A    between atoms: O_2  and  C_3
REMARK    3  A    between atoms: C_6  and  C_7
REMARK    4  A    between atoms: C_7  and  C_9
REMARK    5  A    between atoms: C_9  and  N_10
REMARK    6  A    between atoms: C_14  and  C_15
REMARK    7  A    between atoms: C_17  and  O_18
REMARK    8  A    between atoms: O_18  and  C_19
REMARK    9  A    between atoms: C_20  and  O_21
REMARK   10  A    between atoms: O_21  and  C_22
REMARK   11  A    between atoms: C_23  and  O_24
REMARK   12  A    between atoms: O_24  and  C_25
REMARK                            x       y       z     vdW  Elec       q    Type
REMARK                         _______ _______ _______ _____ _____    ______ ____
ROOT
ATOM      1  N   UNL     1       0.762  10.141  19.547  0.00  0.00    +0.000 N 
ATOM      2  C   UNL     1       1.239   8.901  19.163  0.00  0.00    +0.000 C 
ATOM      3  O   UNL     1       1.321   8.511  18.008  0.00  0.00    +0.000 OA
ATOM      4  C   UNL     1       1.549   8.075  20.364  0.00  0.00    +0.000 C 
ATOM      5  C   UNL     1       2.213   6.915  20.403  0.00  0.00    +0.000 C 
ATOM      6  S   UNL     1       0.996   8.888  21.783  0.00  0.00    +0.000 S 
ATOM      7  C   UNL     1       0.564  10.344  20.893  0.00  0.00    +0.000 C 
ATOM      8  S   UNL     1      -0.035  11.703  21.653  0.00  0.00    +0.000 S 
ENDROOT
BRANCH   5   9
ATOM      9  C   UNL     1       2.851   6.294  19.240  0.00  0.00    +0.000 A 
ATOM     10  C   UNL     1       3.957   6.925  18.671  0.00  0.00    +0.000 A 
ATOM     11  C   UNL     1       4.597   6.369  17.561  0.00  0.00    +0.000 A 
ATOM     12  C   UNL     1       4.104   5.173  16.993  0.00  0.00    +0.000 A 
ATOM     13  C   UNL     1       2.964   4.550  17.549  0.00  0.00    +0.000 A 
ATOM     14  C   UNL     1       2.358   5.114  18.682  0.00  0.00    +0.000 A 
BRANCH  11  15
ATOM     15  O   UNL     1       5.699   6.942  16.969  0.00  0.00    +0.000 OA
ATOM     16  C   UNL     1       6.932   6.807  17.670  0.00  0.00    +0.000 C 
ENDBRANCH  11  15
BRANCH  12  17
ATOM     17  O   UNL     1       4.767   4.746  15.863  0.00  0.00    +0.000 OA
ATOM     18  C   UNL     1       5.733   3.717  16.036  0.00  0.00    +0.000 C 
ENDBRANCH  12  17
BRANCH  13  19
ATOM     19  O   UNL     1       2.482   3.424  16.931  0.00  0.00    +0.000 OA
ATOM     20  C   UNL     1       2.507   2.201  17.653  0.00  0.00    +0.000 C 
ENDBRANCH  13  19
ENDBRANCH   5   9
BRANCH   1  21
ATOM     21  C   UNL     1       0.485  11.114  18.493  0.00  0.00    +0.000 C 
BRANCH  21  22
ATOM     22  C   UNL     1       1.627  12.120  18.351  0.00  0.00    +0.000 C 
ATOM     23  O   UNL     1       2.746  11.800  17.952  0.00  0.00    +0.000 OA
BRANCH  22  27
ATOM     24  C   UNL     1       0.822  16.240  19.343  0.00  0.00    +0.000 A 
ATOM     25  C   UNL     1      -0.187  15.408  18.857  0.00  0.00    +0.000 A 
ATOM     26  C   UNL     1       0.070  14.062  18.574  0.00  0.00    +0.000 A 
ATOM     27  C   UNL     1       1.356  13.538  18.750  0.00  0.00    +0.000 A 
ATOM     28  C   UNL     1       2.362  14.372  19.256  0.00  0.00    +0.000 A 
ATOM     29  C   UNL     1       2.097  15.716  19.547  0.00  0.00    +0.000 A 
BRANCH  24  31
ATOM     30  C   UNL     1      -0.581  17.776  20.480  0.00  0.00    +0.000 C 
ATOM     31  O   UNL     1       0.461  17.544  19.538  0.00  0.00    +0.000 OA
ENDBRANCH  24  31
ENDBRANCH  22  27
ENDBRANCH  21  22
ENDBRANCH   1  21
TORSDOF 8
ENDMDL
MODEL 9
REMARK VINA RESULT:      -6.3      2.947      9.967
REMARK  Name = 
REMARK  12 active torsions:
REMARK  status: ('A' for Active; 'I' for Inactive)
REMARK    1  A    between atoms: C_1  and  O_2
REMARK    2  A    between atoms: O_2  and  C_3
REMARK    3  A    between atoms: C_6  and  C_7
REMARK    4  A    between atoms: C_7  and  C_9
REMARK    5  A    between atoms: C_9  and  N_10
REMARK    6  A    between atoms: C_14  and  C_15
REMARK    7  A    between atoms: C_17  and  O_18
REMARK    8  A    between atoms: O_18  and  C_19
REMARK    9  A    between atoms: C_20  and  O_21
REMARK   10  A    between atoms: O_21  and  C_22
REMARK   11  A    between atoms: C_23  and  O_24
REMARK   12  A    between atoms: O_24  and  C_25
REMARK                            x       y       z     vdW  Elec       q    Type
REMARK                         _______ _______ _______ _____ _____    ______ ____
ROOT
ATOM      1  N   UNL     1       0.032  11.868  18.997  0.00  0.00    +0.000 N 
ATOM      2  C   UNL     1      -1.229  12.230  19.435  0.00  0.00    +0.000 C 
ATOM      3  O   UNL     1      -2.190  11.477  19.494  0.00  0.00    +0.000 OA
ATOM      4  C   UNL     1      -1.271  13.689  19.736  0.00  0.00    +0.000 C 
ATOM      5  C   UNL     1      -2.239  14.361  20.367  0.00  0.00    +0.000 C 
ATOM      6  S   UNL     1       0.202  14.427  19.220  0.00  0.00    +0.000 S 
ATOM      7  C   UNL     1       0.945  12.882  18.820  0.00  0.00    +0.000 C 
ATOM      8  S   UNL     1       2.515  12.769  18.267  0.00  0.00    +0.000 S 
ENDROOT
BRANCH   5   9
ATOM      9  C   UNL     1      -3.414  13.733  20.975  0.00  0.00    +0.000 A 
ATOM     10  C   UNL     1      -4.615  13.742  20.267  0.00  0.00    +0.000 A 
ATOM     11  C   UNL     1      -5.761  13.154  20.807  0.00  0.00    +0.000 A 
ATOM     12  C   UNL     1      -5.712  12.572  22.093  0.00  0.00    +0.000 A 
ATOM     13  C   UNL     1      -4.503  12.590  22.825  0.00  0.00    +0.000 A 
ATOM     14  C   UNL     1      -3.359  13.161  22.246  0.00  0.00    +0.000 A 
BRANCH  11  15
ATOM     15  O   UNL     1      -6.968  13.124  20.147  0.00  0.00    +0.000 OA
ATOM     16  C   UNL     1      -7.133  12.085  19.186  0.00  0.00    +0.000 C 
ENDBRANCH  11  15
BRANCH  12  17
ATOM     17  O   UNL     1      -6.911  12.080  22.559  0.00  0.00    +0.000 OA
ATOM     18  C   UNL     1      -7.626  12.897  23.478  0.00  0.00    +0.000 C 
ENDBRANCH  12  17
BRANCH  13  19
ATOM     19  O   UNL     1      -4.512  12.068  24.093  0.00  0.00    +0.000 OA
ATOM     20  C   UNL     1      -4.024  12.876  25.155  0.00  0.00    +0.000 C 
ENDBRANCH  13  19
ENDBRANCH   5   9
BRANCH   1  21
ATOM     21  C   UNL     1       0.276  10.452  18.737  0.00  0.00    +0.000 C 
BRANCH  21  22
ATOM     22  C   UNL     1       0.904   9.764  19.949  0.00  0.00    +0.000 C 
ATOM     23  O   UNL     1       0.929  10.281  21.065  0.00  0.00    +0.000 OA
BRANCH  22  27
ATOM     24  C   UNL     1       2.604   5.867  19.223  0.00  0.00    +0.000 A 
ATOM     25  C   UNL     1       2.646   6.862  18.245  0.00  0.00    +0.000 A 
ATOM     26  C   UNL     1       2.128   8.136  18.500  0.00  0.00    +0.000 A 
ATOM     27  C   UNL     1       1.535   8.422  19.735  0.00  0.00    +0.000 A 
ATOM     28  C   UNL     1       1.512   7.426  20.721  0.00  0.00    +0.000 A 
ATOM     29  C   UNL     1       2.041   6.155  20.464  0.00  0.00    +0.000 A 
BRANCH  24  31
ATOM     30  C   UNL     1       2.719   4.194  17.547  0.00  0.00    +0.000 C 
ATOM     31  O   UNL     1       3.099   4.651  18.841  0.00  0.00    +0.000 OA
ENDBRANCH  24  31
ENDBRANCH  22  27
ENDBRANCH  21  22
ENDBRANCH   1  21
TORSDOF 8
ENDMDL
