MODEL 1
REMARK VINA RESULT:      -8.2      0.000      0.000
REMARK  Name = 
REMARK  5 active torsions:
REMARK  status: ('A' for Active; 'I' for Inactive)
REMARK    1  A    between atoms: N_2  and  C_4
REMARK    2  A    between atoms: C_6  and  C_7
REMARK    3  A    between atoms: N_8  and  N_9
REMARK    4  A    between atoms: C_19  and  O_20
REMARK    5  A    between atoms: C_22  and  O_23
REMARK                            x       y       z     vdW  Elec       q    Type
REMARK                         _______ _______ _______ _____ _____    ______ ____
ROOT
ATOM      1  C   UNL     1       2.308   7.642  18.329  0.00  0.00    +0.000 C 
ATOM      2  N   UNL     1       2.380   8.825  17.797  0.00  0.00    +0.000 NA
ENDROOT
BRANCH   2   3
ATOM      3  N   UNL     1       1.249   9.593  17.899  0.00  0.00    +0.000 N 
ATOM      4  C   UNL     1       0.602   9.890  19.055  0.00  0.00    +0.000 A 
ATOM      5  N   UNL     1       0.694   9.321  20.237  0.00  0.00    +0.000 NA
ATOM      6  C   UNL     1      -0.087  10.078  21.072  0.00  0.00    +0.000 A 
ATOM      7  C   UNL     1      -0.350   9.918  22.439  0.00  0.00    +0.000 A 
ATOM      8  C   UNL     1      -1.154  10.867  23.080  0.00  0.00    +0.000 A 
ATOM      9  C   UNL     1      -1.678  11.955  22.376  0.00  0.00    +0.000 A 
ATOM     10  C   UNL     1      -1.432  12.127  21.009  0.00  0.00    +0.000 A 
ATOM     11  C   UNL     1      -0.642  11.156  20.392  0.00  0.00    +0.000 A 
ATOM     12  N   UNL     1      -0.211  10.992  19.101  0.00  0.00    +0.000 N 
ATOM     13  H   UNL     1       0.668   9.569  17.061  0.00  0.00    +0.000 HD
ATOM     14  H   UNL     1      -0.369  11.628  18.337  0.00  0.00    +0.000 HD
ENDBRANCH   2   3
BRANCH   1  17
ATOM     15  C   UNL     1       5.420   5.896  17.204  0.00  0.00    +0.000 A 
ATOM     16  C   UNL     1       4.345   6.790  17.245  0.00  0.00    +0.000 A 
ATOM     17  C   UNL     1       3.458   6.722  18.323  0.00  0.00    +0.000 A 
ATOM     18  C   UNL     1       3.661   5.773  19.336  0.00  0.00    +0.000 A 
ATOM     19  C   UNL     1       4.742   4.893  19.283  0.00  0.00    +0.000 A 
ATOM     20  C   UNL     1       5.631   4.954  18.212  0.00  0.00    +0.000 A 
BRANCH  15  22
ATOM     21  O   UNL     1       7.496   6.241  16.296  0.00  0.00    +0.000 OA
ATOM     22  N   UNL     1       6.310   5.961  16.063  0.00  0.00    +0.000 N 
ATOM     23  O   UNL     1       5.813   5.808  14.941  0.00  0.00    +0.000 OA
ENDBRANCH  15  22
BRANCH  18  24
ATOM     24  O   UNL     1       2.825   5.649  20.412  0.00  0.00    +0.000 OA
ATOM     25  H   UNL     1       3.003   6.406  21.015  0.00  0.00    +0.000 HD
ENDBRANCH  18  24
BRANCH  20  26
ATOM     26  O   UNL     1       6.705   4.115  18.173  0.00  0.00    +0.000 OA
ATOM     27  H   UNL     1       6.471   3.304  17.688  0.00  0.00    +0.000 HD
ENDBRANCH  20  26
ENDBRANCH   1  17
TORSDOF 5
ENDMDL
MODEL 2
REMARK VINA RESULT:      -8.0      1.251      1.441
REMARK  Name = 
REMARK  5 active torsions:
REMARK  status: ('A' for Active; 'I' for Inactive)
REMARK    1  A    between atoms: N_2  and  C_4
REMARK    2  A    between atoms: C_6  and  C_7
REMARK    3  A    between atoms: N_8  and  N_9
REMARK    4  A    between atoms: C_19  and  O_20
REMARK    5  A    between atoms: C_22  and  O_23
REMARK                            x       y       z     vdW  Elec       q    Type
REMARK                         _______ _______ _______ _____ _____    ______ ____
ROOT
ATOM      1  C   UNL     1       3.381   7.100  17.351  0.00  0.00    +0.000 C 
ATOM      2  N   UNL     1       3.087   7.824  18.388  0.00  0.00    +0.000 NA
ENDROOT
BRANCH   2   3
ATOM      3  N   UNL     1       1.901   8.506  18.320  0.00  0.00    +0.000 N 
ATOM      4  C   UNL     1       1.195   8.965  19.386  0.00  0.00    +0.000 A 
ATOM      5  N   UNL     1       1.289   8.641  20.656  0.00  0.00    +0.000 NA
ATOM      6  C   UNL     1       0.428   9.478  21.316  0.00  0.00    +0.000 A 
ATOM      7  C   UNL     1       0.133   9.561  22.684  0.00  0.00    +0.000 A 
ATOM      8  C   UNL     1      -0.760  10.548  23.116  0.00  0.00    +0.000 A 
ATOM      9  C   UNL     1      -1.339  11.438  22.207  0.00  0.00    +0.000 A 
ATOM     10  C   UNL     1      -1.061  11.367  20.837  0.00  0.00    +0.000 A 
ATOM     11  C   UNL     1      -0.182  10.361  20.432  0.00  0.00    +0.000 A 
ATOM     12  N   UNL     1       0.303   9.989  19.205  0.00  0.00    +0.000 N 
ATOM     13  H   UNL     1       1.350   8.278  17.491  0.00  0.00    +0.000 HD
ATOM     14  H   UNL     1       0.124  10.454  18.330  0.00  0.00    +0.000 HD
ENDBRANCH   2   3
BRANCH   1  17
ATOM     15  C   UNL     1       6.349   5.278  15.982  0.00  0.00    +0.000 A 
ATOM     16  C   UNL     1       5.207   6.082  16.054  0.00  0.00    +0.000 A 
ATOM     17  C   UNL     1       4.608   6.286  17.300  0.00  0.00    +0.000 A 
ATOM     18  C   UNL     1       5.160   5.694  18.446  0.00  0.00    +0.000 A 
ATOM     19  C   UNL     1       6.304   4.901  18.358  0.00  0.00    +0.000 A 
ATOM     20  C   UNL     1       6.907   4.691  17.119  0.00  0.00    +0.000 A 
BRANCH  15  22
ATOM     21  O   UNL     1       7.999   5.643  14.434  0.00  0.00    +0.000 OA
ATOM     22  N   UNL     1       6.937   5.052  14.678  0.00  0.00    +0.000 N 
ATOM     23  O   UNL     1       6.304   4.351  13.880  0.00  0.00    +0.000 OA
ENDBRANCH  15  22
BRANCH  18  24
ATOM     24  O   UNL     1       4.617   5.847  19.692  0.00  0.00    +0.000 OA
ATOM     25  H   UNL     1       3.640   5.885  19.587  0.00  0.00    +0.000 HD
ENDBRANCH  18  24
BRANCH  20  26
ATOM     26  O   UNL     1       8.041   3.940  17.036  0.00  0.00    +0.000 OA
ATOM     27  H   UNL     1       8.048   3.446  16.198  0.00  0.00    +0.000 HD
ENDBRANCH  20  26
ENDBRANCH   1  17
TORSDOF 5
ENDMDL
MODEL 3
REMARK VINA RESULT:      -8.0      1.096      1.272
REMARK  Name = 
REMARK  5 active torsions:
REMARK  status: ('A' for Active; 'I' for Inactive)
REMARK    1  A    between atoms: N_2  and  C_4
REMARK    2  A    between atoms: C_6  and  C_7
REMARK    3  A    between atoms: N_8  and  N_9
REMARK    4  A    between atoms: C_19  and  O_20
REMARK    5  A    between atoms: C_22  and  O_23
REMARK                            x       y       z     vdW  Elec       q    Type
REMARK                         _______ _______ _______ _____ _____    ______ ____
ROOT
ATOM      1  C   UNL     1       2.332   7.638  17.952  0.00  0.00    +0.000 C 
ATOM      2  N   UNL     1       2.478   8.851  17.512  0.00  0.00    +0.000 NA
ENDROOT
BRANCH   2   3
ATOM      3  N   UNL     1       1.457   9.717  17.805  0.00  0.00    +0.000 N 
ATOM      4  C   UNL     1       0.860   9.847  19.018  0.00  0.00    +0.000 A 
ATOM      5  N   UNL     1       0.885   9.041  20.055  0.00  0.00    +0.000 NA
ATOM      6  C   UNL     1       0.213   9.701  21.051  0.00  0.00    +0.000 A 
ATOM      7  C   UNL     1      -0.060   9.296  22.365  0.00  0.00    +0.000 A 
ATOM      8  C   UNL     1      -0.731  10.186  23.212  0.00  0.00    +0.000 A 
ATOM      9  C   UNL     1      -1.114  11.452  22.762  0.00  0.00    +0.000 A 
ATOM     10  C   UNL     1      -0.856  11.871  21.451  0.00  0.00    +0.000 A 
ATOM     11  C   UNL     1      -0.202  10.957  20.624  0.00  0.00    +0.000 A 
ATOM     12  N   UNL     1       0.197  11.010  19.313  0.00  0.00    +0.000 N 
ATOM     13  H   UNL     1       0.872   9.939  16.998  0.00  0.00    +0.000 HD
ATOM     14  H   UNL     1       0.118  11.805  18.700  0.00  0.00    +0.000 HD
ENDBRANCH   2   3
BRANCH   1  17
ATOM     15  C   UNL     1       5.662   6.079  17.257  0.00  0.00    +0.000 A 
ATOM     16  C   UNL     1       4.675   7.039  17.501  0.00  0.00    +0.000 A 
ATOM     17  C   UNL     1       3.367   6.611  17.741  0.00  0.00    +0.000 A 
ATOM     18  C   UNL     1       3.069   5.240  17.738  0.00  0.00    +0.000 A 
ATOM     19  C   UNL     1       4.066   4.294  17.500  0.00  0.00    +0.000 A 
ATOM     20  C   UNL     1       5.374   4.712  17.260  0.00  0.00    +0.000 A 
BRANCH  15  22
ATOM     21  O   UNL     1       7.540   6.116  15.946  0.00  0.00    +0.000 OA
ATOM     22  N   UNL     1       7.005   6.543  16.980  0.00  0.00    +0.000 N 
ATOM     23  O   UNL     1       7.546   7.266  17.825  0.00  0.00    +0.000 OA
ENDBRANCH  15  22
BRANCH  18  24
ATOM     24  O   UNL     1       1.808   4.756  17.956  0.00  0.00    +0.000 OA
ATOM     25  H   UNL     1       1.578   4.173  17.197  0.00  0.00    +0.000 HD
ENDBRANCH  18  24
BRANCH  20  26
ATOM     26  O   UNL     1       6.355   3.789  17.056  0.00  0.00    +0.000 OA
ATOM     27  H   UNL     1       7.095   4.196  16.574  0.00  0.00    +0.000 HD
ENDBRANCH  20  26
ENDBRANCH   1  17
TORSDOF 5
ENDMDL
MODEL 4
REMARK VINA RESULT:      -7.8      1.817      2.545
REMARK  Name = 
REMARK  5 active torsions:
REMARK  status: ('A' for Active; 'I' for Inactive)
REMARK    1  A    between atoms: N_2  and  C_4
REMARK    2  A    between atoms: C_6  and  C_7
REMARK    3  A    between atoms: N_8  and  N_9
REMARK    4  A    between atoms: C_19  and  O_20
REMARK    5  A    between atoms: C_22  and  O_23
REMARK                            x       y       z     vdW  Elec       q    Type
REMARK                         _______ _______ _______ _____ _____    ______ ____
ROOT
ATOM      1  C   UNL     1       3.085   5.666  20.100  0.00  0.00    +0.000 C 
ATOM      2  N   UNL     1       2.132   6.533  19.930  0.00  0.00    +0.000 NA
ENDROOT
BRANCH   2   3
ATOM      3  N   UNL     1       1.582   7.044  21.076  0.00  0.00    +0.000 N 
ATOM      4  C   UNL     1       1.195   8.334  21.255  0.00  0.00    +0.000 A 
ATOM      5  N   UNL     1       1.498   9.405  20.556  0.00  0.00    +0.000 NA
ATOM      6  C   UNL     1       0.754  10.421  21.097  0.00  0.00    +0.000 A 
ATOM      7  C   UNL     1       0.694  11.774  20.737  0.00  0.00    +0.000 A 
ATOM      8  C   UNL     1      -0.194  12.609  21.424  0.00  0.00    +0.000 A 
ATOM      9  C   UNL     1      -1.010  12.105  22.441  0.00  0.00    +0.000 A 
ATOM     10  C   UNL     1      -0.959  10.758  22.818  0.00  0.00    +0.000 A 
ATOM     11  C   UNL     1      -0.052   9.953  22.129  0.00  0.00    +0.000 A 
ATOM     12  N   UNL     1       0.275   8.625  22.228  0.00  0.00    +0.000 N 
ATOM     13  H   UNL     1       1.875   6.550  21.920  0.00  0.00    +0.000 HD
ATOM     14  H   UNL     1      -0.162   7.950  22.834  0.00  0.00    +0.000 HD
ENDBRANCH   2   3
BRANCH   1  17
ATOM     15  C   UNL     1       5.837   4.761  17.733  0.00  0.00    +0.000 A 
ATOM     16  C   UNL     1       5.161   5.295  18.834  0.00  0.00    +0.000 A 
ATOM     17  C   UNL     1       3.789   5.060  18.957  0.00  0.00    +0.000 A 
ATOM     18  C   UNL     1       3.121   4.297  17.987  0.00  0.00    +0.000 A 
ATOM     19  C   UNL     1       3.812   3.766  16.898  0.00  0.00    +0.000 A 
ATOM     20  C   UNL     1       5.181   3.995  16.768  0.00  0.00    +0.000 A 
BRANCH  15  22
ATOM     21  O   UNL     1       7.590   5.805  16.690  0.00  0.00    +0.000 OA
ATOM     22  N   UNL     1       7.253   5.041  17.607  0.00  0.00    +0.000 N 
ATOM     23  O   UNL     1       8.024   4.444  18.367  0.00  0.00    +0.000 OA
ENDBRANCH  15  22
BRANCH  18  24
ATOM     24  O   UNL     1       1.779   4.039  18.043  0.00  0.00    +0.000 OA
ATOM     25  H   UNL     1       1.622   3.184  17.582  0.00  0.00    +0.000 HD
ENDBRANCH  18  24
BRANCH  20  26
ATOM     26  O   UNL     1       5.863   3.452  15.720  0.00  0.00    +0.000 OA
ATOM     27  H   UNL     1       6.426   4.130  15.307  0.00  0.00    +0.000 HD
ENDBRANCH  20  26
ENDBRANCH   1  17
TORSDOF 5
ENDMDL
MODEL 5
REMARK VINA RESULT:      -7.8      2.273      3.517
REMARK  Name = 
REMARK  5 active torsions:
REMARK  status: ('A' for Active; 'I' for Inactive)
REMARK    1  A    between atoms: N_2  and  C_4
REMARK    2  A    between atoms: C_6  and  C_7
REMARK    3  A    between atoms: N_8  and  N_9
REMARK    4  A    between atoms: C_19  and  O_20
REMARK    5  A    between atoms: C_22  and  O_23
REMARK                            x       y       z     vdW  Elec       q    Type
REMARK                         _______ _______ _______ _____ _____    ______ ____
ROOT
ATOM      1  C   UNL     1       2.316   6.782  18.130  0.00  0.00    +0.000 C 
ATOM      2  N   UNL     1       2.898   7.942  18.083  0.00  0.00    +0.000 NA
ENDROOT
BRANCH   2   3
ATOM      3  N   UNL     1       2.109   8.988  17.682  0.00  0.00    +0.000 N 
ATOM      4  C   UNL     1       1.332   9.745  18.499  0.00  0.00    +0.000 A 
ATOM      5  N   UNL     1       0.925   9.508  19.726  0.00  0.00    +0.000 NA
ATOM      6  C   UNL     1       0.265  10.642  20.121  0.00  0.00    +0.000 A 
ATOM      7  C   UNL     1      -0.372  10.928  21.337  0.00  0.00    +0.000 A 
ATOM      8  C   UNL     1      -0.939  12.195  21.511  0.00  0.00    +0.000 A 
ATOM      9  C   UNL     1      -0.868  13.158  20.500  0.00  0.00    +0.000 A 
ATOM     10  C   UNL     1      -0.243  12.888  19.278  0.00  0.00    +0.000 A 
ATOM     11  C   UNL     1       0.299  11.611  19.125  0.00  0.00    +0.000 A 
ATOM     12  N   UNL     1       0.958  10.999  18.090  0.00  0.00    +0.000 N 
ATOM     13  H   UNL     1       1.784   8.902  16.718  0.00  0.00    +0.000 HD
ATOM     14  H   UNL     1       1.223  11.428  17.218  0.00  0.00    +0.000 HD
ENDBRANCH   2   3
BRANCH   1  17
ATOM     15  C   UNL     1       3.068   3.595  19.941  0.00  0.00    +0.000 A 
ATOM     16  C   UNL     1       2.386   4.723  19.475  0.00  0.00    +0.000 A 
ATOM     17  C   UNL     1       3.034   5.575  18.577  0.00  0.00    +0.000 A 
ATOM     18  C   UNL     1       4.341   5.286  18.158  0.00  0.00    +0.000 A 
ATOM     19  C   UNL     1       5.005   4.152  18.627  0.00  0.00    +0.000 A 
ATOM     20  C   UNL     1       4.367   3.297  19.523  0.00  0.00    +0.000 A 
BRANCH  15  22
ATOM     21  O   UNL     1       1.209   2.459  20.652  0.00  0.00    +0.000 OA
ATOM     22  N   UNL     1       2.392   2.741  20.896  0.00  0.00    +0.000 N 
ATOM     23  O   UNL     1       3.014   2.419  21.915  0.00  0.00    +0.000 OA
ENDBRANCH  15  22
BRANCH  18  24
ATOM     24  O   UNL     1       5.034   6.083  17.289  0.00  0.00    +0.000 OA
ATOM     25  H   UNL     1       4.649   5.950  16.393  0.00  0.00    +0.000 HD
ENDBRANCH  18  24
BRANCH  20  26
ATOM     26  O   UNL     1       5.004   2.174  19.960  0.00  0.00    +0.000 OA
ATOM     27  H   UNL     1       5.795   2.421  20.469  0.00  0.00    +0.000 HD
ENDBRANCH  20  26
ENDBRANCH   1  17
TORSDOF 5
ENDMDL
MODEL 6
REMARK VINA RESULT:      -7.8      2.077      2.607
REMARK  Name = 
REMARK  5 active torsions:
REMARK  status: ('A' for Active; 'I' for Inactive)
REMARK    1  A    between atoms: N_2  and  C_4
REMARK    2  A    between atoms: C_6  and  C_7
REMARK    3  A    between atoms: N_8  and  N_9
REMARK    4  A    between atoms: C_19  and  O_20
REMARK    5  A    between atoms: C_22  and  O_23
REMARK                            x       y       z     vdW  Elec       q    Type
REMARK                         _______ _______ _______ _____ _____    ______ ____
ROOT
ATOM      1  C   UNL     1       3.009   7.991  18.078  0.00  0.00    +0.000 C 
ATOM      2  N   UNL     1       1.779   8.268  17.766  0.00  0.00    +0.000 NA
ENDROOT
BRANCH   2   3
ATOM      3  N   UNL     1       1.319   9.489  18.186  0.00  0.00    +0.000 N 
ATOM      4  C   UNL     1       0.043   9.936  18.057  0.00  0.00    +0.000 A 
ATOM      5  N   UNL     1      -0.927   9.490  17.290  0.00  0.00    +0.000 NA
ATOM      6  C   UNL     1      -2.033  10.225  17.631  0.00  0.00    +0.000 A 
ATOM      7  C   UNL     1      -3.338  10.166  17.121  0.00  0.00    +0.000 A 
ATOM      8  C   UNL     1      -4.311  11.003  17.678  0.00  0.00    +0.000 A 
ATOM      9  C   UNL     1      -3.993  11.873  18.725  0.00  0.00    +0.000 A 
ATOM     10  C   UNL     1      -2.695  11.951  19.242  0.00  0.00    +0.000 A 
ATOM     11  C   UNL     1      -1.741  11.118  18.655  0.00  0.00    +0.000 A 
ATOM     12  N   UNL     1      -0.402  10.933  18.884  0.00  0.00    +0.000 N 
ATOM     13  H   UNL     1       2.041  10.210  18.197  0.00  0.00    +0.000 HD
ATOM     14  H   UNL     1       0.143  11.372  19.609  0.00  0.00    +0.000 HD
ENDBRANCH   2   3
BRANCH   1  17
ATOM     15  C   UNL     1       5.436   5.619  16.502  0.00  0.00    +0.000 A 
ATOM     16  C   UNL     1       4.839   6.806  16.940  0.00  0.00    +0.000 A 
ATOM     17  C   UNL     1       3.645   6.729  17.662  0.00  0.00    +0.000 A 
ATOM     18  C   UNL     1       3.073   5.478  17.936  0.00  0.00    +0.000 A 
ATOM     19  C   UNL     1       3.684   4.303  17.498  0.00  0.00    +0.000 A 
ATOM     20  C   UNL     1       4.876   4.370  16.777  0.00  0.00    +0.000 A 
BRANCH  15  22
ATOM     21  O   UNL     1       7.613   6.296  16.268  0.00  0.00    +0.000 OA
ATOM     22  N   UNL     1       6.656   5.720  15.728  0.00  0.00    +0.000 N 
ATOM     23  O   UNL     1       6.633   5.296  14.567  0.00  0.00    +0.000 OA
ENDBRANCH  15  22
BRANCH  18  24
ATOM     24  O   UNL     1       1.902   5.335  18.629  0.00  0.00    +0.000 OA
ATOM     25  H   UNL     1       1.679   6.211  19.018  0.00  0.00    +0.000 HD
ENDBRANCH  18  24
BRANCH  20  26
ATOM     26  O   UNL     1       5.489   3.222  16.373  0.00  0.00    +0.000 OA
ATOM     27  H   UNL     1       5.169   2.473  16.904  0.00  0.00    +0.000 HD
ENDBRANCH  20  26
ENDBRANCH   1  17
TORSDOF 5
ENDMDL
MODEL 7
REMARK VINA RESULT:      -7.8      7.282     10.034
REMARK  Name = 
REMARK  5 active torsions:
REMARK  status: ('A' for Active; 'I' for Inactive)
REMARK    1  A    between atoms: N_2  and  C_4
REMARK    2  A    between atoms: C_6  and  C_7
REMARK    3  A    between atoms: N_8  and  N_9
REMARK    4  A    between atoms: C_19  and  O_20
REMARK    5  A    between atoms: C_22  and  O_23
REMARK                            x       y       z     vdW  Elec       q    Type
REMARK                         _______ _______ _______ _____ _____    ______ ____
ROOT
ATOM      1  C   UNL     1       9.712  11.244  18.914  0.00  0.00    +0.000 C 
ATOM      2  N   UNL     1       9.366  10.249  18.154  0.00  0.00    +0.000 NA
ENDROOT
BRANCH   2   3
ATOM      3  N   UNL     1       8.987   9.105  18.807  0.00  0.00    +0.000 N 
ATOM      4  C   UNL     1       8.134   8.167  18.319  0.00  0.00    +0.000 A 
ATOM      5  N   UNL     1       7.283   8.246  17.320  0.00  0.00    +0.000 NA
ATOM      6  C   UNL     1       6.758   6.988  17.183  0.00  0.00    +0.000 A 
ATOM      7  C   UNL     1       5.803   6.512  16.274  0.00  0.00    +0.000 A 
ATOM      8  C   UNL     1       5.466   5.154  16.309  0.00  0.00    +0.000 A 
ATOM      9  C   UNL     1       6.073   4.289  17.224  0.00  0.00    +0.000 A 
ATOM     10  C   UNL     1       7.024   4.747  18.143  0.00  0.00    +0.000 A 
ATOM     11  C   UNL     1       7.327   6.108  18.097  0.00  0.00    +0.000 A 
ATOM     12  N   UNL     1       8.177   6.896  18.829  0.00  0.00    +0.000 N 
ATOM     13  H   UNL     1       9.012   9.193  19.824  0.00  0.00    +0.000 HD
ATOM     14  H   UNL     1       8.810   6.581  19.547  0.00  0.00    +0.000 HD
ENDBRANCH   2   3
BRANCH   1  17
ATOM     15  C   UNL     1       9.612  14.873  18.010  0.00  0.00    +0.000 A 
ATOM     16  C   UNL     1       9.271  13.639  18.573  0.00  0.00    +0.000 A 
ATOM     17  C   UNL     1      10.110  12.545  18.349  0.00  0.00    +0.000 A 
ATOM     18  C   UNL     1      11.270  12.700  17.575  0.00  0.00    +0.000 A 
ATOM     19  C   UNL     1      11.600  13.939  17.026  0.00  0.00    +0.000 A 
ATOM     20  C   UNL     1      10.768  15.036  17.244  0.00  0.00    +0.000 A 
BRANCH  15  22
ATOM     21  O   UNL     1       7.534  15.831  17.878  0.00  0.00    +0.000 OA
ATOM     22  N   UNL     1       8.714  15.988  18.227  0.00  0.00    +0.000 N 
ATOM     23  O   UNL     1       9.200  17.035  18.671  0.00  0.00    +0.000 OA
ENDBRANCH  15  22
BRANCH  18  24
ATOM     24  O   UNL     1      12.127  11.667  17.310  0.00  0.00    +0.000 OA
ATOM     25  H   UNL     1      12.985  11.875  17.746  0.00  0.00    +0.000 HD
ENDBRANCH  18  24
BRANCH  20  26
ATOM     26  O   UNL     1      11.104  16.254  16.732  0.00  0.00    +0.000 OA
ATOM     27  H   UNL     1      11.004  16.938  17.417  0.00  0.00    +0.000 HD
ENDBRANCH  20  26
ENDBRANCH   1  17
TORSDOF 5
ENDMDL
MODEL 8
REMARK VINA RESULT:      -7.8      1.853      2.619
REMARK  Name = 
REMARK  5 active torsions:
REMARK  status: ('A' for Active; 'I' for Inactive)
REMARK    1  A    between atoms: N_2  and  C_4
REMARK    2  A    between atoms: C_6  and  C_7
REMARK    3  A    between atoms: N_8  and  N_9
REMARK    4  A    between atoms: C_19  and  O_20
REMARK    5  A    between atoms: C_22  and  O_23
REMARK                            x       y       z     vdW  Elec       q    Type
REMARK                         _______ _______ _______ _____ _____    ______ ____
ROOT
ATOM      1  C   UNL     1       3.368   6.332  19.557  0.00  0.00    +0.000 C 
ATOM      2  N   UNL     1       2.209   6.086  20.090  0.00  0.00    +0.000 NA
ENDROOT
BRANCH   2   3
ATOM      3  N   UNL     1       1.749   7.027  20.974  0.00  0.00    +0.000 N 
ATOM      4  C   UNL     1       1.274   8.254  20.639  0.00  0.00    +0.000 A 
ATOM      5  N   UNL     1       1.404   8.926  19.516  0.00  0.00    +0.000 NA
ATOM      6  C   UNL     1       0.640  10.053  19.670  0.00  0.00    +0.000 A 
ATOM      7  C   UNL     1       0.424  11.115  18.781  0.00  0.00    +0.000 A 
ATOM      8  C   UNL     1      -0.451  12.138  19.163  0.00  0.00    +0.000 A 
ATOM      9  C   UNL     1      -1.101  12.100  20.400  0.00  0.00    +0.000 A 
ATOM     10  C   UNL     1      -0.893  11.051  21.303  0.00  0.00    +0.000 A 
ATOM     11  C   UNL     1      -0.003  10.054  20.903  0.00  0.00    +0.000 A 
ATOM     12  N   UNL     1       0.446   8.911  21.512  0.00  0.00    +0.000 N 
ATOM     13  H   UNL     1       2.175   6.955  21.898  0.00  0.00    +0.000 HD
ATOM     14  H   UNL     1       0.139   8.551  22.401  0.00  0.00    +0.000 HD
ENDBRANCH   2   3
BRANCH   1  17
ATOM     15  C   UNL     1       5.952   4.546  17.524  0.00  0.00    +0.000 A 
ATOM     16  C   UNL     1       5.364   5.372  18.488  0.00  0.00    +0.000 A 
ATOM     17  C   UNL     1       3.969   5.424  18.565  0.00  0.00    +0.000 A 
ATOM     18  C   UNL     1       3.191   4.653  17.689  0.00  0.00    +0.000 A 
ATOM     19  C   UNL     1       3.793   3.830  16.738  0.00  0.00    +0.000 A 
ATOM     20  C   UNL     1       5.183   3.771  16.653  0.00  0.00    +0.000 A 
BRANCH  15  22
ATOM     21  O   UNL     1       8.020   4.557  18.510  0.00  0.00    +0.000 OA
ATOM     22  N   UNL     1       7.397   4.529  17.438  0.00  0.00    +0.000 N 
ATOM     23  O   UNL     1       7.903   4.563  16.310  0.00  0.00    +0.000 OA
ENDBRANCH  15  22
BRANCH  18  24
ATOM     24  O   UNL     1       1.824   4.667  17.706  0.00  0.00    +0.000 OA
ATOM     25  H   UNL     1       1.525   5.320  17.033  0.00  0.00    +0.000 HD
ENDBRANCH  18  24
BRANCH  20  26
ATOM     26  O   UNL     1       5.773   2.945  15.744  0.00  0.00    +0.000 OA
ATOM     27  H   UNL     1       6.119   2.154  16.193  0.00  0.00    +0.000 HD
ENDBRANCH  20  26
ENDBRANCH   1  17
TORSDOF 5
ENDMDL
MODEL 9
REMARK VINA RESULT:      -7.7      4.560      8.351
REMARK  Name = 
REMARK  5 active torsions:
REMARK  status: ('A' for Active; 'I' for Inactive)
REMARK    1  A    between atoms: N_2  and  C_4
REMARK    2  A    between atoms: C_6  and  C_7
REMARK    3  A    between atoms: N_8  and  N_9
REMARK    4  A    between atoms: C_19  and  O_20
REMARK    5  A    between atoms: C_22  and  O_23
REMARK                            x       y       z     vdW  Elec       q    Type
REMARK                         _______ _______ _______ _____ _____    ______ ____
ROOT
ATOM      1  C   UNL     1       0.924   9.304  19.870  0.00  0.00    +0.000 C 
ATOM      2  N   UNL     1       1.037   8.440  20.833  0.00  0.00    +0.000 NA
ENDROOT
BRANCH   2   3
ATOM      3  N   UNL     1       2.133   7.619  20.770  0.00  0.00    +0.000 N 
ATOM      4  C   UNL     1       2.106   6.293  20.478  0.00  0.00    +0.000 A 
ATOM      5  N   UNL     1       1.095   5.453  20.483  0.00  0.00    +0.000 NA
ATOM      6  C   UNL     1       1.594   4.270  20.004  0.00  0.00    +0.000 A 
ATOM      7  C   UNL     1       0.949   3.042  19.805  0.00  0.00    +0.000 A 
ATOM      8  C   UNL     1       1.680   1.986  19.252  0.00  0.00    +0.000 A 
ATOM      9  C   UNL     1       3.022   2.151  18.896  0.00  0.00    +0.000 A 
ATOM     10  C   UNL     1       3.684   3.368  19.094  0.00  0.00    +0.000 A 
ATOM     11  C   UNL     1       2.936   4.399  19.664  0.00  0.00    +0.000 A 
ATOM     12  N   UNL     1       3.243   5.690  20.007  0.00  0.00    +0.000 N 
ATOM     13  H   UNL     1       2.901   7.924  21.369  0.00  0.00    +0.000 HD
ATOM     14  H   UNL     1       4.121   6.156  19.842  0.00  0.00    +0.000 HD
ENDBRANCH   2   3
BRANCH   1  17
ATOM     15  C   UNL     1      -2.078  11.175  18.650  0.00  0.00    +0.000 A 
ATOM     16  C   UNL     1      -1.044  10.237  18.726  0.00  0.00    +0.000 A 
ATOM     17  C   UNL     1      -0.186  10.272  19.828  0.00  0.00    +0.000 A 
ATOM     18  C   UNL     1      -0.377  11.234  20.832  0.00  0.00    +0.000 A 
ATOM     19  C   UNL     1      -1.417  12.158  20.745  0.00  0.00    +0.000 A 
ATOM     20  C   UNL     1      -2.278  12.130  19.648  0.00  0.00    +0.000 A 
BRANCH  15  22
ATOM     21  O   UNL     1      -2.393  11.321  16.385  0.00  0.00    +0.000 OA
ATOM     22  N   UNL     1      -2.937  11.142  17.485  0.00  0.00    +0.000 N 
ATOM     23  O   UNL     1      -4.152  11.016  17.674  0.00  0.00    +0.000 OA
ENDBRANCH  15  22
BRANCH  18  24
ATOM     24  O   UNL     1       0.433  11.328  21.930  0.00  0.00    +0.000 OA
ATOM     25  H   UNL     1      -0.137  11.556  22.700  0.00  0.00    +0.000 HD
ENDBRANCH  18  24
BRANCH  20  26
ATOM     26  O   UNL     1      -3.313  13.014  19.576  0.00  0.00    +0.000 OA
ATOM     27  H   UNL     1      -3.430  13.309  18.656  0.00  0.00    +0.000 HD
ENDBRANCH  20  26
ENDBRANCH   1  17
TORSDOF 5
ENDMDL
