MODEL 1
REMARK VINA RESULT:      -8.5      0.000      0.000
REMARK  Name = 
REMARK  12 active torsions:
REMARK  status: ('A' for Active; 'I' for Inactive)
REMARK    1  A    between atoms: C_1  and  N_2
REMARK    2  A    between atoms: N_2  and  C_3
REMARK    3  A    between atoms: N_2  and  C_4
REMARK    4  A    between atoms: C_4  and  C_5
REMARK    5  A    between atoms: C_5  and  N_6
REMARK    6  A    between atoms: C_7  and  C_9
REMARK    7  A    between atoms: C_12  and  O_13
REMARK    8  A    between atoms: C_14  and  N_15
REMARK    9  A    between atoms: C_16  and  C_18
REMARK   10  A    between atoms: C_18  and  O_19
REMARK   11  A    between atoms: O_19  and  C_20
REMARK   12  A    between atoms: C_23  and  C_24
REMARK                            x       y       z     vdW  Elec       q    Type
REMARK                         _______ _______ _______ _____ _____    ______ ____
ROOT
ATOM      1  N   UNL     1      -1.388  11.116  18.873  0.00  0.00    +0.000 N 
ATOM      2  C   UNL     1      -0.507  12.127  19.267  0.00  0.00    +0.000 C 
ATOM      3  O   UNL     1      -0.715  13.338  19.219  0.00  0.00    +0.000 OA
ATOM      4  H   UNL     1      -1.201  10.201  19.259  0.00  0.00    +0.000 HD
ENDROOT
BRANCH   1   9
ATOM      5  C   UNL     1      -5.023  11.899  18.569  0.00  0.00    +0.000 A 
ATOM      6  C   UNL     1      -5.196  11.896  17.177  0.00  0.00    +0.000 A 
ATOM      7  C   UNL     1      -4.155  11.493  16.348  0.00  0.00    +0.000 A 
ATOM      8  C   UNL     1      -2.931  11.138  16.898  0.00  0.00    +0.000 A 
ATOM      9  C   UNL     1      -2.663  11.294  18.266  0.00  0.00    +0.000 A 
ATOM     10  C   UNL     1      -3.741  11.645  19.109  0.00  0.00    +0.000 A 
BRANCH   5  12
ATOM     11  N   UNL     1      -5.924  11.990  20.832  0.00  0.00    +0.000 N 
ATOM     12  C   UNL     1      -6.192  12.140  19.481  0.00  0.00    +0.000 C 
ATOM     13  O   UNL     1      -7.277  12.492  19.030  0.00  0.00    +0.000 OA
ATOM     14  H   UNL     1      -4.942  12.012  21.072  0.00  0.00    +0.000 HD
BRANCH  11  15
ATOM     15  C   UNL     1      -6.884  12.280  21.882  0.00  0.00    +0.000 C 
BRANCH  15  16
ATOM     16  C   UNL     1      -6.775  13.726  22.445  0.00  0.00    +0.000 C 
BRANCH  16  18
ATOM     17  C   UNL     1      -5.295  12.837  24.176  0.00  0.00    +0.000 C 
ATOM     18  N   UNL     1      -5.652  14.001  23.372  0.00  0.00    +0.000 NA
ATOM     19  C   UNL     1      -4.486  14.503  22.646  0.00  0.00    +0.000 C 
ENDBRANCH  16  18
ENDBRANCH  15  16
ENDBRANCH  11  15
ENDBRANCH   5  12
BRANCH   8  20
ATOM     20  O   UNL     1      -2.075  10.488  16.055  0.00  0.00    +0.000 OA
ATOM     21  H   UNL     1      -1.206  10.926  16.132  0.00  0.00    +0.000 HD
ENDBRANCH   8  20
ENDBRANCH   1   9
BRANCH   2  22
ATOM     22  C   UNL     1       0.779  11.570  19.886  0.00  0.00    +0.000 C 
BRANCH  22  23
ATOM     23  O   UNL     1       1.455  10.846  18.862  0.00  0.00    +0.000 OA
BRANCH  23  24
ATOM     24  C   UNL     1       1.574   9.496  19.035  0.00  0.00    +0.000 A 
ATOM     25  C   UNL     1       1.994   8.788  17.913  0.00  0.00    +0.000 A 
ATOM     26  C   UNL     1       2.218   7.407  17.976  0.00  0.00    +0.000 A 
ATOM     27  C   UNL     1       2.041   6.691  19.172  0.00  0.00    +0.000 A 
ATOM     28  C   UNL     1       1.617   7.426  20.295  0.00  0.00    +0.000 A 
ATOM     29  C   UNL     1       1.383   8.809  20.231  0.00  0.00    +0.000 A 
BRANCH  27  30
ATOM     30  C   UNL     1       2.276   5.174  19.269  0.00  0.00    +0.000 C 
ATOM     31  C   UNL     1       3.754   4.807  19.609  0.00  0.00    +0.000 C 
ATOM     32  C   UNL     1       3.966   3.288  19.676  0.00  0.00    +0.000 C 
ATOM     33  C   UNL     1       3.060   2.703  20.767  0.00  0.00    +0.000 C 
ATOM     34  C   UNL     1       1.591   3.006  20.442  0.00  0.00    +0.000 C 
ATOM     35  C   UNL     1       1.239   2.379  19.082  0.00  0.00    +0.000 C 
ATOM     36  C   UNL     1       2.137   2.969  17.982  0.00  0.00    +0.000 C 
ATOM     37  C   UNL     1       3.606   2.676  18.315  0.00  0.00    +0.000 C 
ATOM     38  C   UNL     1       1.922   4.492  17.913  0.00  0.00    +0.000 C 
ATOM     39  C   UNL     1       1.381   4.533  20.372  0.00  0.00    +0.000 C 
ENDBRANCH  27  30
ENDBRANCH  23  24
ENDBRANCH  22  23
ENDBRANCH   2  22
TORSDOF 10
ENDMDL
MODEL 2
REMARK VINA RESULT:      -8.4      2.912      5.412
REMARK  Name = 
REMARK  12 active torsions:
REMARK  status: ('A' for Active; 'I' for Inactive)
REMARK    1  A    between atoms: C_1  and  N_2
REMARK    2  A    between atoms: N_2  and  C_3
REMARK    3  A    between atoms: N_2  and  C_4
REMARK    4  A    between atoms: C_4  and  C_5
REMARK    5  A    between atoms: C_5  and  N_6
REMARK    6  A    between atoms: C_7  and  C_9
REMARK    7  A    between atoms: C_12  and  O_13
REMARK    8  A    between atoms: C_14  and  N_15
REMARK    9  A    between atoms: C_16  and  C_18
REMARK   10  A    between atoms: C_18  and  O_19
REMARK   11  A    between atoms: O_19  and  C_20
REMARK   12  A    between atoms: C_23  and  C_24
REMARK                            x       y       z     vdW  Elec       q    Type
REMARK                         _______ _______ _______ _____ _____    ______ ____
ROOT
ATOM      1  N   UNL     1      -1.012  10.695  18.359  0.00  0.00    +0.000 N 
ATOM      2  C   UNL     1      -0.132  11.704  18.757  0.00  0.00    +0.000 C 
ATOM      3  O   UNL     1      -0.278  12.913  18.586  0.00  0.00    +0.000 OA
ATOM      4  H   UNL     1      -0.908   9.811  18.838  0.00  0.00    +0.000 HD
ENDROOT
BRANCH   1   9
ATOM      5  C   UNL     1      -3.391  10.447  15.495  0.00  0.00    +0.000 A 
ATOM      6  C   UNL     1      -4.577  10.927  16.073  0.00  0.00    +0.000 A 
ATOM      7  C   UNL     1      -4.557  11.469  17.353  0.00  0.00    +0.000 A 
ATOM      8  C   UNL     1      -3.373  11.490  18.076  0.00  0.00    +0.000 A 
ATOM      9  C   UNL     1      -2.209  10.865  17.606  0.00  0.00    +0.000 A 
ATOM     10  C   UNL     1      -2.219  10.371  16.283  0.00  0.00    +0.000 A 
BRANCH   5  12
ATOM     11  N   UNL     1      -4.532  10.263  13.350  0.00  0.00    +0.000 N 
ATOM     12  C   UNL     1      -3.357  10.044  14.049  0.00  0.00    +0.000 C 
ATOM     13  O   UNL     1      -2.329   9.604  13.545  0.00  0.00    +0.000 OA
ATOM     14  H   UNL     1      -5.173  10.908  13.794  0.00  0.00    +0.000 HD
BRANCH  11  15
ATOM     15  C   UNL     1      -4.675  10.044  11.922  0.00  0.00    +0.000 C 
BRANCH  15  16
ATOM     16  C   UNL     1      -5.553   8.811  11.564  0.00  0.00    +0.000 C 
BRANCH  16  18
ATOM     17  C   UNL     1      -7.909   8.337  12.013  0.00  0.00    +0.000 C 
ATOM     18  N   UNL     1      -6.961   9.077  11.186  0.00  0.00    +0.000 NA
ATOM     19  C   UNL     1      -7.251  10.509  11.225  0.00  0.00    +0.000 C 
ENDBRANCH  16  18
ENDBRANCH  15  16
ENDBRANCH  11  15
ENDBRANCH   5  12
BRANCH   8  20
ATOM     20  O   UNL     1      -3.377  12.288  19.186  0.00  0.00    +0.000 OA
ATOM     21  H   UNL     1      -4.310  12.486  19.395  0.00  0.00    +0.000 HD
ENDBRANCH   8  20
ENDBRANCH   1   9
BRANCH   2  22
ATOM     22  C   UNL     1       1.056  11.157  19.556  0.00  0.00    +0.000 C 
BRANCH  22  23
ATOM     23  O   UNL     1       1.934  10.534  18.623  0.00  0.00    +0.000 OA
BRANCH  23  24
ATOM     24  C   UNL     1       2.069   9.178  18.711  0.00  0.00    +0.000 A 
ATOM     25  C   UNL     1       1.750   8.628  19.948  0.00  0.00    +0.000 A 
ATOM     26  C   UNL     1       1.785   7.243  20.151  0.00  0.00    +0.000 A 
ATOM     27  C   UNL     1       2.130   6.361  19.114  0.00  0.00    +0.000 A 
ATOM     28  C   UNL     1       2.449   6.936  17.870  0.00  0.00    +0.000 A 
ATOM     29  C   UNL     1       2.423   8.326  17.668  0.00  0.00    +0.000 A 
BRANCH  27  30
ATOM     30  C   UNL     1       2.180   4.835  19.309  0.00  0.00    +0.000 C 
ATOM     31  C   UNL     1       1.252   4.337  20.460  0.00  0.00    +0.000 C 
ATOM     32  C   UNL     1       1.340   2.816  20.650  0.00  0.00    +0.000 C 
ATOM     33  C   UNL     1       0.910   2.124  19.350  0.00  0.00    +0.000 C 
ATOM     34  C   UNL     1       1.832   2.556  18.201  0.00  0.00    +0.000 C 
ATOM     35  C   UNL     1       3.279   2.166  18.544  0.00  0.00    +0.000 C 
ATOM     36  C   UNL     1       3.719   2.865  19.842  0.00  0.00    +0.000 C 
ATOM     37  C   UNL     1       2.790   2.441  20.987  0.00  0.00    +0.000 C 
ATOM     38  C   UNL     1       3.633   4.390  19.650  0.00  0.00    +0.000 C 
ATOM     39  C   UNL     1       1.744   4.085  18.014  0.00  0.00    +0.000 C 
ENDBRANCH  27  30
ENDBRANCH  23  24
ENDBRANCH  22  23
ENDBRANCH   2  22
TORSDOF 10
ENDMDL
MODEL 3
REMARK VINA RESULT:      -8.4      6.521      9.383
REMARK  Name = 
REMARK  12 active torsions:
REMARK  status: ('A' for Active; 'I' for Inactive)
REMARK    1  A    between atoms: C_1  and  N_2
REMARK    2  A    between atoms: N_2  and  C_3
REMARK    3  A    between atoms: N_2  and  C_4
REMARK    4  A    between atoms: C_4  and  C_5
REMARK    5  A    between atoms: C_5  and  N_6
REMARK    6  A    between atoms: C_7  and  C_9
REMARK    7  A    between atoms: C_12  and  O_13
REMARK    8  A    between atoms: C_14  and  N_15
REMARK    9  A    between atoms: C_16  and  C_18
REMARK   10  A    between atoms: C_18  and  O_19
REMARK   11  A    between atoms: O_19  and  C_20
REMARK   12  A    between atoms: C_23  and  C_24
REMARK                            x       y       z     vdW  Elec       q    Type
REMARK                         _______ _______ _______ _____ _____    ______ ____
ROOT
ATOM      1  N   UNL     1       9.478  10.793  17.895  0.00  0.00    +0.000 N 
ATOM      2  C   UNL     1       9.216  10.076  19.066  0.00  0.00    +0.000 C 
ATOM      3  O   UNL     1       9.057  10.546  20.191  0.00  0.00    +0.000 OA
ATOM      4  H   UNL     1       9.272  10.308  17.032  0.00  0.00    +0.000 HD
ENDROOT
BRANCH   1   9
ATOM      5  C   UNL     1       8.712  14.445  17.915  0.00  0.00    +0.000 A 
ATOM      6  C   UNL     1       9.998  15.002  17.835  0.00  0.00    +0.000 A 
ATOM      7  C   UNL     1      11.100  14.181  17.625  0.00  0.00    +0.000 A 
ATOM      8  C   UNL     1      10.930  12.805  17.542  0.00  0.00    +0.000 A 
ATOM      9  C   UNL     1       9.691  12.197  17.791  0.00  0.00    +0.000 A 
ATOM     10  C   UNL     1       8.567  13.038  17.943  0.00  0.00    +0.000 A 
BRANCH   5  12
ATOM     11  N   UNL     1       6.287  14.669  17.828  0.00  0.00    +0.000 N 
ATOM     12  C   UNL     1       7.499  15.329  17.942  0.00  0.00    +0.000 C 
ATOM     13  O   UNL     1       7.610  16.540  18.106  0.00  0.00    +0.000 OA
ATOM     14  H   UNL     1       6.328  13.676  18.017  0.00  0.00    +0.000 HD
BRANCH  11  15
ATOM     15  C   UNL     1       4.997  15.326  17.939  0.00  0.00    +0.000 C 
BRANCH  15  16
ATOM     16  C   UNL     1       4.446  15.379  19.392  0.00  0.00    +0.000 C 
BRANCH  16  18
ATOM     17  C   UNL     1       2.505  14.236  18.442  0.00  0.00    +0.000 C 
ATOM     18  N   UNL     1       3.039  14.958  19.592  0.00  0.00    +0.000 NA
ATOM     19  C   UNL     1       2.899  14.162  20.810  0.00  0.00    +0.000 C 
ENDBRANCH  16  18
ENDBRANCH  15  16
ENDBRANCH  11  15
ENDBRANCH   5  12
BRANCH   8  20
ATOM     20  O   UNL     1      12.001  12.111  17.054  0.00  0.00    +0.000 OA
ATOM     21  H   UNL     1      12.712  12.171  17.720  0.00  0.00    +0.000 HD
ENDBRANCH   8  20
ENDBRANCH   1   9
BRANCH   2  22
ATOM     22  C   UNL     1       9.040   8.577  18.802  0.00  0.00    +0.000 C 
BRANCH  22  23
ATOM     23  O   UNL     1       8.164   8.450  17.686  0.00  0.00    +0.000 OA
BRANCH  23  24
ATOM     24  C   UNL     1       7.163   7.526  17.787  0.00  0.00    +0.000 A 
ATOM     25  C   UNL     1       7.428   6.452  18.629  0.00  0.00    +0.000 A 
ATOM     26  C   UNL     1       6.460   5.470  18.869  0.00  0.00    +0.000 A 
ATOM     27  C   UNL     1       5.186   5.539  18.282  0.00  0.00    +0.000 A 
ATOM     28  C   UNL     1       4.938   6.634  17.433  0.00  0.00    +0.000 A 
ATOM     29  C   UNL     1       5.911   7.615  17.184  0.00  0.00    +0.000 A 
BRANCH  27  30
ATOM     30  C   UNL     1       4.104   4.472  18.524  0.00  0.00    +0.000 C 
ATOM     31  C   UNL     1       4.613   3.273  19.384  0.00  0.00    +0.000 C 
ATOM     32  C   UNL     1       3.523   2.213  19.589  0.00  0.00    +0.000 C 
ATOM     33  C   UNL     1       2.331   2.853  20.313  0.00  0.00    +0.000 C 
ATOM     34  C   UNL     1       1.774   4.011  19.474  0.00  0.00    +0.000 C 
ATOM     35  C   UNL     1       1.323   3.469  18.107  0.00  0.00    +0.000 C 
ATOM     36  C   UNL     1       2.516   2.834  17.373  0.00  0.00    +0.000 C 
ATOM     37  C   UNL     1       3.079   1.684  18.219  0.00  0.00    +0.000 C 
ATOM     38  C   UNL     1       3.608   3.898  17.164  0.00  0.00    +0.000 C 
ATOM     39  C   UNL     1       2.873   5.075  19.265  0.00  0.00    +0.000 C 
ENDBRANCH  27  30
ENDBRANCH  23  24
ENDBRANCH  22  23
ENDBRANCH   2  22
TORSDOF 10
ENDMDL
MODEL 4
REMARK VINA RESULT:      -8.2      4.113      7.260
REMARK  Name = 
REMARK  12 active torsions:
REMARK  status: ('A' for Active; 'I' for Inactive)
REMARK    1  A    between atoms: C_1  and  N_2
REMARK    2  A    between atoms: N_2  and  C_3
REMARK    3  A    between atoms: N_2  and  C_4
REMARK    4  A    between atoms: C_4  and  C_5
REMARK    5  A    between atoms: C_5  and  N_6
REMARK    6  A    between atoms: C_7  and  C_9
REMARK    7  A    between atoms: C_12  and  O_13
REMARK    8  A    between atoms: C_14  and  N_15
REMARK    9  A    between atoms: C_16  and  C_18
REMARK   10  A    between atoms: C_18  and  O_19
REMARK   11  A    between atoms: O_19  and  C_20
REMARK   12  A    between atoms: C_23  and  C_24
REMARK                            x       y       z     vdW  Elec       q    Type
REMARK                         _______ _______ _______ _____ _____    ______ ____
ROOT
ATOM      1  N   UNL     1       0.526  12.948  19.664  0.00  0.00    +0.000 N 
ATOM      2  C   UNL     1      -0.431  12.115  19.078  0.00  0.00    +0.000 C 
ATOM      3  O   UNL     1      -1.109  12.367  18.083  0.00  0.00    +0.000 OA
ATOM      4  H   UNL     1       1.198  12.485  20.261  0.00  0.00    +0.000 HD
ENDROOT
BRANCH   1   9
ATOM      5  C   UNL     1       2.598  15.878  18.646  0.00  0.00    +0.000 A 
ATOM      6  C   UNL     1       1.611  16.808  18.283  0.00  0.00    +0.000 A 
ATOM      7  C   UNL     1       0.270  16.524  18.513  0.00  0.00    +0.000 A 
ATOM      8  C   UNL     1      -0.093  15.300  19.059  0.00  0.00    +0.000 A 
ATOM      9  C   UNL     1       0.845  14.279  19.272  0.00  0.00    +0.000 A 
ATOM     10  C   UNL     1       2.209  14.595  19.094  0.00  0.00    +0.000 A 
BRANCH   5  12
ATOM     11  N   UNL     1       4.905  15.226  18.209  0.00  0.00    +0.000 N 
ATOM     12  C   UNL     1       4.052  16.249  18.587  0.00  0.00    +0.000 C 
ATOM     13  O   UNL     1       4.415  17.399  18.814  0.00  0.00    +0.000 OA
ATOM     14  H   UNL     1       4.451  14.444  17.755  0.00  0.00    +0.000 HD
BRANCH  11  15
ATOM     15  C   UNL     1       6.329  15.402  17.988  0.00  0.00    +0.000 C 
BRANCH  15  16
ATOM     16  C   UNL     1       7.083  14.077  17.685  0.00  0.00    +0.000 C 
BRANCH  16  18
ATOM     17  C   UNL     1       9.507  14.237  17.959  0.00  0.00    +0.000 C 
ATOM     18  N   UNL     1       8.255  13.761  18.536  0.00  0.00    +0.000 NA
ATOM     19  C   UNL     1       8.076  14.289  19.888  0.00  0.00    +0.000 C 
ENDBRANCH  16  18
ENDBRANCH  15  16
ENDBRANCH  11  15
ENDBRANCH   5  12
BRANCH   8  20
ATOM     20  O   UNL     1      -1.379  15.219  19.515  0.00  0.00    +0.000 OA
ATOM     21  H   UNL     1      -1.521  14.300  19.813  0.00  0.00    +0.000 HD
ENDBRANCH   8  20
ENDBRANCH   1   9
BRANCH   2  22
ATOM     22  C   UNL     1      -0.506  10.745  19.760  0.00  0.00    +0.000 C 
BRANCH  22  23
ATOM     23  O   UNL     1       0.807  10.435  20.217  0.00  0.00    +0.000 OA
BRANCH  23  24
ATOM     24  C   UNL     1       1.304   9.207  19.886  0.00  0.00    +0.000 A 
ATOM     25  C   UNL     1       1.244   8.250  20.894  0.00  0.00    +0.000 A 
ATOM     26  C   UNL     1       1.662   6.934  20.662  0.00  0.00    +0.000 A 
ATOM     27  C   UNL     1       2.141   6.529  19.405  0.00  0.00    +0.000 A 
ATOM     28  C   UNL     1       2.192   7.511  18.399  0.00  0.00    +0.000 A 
ATOM     29  C   UNL     1       1.783   8.835  18.633  0.00  0.00    +0.000 A 
BRANCH  27  30
ATOM     30  C   UNL     1       2.610   5.091  19.123  0.00  0.00    +0.000 C 
ATOM     31  C   UNL     1       2.180   4.081  20.232  0.00  0.00    +0.000 C 
ATOM     32  C   UNL     1       2.681   2.661  19.939  0.00  0.00    +0.000 C 
ATOM     33  C   UNL     1       2.094   2.188  18.602  0.00  0.00    +0.000 C 
ATOM     34  C   UNL     1       2.535   3.134  17.477  0.00  0.00    +0.000 C 
ATOM     35  C   UNL     1       4.071   3.139  17.398  0.00  0.00    +0.000 C 
ATOM     36  C   UNL     1       4.665   3.621  18.733  0.00  0.00    +0.000 C 
ATOM     37  C   UNL     1       4.214   2.681  19.858  0.00  0.00    +0.000 C 
ATOM     38  C   UNL     1       4.164   5.048  19.025  0.00  0.00    +0.000 C 
ATOM     39  C   UNL     1       2.033   4.563  17.776  0.00  0.00    +0.000 C 
ENDBRANCH  27  30
ENDBRANCH  23  24
ENDBRANCH  22  23
ENDBRANCH   2  22
TORSDOF 10
ENDMDL
MODEL 5
REMARK VINA RESULT:      -8.2      5.015      8.612
REMARK  Name = 
REMARK  12 active torsions:
REMARK  status: ('A' for Active; 'I' for Inactive)
REMARK    1  A    between atoms: C_1  and  N_2
REMARK    2  A    between atoms: N_2  and  C_3
REMARK    3  A    between atoms: N_2  and  C_4
REMARK    4  A    between atoms: C_4  and  C_5
REMARK    5  A    between atoms: C_5  and  N_6
REMARK    6  A    between atoms: C_7  and  C_9
REMARK    7  A    between atoms: C_12  and  O_13
REMARK    8  A    between atoms: C_14  and  N_15
REMARK    9  A    between atoms: C_16  and  C_18
REMARK   10  A    between atoms: C_18  and  O_19
REMARK   11  A    between atoms: O_19  and  C_20
REMARK   12  A    between atoms: C_23  and  C_24
REMARK                            x       y       z     vdW  Elec       q    Type
REMARK                         _______ _______ _______ _____ _____    ______ ____
ROOT
ATOM      1  N   UNL     1       1.798  13.240  18.368  0.00  0.00    +0.000 N 
ATOM      2  C   UNL     1       0.926  12.777  19.357  0.00  0.00    +0.000 C 
ATOM      3  O   UNL     1       0.718  13.297  20.451  0.00  0.00    +0.000 OA
ATOM      4  H   UNL     1       1.623  12.893  17.435  0.00  0.00    +0.000 HD
ENDROOT
BRANCH   1   9
ATOM      5  C   UNL     1       4.993  15.148  18.639  0.00  0.00    +0.000 A 
ATOM      6  C   UNL     1       4.550  16.466  18.452  0.00  0.00    +0.000 A 
ATOM      7  C   UNL     1       3.188  16.740  18.387  0.00  0.00    +0.000 A 
ATOM      8  C   UNL     1       2.271  15.700  18.459  0.00  0.00    +0.000 A 
ATOM      9  C   UNL     1       2.675  14.357  18.469  0.00  0.00    +0.000 A 
ATOM     10  C   UNL     1       4.056  14.090  18.597  0.00  0.00    +0.000 A 
BRANCH   5  12
ATOM     11  N   UNL     1       7.198  14.548  17.792  0.00  0.00    +0.000 N 
ATOM     12  C   UNL     1       6.443  14.863  18.909  0.00  0.00    +0.000 C 
ATOM     13  O   UNL     1       6.900  14.961  20.043  0.00  0.00    +0.000 OA
ATOM     14  H   UNL     1       6.777  14.811  16.910  0.00  0.00    +0.000 HD
BRANCH  11  15
ATOM     15  C   UNL     1       8.635  14.345  17.820  0.00  0.00    +0.000 C 
BRANCH  15  16
ATOM     16  C   UNL     1       9.054  12.847  17.833  0.00  0.00    +0.000 C 
BRANCH  16  18
ATOM     17  C   UNL     1      11.180  13.661  16.942  0.00  0.00    +0.000 C 
ATOM     18  N   UNL     1      10.483  12.548  17.579  0.00  0.00    +0.000 NA
ATOM     19  C   UNL     1      11.162  12.151  18.811  0.00  0.00    +0.000 C 
ENDBRANCH  16  18
ENDBRANCH  15  16
ENDBRANCH  11  15
ENDBRANCH   5  12
BRANCH   8  20
ATOM     20  O   UNL     1       0.975  16.075  18.676  0.00  0.00    +0.000 OA
ATOM     21  H   UNL     1       0.410  15.482  18.145  0.00  0.00    +0.000 HD
ENDBRANCH   8  20
ENDBRANCH   1   9
BRANCH   2  22
ATOM     22  C   UNL     1       0.132  11.548  18.902  0.00  0.00    +0.000 C 
BRANCH  22  23
ATOM     23  O   UNL     1       0.248  10.572  19.933  0.00  0.00    +0.000 OA
BRANCH  23  24
ATOM     24  C   UNL     1       0.942   9.435  19.634  0.00  0.00    +0.000 A 
ATOM     25  C   UNL     1       1.383   9.336  18.318  0.00  0.00    +0.000 A 
ATOM     26  C   UNL     1       2.161   8.250  17.900  0.00  0.00    +0.000 A 
ATOM     27  C   UNL     1       2.535   7.231  18.791  0.00  0.00    +0.000 A 
ATOM     28  C   UNL     1       2.080   7.350  20.118  0.00  0.00    +0.000 A 
ATOM     29  C   UNL     1       1.292   8.434  20.537  0.00  0.00    +0.000 A 
BRANCH  27  30
ATOM     30  C   UNL     1       3.386   6.025  18.358  0.00  0.00    +0.000 C 
ATOM     31  C   UNL     1       2.540   4.885  17.710  0.00  0.00    +0.000 C 
ATOM     32  C   UNL     1       3.409   3.684  17.310  0.00  0.00    +0.000 C 
ATOM     33  C   UNL     1       4.461   4.144  16.291  0.00  0.00    +0.000 C 
ATOM     34  C   UNL     1       5.343   5.236  16.911  0.00  0.00    +0.000 C 
ATOM     35  C   UNL     1       6.040   4.670  18.159  0.00  0.00    +0.000 C 
ATOM     36  C   UNL     1       4.991   4.217  19.189  0.00  0.00    +0.000 C 
ATOM     37  C   UNL     1       4.102   3.133  18.564  0.00  0.00    +0.000 C 
ATOM     38  C   UNL     1       4.121   5.422  19.592  0.00  0.00    +0.000 C 
ATOM     39  C   UNL     1       4.467   6.441  17.315  0.00  0.00    +0.000 C 
ENDBRANCH  27  30
ENDBRANCH  23  24
ENDBRANCH  22  23
ENDBRANCH   2  22
TORSDOF 10
ENDMDL
MODEL 6
REMARK VINA RESULT:      -8.1      1.815      3.749
REMARK  Name = 
REMARK  12 active torsions:
REMARK  status: ('A' for Active; 'I' for Inactive)
REMARK    1  A    between atoms: C_1  and  N_2
REMARK    2  A    between atoms: N_2  and  C_3
REMARK    3  A    between atoms: N_2  and  C_4
REMARK    4  A    between atoms: C_4  and  C_5
REMARK    5  A    between atoms: C_5  and  N_6
REMARK    6  A    between atoms: C_7  and  C_9
REMARK    7  A    between atoms: C_12  and  O_13
REMARK    8  A    between atoms: C_14  and  N_15
REMARK    9  A    between atoms: C_16  and  C_18
REMARK   10  A    between atoms: C_18  and  O_19
REMARK   11  A    between atoms: O_19  and  C_20
REMARK   12  A    between atoms: C_23  and  C_24
REMARK                            x       y       z     vdW  Elec       q    Type
REMARK                         _______ _______ _______ _____ _____    ______ ____
ROOT
ATOM      1  N   UNL     1      -0.816  12.339  22.444  0.00  0.00    +0.000 N 
ATOM      2  C   UNL     1      -0.546  11.830  21.171  0.00  0.00    +0.000 C 
ATOM      3  O   UNL     1      -1.262  11.929  20.176  0.00  0.00    +0.000 OA
ATOM      4  H   UNL     1      -0.014  12.448  23.050  0.00  0.00    +0.000 HD
ENDROOT
BRANCH   1   9
ATOM      5  C   UNL     1      -4.444  13.195  22.615  0.00  0.00    +0.000 A 
ATOM      6  C   UNL     1      -4.477  14.057  23.721  0.00  0.00    +0.000 A 
ATOM      7  C   UNL     1      -3.291  14.472  24.317  0.00  0.00    +0.000 A 
ATOM      8  C   UNL     1      -2.077  13.994  23.843  0.00  0.00    +0.000 A 
ATOM      9  C   UNL     1      -2.009  12.999  22.856  0.00  0.00    +0.000 A 
ATOM     10  C   UNL     1      -3.211  12.628  22.215  0.00  0.00    +0.000 A 
BRANCH   5  12
ATOM     11  N   UNL     1      -5.776  13.497  20.597  0.00  0.00    +0.000 N 
ATOM     12  C   UNL     1      -5.697  12.898  21.842  0.00  0.00    +0.000 C 
ATOM     13  O   UNL     1      -6.545  12.134  22.293  0.00  0.00    +0.000 OA
ATOM     14  H   UNL     1      -4.893  13.829  20.231  0.00  0.00    +0.000 HD
BRANCH  11  15
ATOM     15  C   UNL     1      -6.850  13.255  19.651  0.00  0.00    +0.000 C 
BRANCH  15  16
ATOM     16  C   UNL     1      -6.355  12.912  18.217  0.00  0.00    +0.000 C 
BRANCH  16  18
ATOM     17  C   UNL     1      -4.525  11.296  18.082  0.00  0.00    +0.000 C 
ATOM     18  N   UNL     1      -5.964  11.505  17.961  0.00  0.00    +0.000 NA
ATOM     19  C   UNL     1      -6.694  10.592  18.839  0.00  0.00    +0.000 C 
ENDBRANCH  16  18
ENDBRANCH  15  16
ENDBRANCH  11  15
ENDBRANCH   5  12
BRANCH   8  20
ATOM     20  O   UNL     1      -0.971  14.663  24.284  0.00  0.00    +0.000 OA
ATOM     21  H   UNL     1      -0.347  14.716  23.535  0.00  0.00    +0.000 HD
ENDBRANCH   8  20
ENDBRANCH   1   9
BRANCH   2  22
ATOM     22  C   UNL     1       0.840  11.182  21.087  0.00  0.00    +0.000 C 
BRANCH  22  23
ATOM     23  O   UNL     1       0.960  10.624  19.782  0.00  0.00    +0.000 OA
BRANCH  23  24
ATOM     24  C   UNL     1       1.271   9.296  19.703  0.00  0.00    +0.000 A 
ATOM     25  C   UNL     1       1.669   8.852  18.447  0.00  0.00    +0.000 A 
ATOM     26  C   UNL     1       2.076   7.527  18.248  0.00  0.00    +0.000 A 
ATOM     27  C   UNL     1       2.109   6.605  19.306  0.00  0.00    +0.000 A 
ATOM     28  C   UNL     1       1.704   7.074  20.569  0.00  0.00    +0.000 A 
ATOM     29  C   UNL     1       1.286   8.400  20.769  0.00  0.00    +0.000 A 
BRANCH  27  30
ATOM     30  C   UNL     1       2.548   5.142  19.116  0.00  0.00    +0.000 C 
ATOM     31  C   UNL     1       4.095   4.982  18.990  0.00  0.00    +0.000 C 
ATOM     32  C   UNL     1       4.503   3.518  18.775  0.00  0.00    +0.000 C 
ATOM     33  C   UNL     1       4.028   2.685  19.973  0.00  0.00    +0.000 C 
ATOM     34  C   UNL     1       2.502   2.782  20.102  0.00  0.00    +0.000 C 
ATOM     35  C   UNL     1       1.854   2.254  18.811  0.00  0.00    +0.000 C 
ATOM     36  C   UNL     1       2.319   3.091  17.608  0.00  0.00    +0.000 C 
ATOM     37  C   UNL     1       3.846   3.002  17.488  0.00  0.00    +0.000 C 
ATOM     38  C   UNL     1       1.907   4.559  17.821  0.00  0.00    +0.000 C 
ATOM     39  C   UNL     1       2.093   4.256  20.314  0.00  0.00    +0.000 C 
ENDBRANCH  27  30
ENDBRANCH  23  24
ENDBRANCH  22  23
ENDBRANCH   2  22
TORSDOF 10
ENDMDL
MODEL 7
REMARK VINA RESULT:      -8.1      4.981      8.323
REMARK  Name = 
REMARK  12 active torsions:
REMARK  status: ('A' for Active; 'I' for Inactive)
REMARK    1  A    between atoms: C_1  and  N_2
REMARK    2  A    between atoms: N_2  and  C_3
REMARK    3  A    between atoms: N_2  and  C_4
REMARK    4  A    between atoms: C_4  and  C_5
REMARK    5  A    between atoms: C_5  and  N_6
REMARK    6  A    between atoms: C_7  and  C_9
REMARK    7  A    between atoms: C_12  and  O_13
REMARK    8  A    between atoms: C_14  and  N_15
REMARK    9  A    between atoms: C_16  and  C_18
REMARK   10  A    between atoms: C_18  and  O_19
REMARK   11  A    between atoms: O_19  and  C_20
REMARK   12  A    between atoms: C_23  and  C_24
REMARK                            x       y       z     vdW  Elec       q    Type
REMARK                         _______ _______ _______ _____ _____    ______ ____
ROOT
ATOM      1  N   UNL     1       2.120  13.523  20.082  0.00  0.00    +0.000 N 
ATOM      2  C   UNL     1       1.100  12.651  19.691  0.00  0.00    +0.000 C 
ATOM      3  O   UNL     1       0.434  12.720  18.659  0.00  0.00    +0.000 OA
ATOM      4  H   UNL     1       2.761  13.160  20.774  0.00  0.00    +0.000 HD
ENDROOT
BRANCH   1   9
ATOM      5  C   UNL     1       4.402  16.053  18.563  0.00  0.00    +0.000 A 
ATOM      6  C   UNL     1       3.493  16.884  17.890  0.00  0.00    +0.000 A 
ATOM      7  C   UNL     1       2.125  16.699  18.059  0.00  0.00    +0.000 A 
ATOM      8  C   UNL     1       1.662  15.661  18.856  0.00  0.00    +0.000 A 
ATOM      9  C   UNL     1       2.531  14.705  19.402  0.00  0.00    +0.000 A 
ATOM     10  C   UNL     1       3.918  14.934  19.279  0.00  0.00    +0.000 A 
BRANCH   5  12
ATOM     11  N   UNL     1       6.690  15.315  18.163  0.00  0.00    +0.000 N 
ATOM     12  C   UNL     1       5.871  16.364  18.549  0.00  0.00    +0.000 C 
ATOM     13  O   UNL     1       6.277  17.490  18.816  0.00  0.00    +0.000 OA
ATOM     14  H   UNL     1       6.215  14.566  17.677  0.00  0.00    +0.000 HD
BRANCH  11  15
ATOM     15  C   UNL     1       8.125  15.437  17.981  0.00  0.00    +0.000 C 
BRANCH  15  16
ATOM     16  C   UNL     1       8.956  14.581  18.979  0.00  0.00    +0.000 C 
BRANCH  16  18
ATOM     17  C   UNL     1       9.301  12.478  17.781  0.00  0.00    +0.000 C 
ATOM     18  N   UNL     1       9.939  13.637  18.396  0.00  0.00    +0.000 NA
ATOM     19  C   UNL     1      10.810  14.315  17.438  0.00  0.00    +0.000 C 
ENDBRANCH  16  18
ENDBRANCH  15  16
ENDBRANCH  11  15
ENDBRANCH   5  12
BRANCH   8  20
ATOM     20  O   UNL     1       0.340  15.727  19.196  0.00  0.00    +0.000 OA
ATOM     21  H   UNL     1      -0.169  15.781  18.364  0.00  0.00    +0.000 HD
ENDBRANCH   8  20
ENDBRANCH   1   9
BRANCH   2  22
ATOM     22  C   UNL     1       0.931  11.479  20.663  0.00  0.00    +0.000 C 
BRANCH  22  23
ATOM     23  O   UNL     1       0.238  10.452  19.961  0.00  0.00    +0.000 OA
BRANCH  23  24
ATOM     24  C   UNL     1       0.949   9.327  19.651  0.00  0.00    +0.000 A 
ATOM     25  C   UNL     1       1.391   9.247  18.334  0.00  0.00    +0.000 A 
ATOM     26  C   UNL     1       2.184   8.176  17.905  0.00  0.00    +0.000 A 
ATOM     27  C   UNL     1       2.573   7.155  18.787  0.00  0.00    +0.000 A 
ATOM     28  C   UNL     1       2.117   7.254  20.114  0.00  0.00    +0.000 A 
ATOM     29  C   UNL     1       1.313   8.323  20.544  0.00  0.00    +0.000 A 
BRANCH  27  30
ATOM     30  C   UNL     1       3.441   5.964  18.342  0.00  0.00    +0.000 C 
ATOM     31  C   UNL     1       2.613   4.824  17.672  0.00  0.00    +0.000 C 
ATOM     32  C   UNL     1       3.498   3.639  17.261  0.00  0.00    +0.000 C 
ATOM     33  C   UNL     1       4.550   4.126  16.256  0.00  0.00    +0.000 C 
ATOM     34  C   UNL     1       5.415   5.219  16.896  0.00  0.00    +0.000 C 
ATOM     35  C   UNL     1       6.112   4.644  18.141  0.00  0.00    +0.000 C 
ATOM     36  C   UNL     1       5.062   4.164  19.157  0.00  0.00    +0.000 C 
ATOM     37  C   UNL     1       4.190   3.079  18.511  0.00  0.00    +0.000 C 
ATOM     38  C   UNL     1       4.175   5.353  19.571  0.00  0.00    +0.000 C 
ATOM     39  C   UNL     1       4.523   6.408  17.312  0.00  0.00    +0.000 C 
ENDBRANCH  27  30
ENDBRANCH  23  24
ENDBRANCH  22  23
ENDBRANCH   2  22
TORSDOF 10
ENDMDL
MODEL 8
REMARK VINA RESULT:      -8.1      1.301      1.923
REMARK  Name = 
REMARK  12 active torsions:
REMARK  status: ('A' for Active; 'I' for Inactive)
REMARK    1  A    between atoms: C_1  and  N_2
REMARK    2  A    between atoms: N_2  and  C_3
REMARK    3  A    between atoms: N_2  and  C_4
REMARK    4  A    between atoms: C_4  and  C_5
REMARK    5  A    between atoms: C_5  and  N_6
REMARK    6  A    between atoms: C_7  and  C_9
REMARK    7  A    between atoms: C_12  and  O_13
REMARK    8  A    between atoms: C_14  and  N_15
REMARK    9  A    between atoms: C_16  and  C_18
REMARK   10  A    between atoms: C_18  and  O_19
REMARK   11  A    between atoms: O_19  and  C_20
REMARK   12  A    between atoms: C_23  and  C_24
REMARK                            x       y       z     vdW  Elec       q    Type
REMARK                         _______ _______ _______ _____ _____    ______ ____
ROOT
ATOM      1  N   UNL     1      -1.515  11.271  18.427  0.00  0.00    +0.000 N 
ATOM      2  C   UNL     1      -0.829  12.249  19.152  0.00  0.00    +0.000 C 
ATOM      3  O   UNL     1      -1.268  13.342  19.503  0.00  0.00    +0.000 OA
ATOM      4  H   UNL     1      -1.138  10.335  18.493  0.00  0.00    +0.000 HD
ENDROOT
BRANCH   1   9
ATOM      5  C   UNL     1      -5.176  11.972  18.279  0.00  0.00    +0.000 A 
ATOM      6  C   UNL     1      -5.428  11.865  16.903  0.00  0.00    +0.000 A 
ATOM      7  C   UNL     1      -4.429  11.417  16.046  0.00  0.00    +0.000 A 
ATOM      8  C   UNL     1      -3.169  11.123  16.549  0.00  0.00    +0.000 A 
ATOM      9  C   UNL     1      -2.826  11.383  17.884  0.00  0.00    +0.000 A 
ATOM     10  C   UNL     1      -3.861  11.779  18.760  0.00  0.00    +0.000 A 
BRANCH   5  12
ATOM     11  N   UNL     1      -5.920  12.366  20.566  0.00  0.00    +0.000 N 
ATOM     12  C   UNL     1      -6.296  12.262  19.238  0.00  0.00    +0.000 C 
ATOM     13  O   UNL     1      -7.440  12.438  18.830  0.00  0.00    +0.000 OA
ATOM     14  H   UNL     1      -4.930  12.513  20.715  0.00  0.00    +0.000 HD
BRANCH  11  15
ATOM     15  C   UNL     1      -6.827  12.745  21.635  0.00  0.00    +0.000 C 
BRANCH  15  16
ATOM     16  C   UNL     1      -6.582  14.180  22.183  0.00  0.00    +0.000 C 
BRANCH  16  18
ATOM     17  C   UNL     1      -7.674  13.572  24.284  0.00  0.00    +0.000 C 
ATOM     18  N   UNL     1      -7.445  14.627  23.301  0.00  0.00    +0.000 NA
ATOM     19  C   UNL     1      -6.894  15.819  23.943  0.00  0.00    +0.000 C 
ENDBRANCH  16  18
ENDBRANCH  15  16
ENDBRANCH  11  15
ENDBRANCH   5  12
BRANCH   8  20
ATOM     20  O   UNL     1      -2.349  10.426  15.707  0.00  0.00    +0.000 OA
ATOM     21  H   UNL     1      -1.545  10.197  16.211  0.00  0.00    +0.000 HD
ENDBRANCH   8  20
ENDBRANCH   1   9
BRANCH   2  22
ATOM     22  C   UNL     1       0.566  11.783  19.581  0.00  0.00    +0.000 C 
BRANCH  22  23
ATOM     23  O   UNL     1       0.407  10.513  20.207  0.00  0.00    +0.000 OA
BRANCH  23  24
ATOM     24  C   UNL     1       1.164   9.485  19.722  0.00  0.00    +0.000 A 
ATOM     25  C   UNL     1       1.363   8.426  20.602  0.00  0.00    +0.000 A 
ATOM     26  C   UNL     1       2.067   7.283  20.204  0.00  0.00    +0.000 A 
ATOM     27  C   UNL     1       2.583   7.157  18.905  0.00  0.00    +0.000 A 
ATOM     28  C   UNL     1       2.371   8.238  18.030  0.00  0.00    +0.000 A 
ATOM     29  C   UNL     1       1.673   9.390  18.429  0.00  0.00    +0.000 A 
BRANCH  27  30
ATOM     30  C   UNL     1       3.364   5.914  18.442  0.00  0.00    +0.000 C 
ATOM     31  C   UNL     1       4.137   5.213  19.602  0.00  0.00    +0.000 C 
ATOM     32  C   UNL     1       4.926   3.993  19.109  0.00  0.00    +0.000 C 
ATOM     33  C   UNL     1       3.950   2.978  18.499  0.00  0.00    +0.000 C 
ATOM     34  C   UNL     1       3.202   3.619  17.322  0.00  0.00    +0.000 C 
ATOM     35  C   UNL     1       4.222   4.063  16.260  0.00  0.00    +0.000 C 
ATOM     36  C   UNL     1       5.197   5.088  16.864  0.00  0.00    +0.000 C 
ATOM     37  C   UNL     1       5.936   4.449  18.047  0.00  0.00    +0.000 C 
ATOM     38  C   UNL     1       4.406   6.314  17.356  0.00  0.00    +0.000 C 
ATOM     39  C   UNL     1       2.412   4.849  17.820  0.00  0.00    +0.000 C 
ENDBRANCH  27  30
ENDBRANCH  23  24
ENDBRANCH  22  23
ENDBRANCH   2  22
TORSDOF 10
ENDMDL
MODEL 9
REMARK VINA RESULT:      -8.1      0.966      1.872
REMARK  Name = 
REMARK  12 active torsions:
REMARK  status: ('A' for Active; 'I' for Inactive)
REMARK    1  A    between atoms: C_1  and  N_2
REMARK    2  A    between atoms: N_2  and  C_3
REMARK    3  A    between atoms: N_2  and  C_4
REMARK    4  A    between atoms: C_4  and  C_5
REMARK    5  A    between atoms: C_5  and  N_6
REMARK    6  A    between atoms: C_7  and  C_9
REMARK    7  A    between atoms: C_12  and  O_13
REMARK    8  A    between atoms: C_14  and  N_15
REMARK    9  A    between atoms: C_16  and  C_18
REMARK   10  A    between atoms: C_18  and  O_19
REMARK   11  A    between atoms: O_19  and  C_20
REMARK   12  A    between atoms: C_23  and  C_24
REMARK                            x       y       z     vdW  Elec       q    Type
REMARK                         _______ _______ _______ _____ _____    ______ ____
ROOT
ATOM      1  N   UNL     1      -1.606  11.767  18.538  0.00  0.00    +0.000 N 
ATOM      2  C   UNL     1      -1.012  11.503  19.775  0.00  0.00    +0.000 C 
ATOM      3  O   UNL     1      -1.579  11.094  20.786  0.00  0.00    +0.000 OA
ATOM      4  H   UNL     1      -0.974  11.790  17.748  0.00  0.00    +0.000 HD
ENDROOT
BRANCH   1   9
ATOM      5  C   UNL     1      -5.287  12.246  18.910  0.00  0.00    +0.000 A 
ATOM      6  C   UNL     1      -5.754  11.814  17.659  0.00  0.00    +0.000 A 
ATOM      7  C   UNL     1      -4.877  11.229  16.753  0.00  0.00    +0.000 A 
ATOM      8  C   UNL     1      -3.530  11.116  17.069  0.00  0.00    +0.000 A 
ATOM      9  C   UNL     1      -2.994  11.691  18.231  0.00  0.00    +0.000 A 
ATOM     10  C   UNL     1      -3.897  12.229  19.174  0.00  0.00    +0.000 A 
BRANCH   5  12
ATOM     11  N   UNL     1      -6.318  11.880  21.087  0.00  0.00    +0.000 N 
ATOM     12  C   UNL     1      -6.251  12.695  19.970  0.00  0.00    +0.000 C 
ATOM     13  O   UNL     1      -6.880  13.741  19.842  0.00  0.00    +0.000 OA
ATOM     14  H   UNL     1      -5.535  11.248  21.196  0.00  0.00    +0.000 HD
BRANCH  11  15
ATOM     15  C   UNL     1      -7.105  12.191  22.267  0.00  0.00    +0.000 C 
BRANCH  15  16
ATOM     16  C   UNL     1      -6.299  12.917  23.382  0.00  0.00    +0.000 C 
BRANCH  16  18
ATOM     17  C   UNL     1      -4.078  13.799  22.862  0.00  0.00    +0.000 C 
ATOM     18  N   UNL     1      -4.836  12.681  23.414  0.00  0.00    +0.000 NA
ATOM     19  C   UNL     1      -4.386  12.373  24.771  0.00  0.00    +0.000 C 
ENDBRANCH  16  18
ENDBRANCH  15  16
ENDBRANCH  11  15
ENDBRANCH   5  12
BRANCH   8  20
ATOM     20  O   UNL     1      -2.806  10.284  16.264  0.00  0.00    +0.000 OA
ATOM     21  H   UNL     1      -2.499  10.813  15.503  0.00  0.00    +0.000 HD
ENDBRANCH   8  20
ENDBRANCH   1   9
BRANCH   2  22
ATOM     22  C   UNL     1       0.509  11.686  19.741  0.00  0.00    +0.000 C 
BRANCH  22  23
ATOM     23  O   UNL     1       1.053  10.838  20.748  0.00  0.00    +0.000 OA
BRANCH  23  24
ATOM     24  C   UNL     1       1.399   9.572  20.370  0.00  0.00    +0.000 A 
ATOM     25  C   UNL     1       1.206   8.589  21.335  0.00  0.00    +0.000 A 
ATOM     26  C   UNL     1       1.461   7.242  21.051  0.00  0.00    +0.000 A 
ATOM     27  C   UNL     1       1.907   6.833  19.784  0.00  0.00    +0.000 A 
ATOM     28  C   UNL     1       2.096   7.842  18.822  0.00  0.00    +0.000 A 
ATOM     29  C   UNL     1       1.849   9.195  19.107  0.00  0.00    +0.000 A 
BRANCH  27  30
ATOM     30  C   UNL     1       2.199   5.360  19.446  0.00  0.00    +0.000 C 
ATOM     31  C   UNL     1       1.365   4.361  20.306  0.00  0.00    +0.000 C 
ATOM     32  C   UNL     1       1.694   2.901  19.966  0.00  0.00    +0.000 C 
ATOM     33  C   UNL     1       1.374   2.647  18.487  0.00  0.00    +0.000 C 
ATOM     34  C   UNL     1       2.212   3.583  17.606  0.00  0.00    +0.000 C 
ATOM     35  C   UNL     1       3.704   3.319  17.869  0.00  0.00    +0.000 C 
ATOM     36  C   UNL     1       4.032   3.582  19.348  0.00  0.00    +0.000 C 
ATOM     37  C   UNL     1       3.186   2.653  20.228  0.00  0.00    +0.000 C 
ATOM     38  C   UNL     1       3.705   5.047  19.688  0.00  0.00    +0.000 C 
ATOM     39  C   UNL     1       1.882   5.051  17.952  0.00  0.00    +0.000 C 
ENDBRANCH  27  30
ENDBRANCH  23  24
ENDBRANCH  22  23
ENDBRANCH   2  22
TORSDOF 10
ENDMDL
