MODEL 1
REMARK VINA RESULT:      -7.4      0.000      0.000
REMARK  Name = 
REMARK  3 active torsions:
REMARK  status: ('A' for Active; 'I' for Inactive)
REMARK    1  A    between atoms: C_4  and  S_5
REMARK    2  A    between atoms: S_5  and  C_6
REMARK    3  A    between atoms: C_6  and  C_7
REMARK                            x       y       z     vdW  Elec       q    Type
REMARK                         _______ _______ _______ _____ _____    ______ ____
ROOT
ATOM      1  O   UNL     1       4.536   1.343  19.274  0.00  0.00    +0.000 OA
ATOM      2  C   UNL     1       4.477   2.560  19.391  0.00  0.00    +0.000 A 
ATOM      3  N   UNL     1       5.526   3.374  19.083  0.00  0.00    +0.000 N 
ATOM      4  C   UNL     1       5.464   4.722  19.238  0.00  0.00    +0.000 A 
ATOM      5  N   UNL     1       4.422   5.354  19.658  0.00  0.00    +0.000 NA
ATOM      6  C   UNL     1       3.310   4.598  19.955  0.00  0.00    +0.000 A 
ATOM      7  C   UNL     1       3.261   3.254  19.872  0.00  0.00    +0.000 A 
ATOM      8  C   UNL     1       2.060   2.421  20.225  0.00  0.00    +0.000 C 
ATOM      9  C   UNL     1       0.961   3.221  20.935  0.00  0.00    +0.000 C 
ATOM     10  C   UNL     1       0.787   4.591  20.290  0.00  0.00    +0.000 C 
ATOM     11  C   UNL     1       2.090   5.391  20.366  0.00  0.00    +0.000 C 
ATOM     12  H   UNL     1       6.372   2.946  18.739  0.00  0.00    +0.000 HD
ENDROOT
BRANCH   4  13
ATOM     13  S   UNL     1       6.943   5.517  18.786  0.00  0.00    +0.000 S 
BRANCH  13  14
ATOM     14  C   UNL     1       6.379   6.500  17.366  0.00  0.00    +0.000 C 
BRANCH  14  15
ATOM     15  C   UNL     1       6.274   5.669  16.103  0.00  0.00    +0.000 A 
ATOM     16  C   UNL     1       5.078   5.008  15.781  0.00  0.00    +0.000 A 
ATOM     17  C   UNL     1       4.975   4.243  14.614  0.00  0.00    +0.000 A 
ATOM     18  C   UNL     1       6.068   4.130  13.761  0.00  0.00    +0.000 A 
ATOM     19 BR   UNL     1       5.929   3.095  12.185  0.00  0.00    +0.000 Br
ATOM     20  C   UNL     1       7.265   4.774  14.064  0.00  0.00    +0.000 A 
ATOM     21  C   UNL     1       7.369   5.539  15.231  0.00  0.00    +0.000 A 
ENDBRANCH  14  15
ENDBRANCH  13  14
ENDBRANCH   4  13
TORSDOF 3
ENDMDL
MODEL 2
REMARK VINA RESULT:      -7.4      3.252      6.024
REMARK  Name = 
REMARK  3 active torsions:
REMARK  status: ('A' for Active; 'I' for Inactive)
REMARK    1  A    between atoms: C_4  and  S_5
REMARK    2  A    between atoms: S_5  and  C_6
REMARK    3  A    between atoms: C_6  and  C_7
REMARK                            x       y       z     vdW  Elec       q    Type
REMARK                         _______ _______ _______ _____ _____    ______ ____
ROOT
ATOM      1  O   UNL     1       5.674   4.098  14.974  0.00  0.00    +0.000 OA
ATOM      2  C   UNL     1       5.546   3.997  16.188  0.00  0.00    +0.000 A 
ATOM      3  N   UNL     1       4.756   3.046  16.762  0.00  0.00    +0.000 N 
ATOM      4  C   UNL     1       4.598   2.954  18.107  0.00  0.00    +0.000 A 
ATOM      5  N   UNL     1       5.187   3.724  18.958  0.00  0.00    +0.000 NA
ATOM      6  C   UNL     1       6.030   4.687  18.451  0.00  0.00    +0.000 A 
ATOM      7  C   UNL     1       6.242   4.896  17.137  0.00  0.00    +0.000 A 
ATOM      8  C   UNL     1       7.137   5.966  16.577  0.00  0.00    +0.000 C 
ATOM      9  C   UNL     1       7.601   6.975  17.633  0.00  0.00    +0.000 C 
ATOM     10  C   UNL     1       7.965   6.268  18.933  0.00  0.00    +0.000 C 
ATOM     11  C   UNL     1       6.758   5.510  19.489  0.00  0.00    +0.000 C 
ATOM     12  H   UNL     1       4.272   2.403  16.154  0.00  0.00    +0.000 HD
ENDROOT
BRANCH   4  13
ATOM     13  S   UNL     1       3.527   1.665  18.570  0.00  0.00    +0.000 S 
BRANCH  13  14
ATOM     14  C   UNL     1       1.912   2.446  18.281  0.00  0.00    +0.000 C 
BRANCH  14  15
ATOM     15  C   UNL     1       1.849   3.851  18.847  0.00  0.00    +0.000 A 
ATOM     16  C   UNL     1       1.611   4.059  20.215  0.00  0.00    +0.000 A 
ATOM     17  C   UNL     1       1.556   5.353  20.743  0.00  0.00    +0.000 A 
ATOM     18  C   UNL     1       1.737   6.451  19.907  0.00  0.00    +0.000 A 
ATOM     19 BR   UNL     1       1.662   8.200  20.621  0.00  0.00    +0.000 Br
ATOM     20  C   UNL     1       1.970   6.266  18.546  0.00  0.00    +0.000 A 
ATOM     21  C   UNL     1       2.025   4.972  18.018  0.00  0.00    +0.000 A 
ENDBRANCH  14  15
ENDBRANCH  13  14
ENDBRANCH   4  13
TORSDOF 3
ENDMDL
MODEL 3
REMARK VINA RESULT:      -7.4      3.258      6.043
REMARK  Name = 
REMARK  3 active torsions:
REMARK  status: ('A' for Active; 'I' for Inactive)
REMARK    1  A    between atoms: C_4  and  S_5
REMARK    2  A    between atoms: S_5  and  C_6
REMARK    3  A    between atoms: C_6  and  C_7
REMARK                            x       y       z     vdW  Elec       q    Type
REMARK                         _______ _______ _______ _____ _____    ______ ____
ROOT
ATOM      1  O   UNL     1       5.749   4.213  14.960  0.00  0.00    +0.000 OA
ATOM      2  C   UNL     1       5.616   4.086  16.171  0.00  0.00    +0.000 A 
ATOM      3  N   UNL     1       4.825   3.121  16.720  0.00  0.00    +0.000 N 
ATOM      4  C   UNL     1       4.661   2.999  18.063  0.00  0.00    +0.000 A 
ATOM      5  N   UNL     1       5.245   3.750  18.934  0.00  0.00    +0.000 NA
ATOM      6  C   UNL     1       6.090   4.726  18.452  0.00  0.00    +0.000 A 
ATOM      7  C   UNL     1       6.306   4.964  17.143  0.00  0.00    +0.000 A 
ATOM      8  C   UNL     1       7.203   6.047  16.610  0.00  0.00    +0.000 C 
ATOM      9  C   UNL     1       7.661   7.033  17.690  0.00  0.00    +0.000 C 
ATOM     10  C   UNL     1       8.020   6.298  18.977  0.00  0.00    +0.000 C 
ATOM     11  C   UNL     1       6.811   5.526  19.511  0.00  0.00    +0.000 C 
ATOM     12  H   UNL     1       4.345   2.491  16.097  0.00  0.00    +0.000 HD
ENDROOT
BRANCH   4  13
ATOM     13  S   UNL     1       3.590   1.699  18.493  0.00  0.00    +0.000 S 
BRANCH  13  14
ATOM     14  C   UNL     1       1.975   2.478  18.197  0.00  0.00    +0.000 C 
BRANCH  14  15
ATOM     15  C   UNL     1       1.908   3.883  18.764  0.00  0.00    +0.000 A 
ATOM     16  C   UNL     1       2.053   4.998  17.923  0.00  0.00    +0.000 A 
ATOM     17  C   UNL     1       1.988   6.296  18.439  0.00  0.00    +0.000 A 
ATOM     18  C   UNL     1       1.780   6.490  19.802  0.00  0.00    +0.000 A 
ATOM     19 BR   UNL     1       1.693   8.246  20.500  0.00  0.00    +0.000 Br
ATOM     20  C   UNL     1       1.638   5.397  20.653  0.00  0.00    +0.000 A 
ATOM     21  C   UNL     1       1.703   4.099  20.137  0.00  0.00    +0.000 A 
ENDBRANCH  14  15
ENDBRANCH  13  14
ENDBRANCH   4  13
TORSDOF 3
ENDMDL
MODEL 4
REMARK VINA RESULT:      -7.2      1.714      2.355
REMARK  Name = 
REMARK  3 active torsions:
REMARK  status: ('A' for Active; 'I' for Inactive)
REMARK    1  A    between atoms: C_4  and  S_5
REMARK    2  A    between atoms: S_5  and  C_6
REMARK    3  A    between atoms: C_6  and  C_7
REMARK                            x       y       z     vdW  Elec       q    Type
REMARK                         _______ _______ _______ _____ _____    ______ ____
ROOT
ATOM      1  O   UNL     1       2.472   6.756  19.459  0.00  0.00    +0.000 OA
ATOM      2  C   UNL     1       3.269   5.830  19.369  0.00  0.00    +0.000 A 
ATOM      3  N   UNL     1       4.616   6.015  19.461  0.00  0.00    +0.000 N 
ATOM      4  C   UNL     1       5.496   4.989  19.336  0.00  0.00    +0.000 A 
ATOM      5  N   UNL     1       5.152   3.760  19.150  0.00  0.00    +0.000 NA
ATOM      6  C   UNL     1       3.803   3.492  19.083  0.00  0.00    +0.000 A 
ATOM      7  C   UNL     1       2.838   4.430  19.160  0.00  0.00    +0.000 A 
ATOM      8  C   UNL     1       1.365   4.147  19.057  0.00  0.00    +0.000 C 
ATOM      9  C   UNL     1       1.057   2.716  18.600  0.00  0.00    +0.000 C 
ATOM     10  C   UNL     1       1.988   1.720  19.281  0.00  0.00    +0.000 C 
ATOM     11  C   UNL     1       3.449   2.030  18.944  0.00  0.00    +0.000 C 
ATOM     12  H   UNL     1       4.956   6.952  19.617  0.00  0.00    +0.000 HD
ENDROOT
BRANCH   4  13
ATOM     13  S   UNL     1       7.151   5.503  19.479  0.00  0.00    +0.000 S 
BRANCH  13  14
ATOM     14  C   UNL     1       7.315   6.533  17.990  0.00  0.00    +0.000 C 
BRANCH  14  15
ATOM     15  C   UNL     1       6.800   5.829  16.751  0.00  0.00    +0.000 A 
ATOM     16  C   UNL     1       5.723   6.361  16.024  0.00  0.00    +0.000 A 
ATOM     17  C   UNL     1       5.246   5.718  14.877  0.00  0.00    +0.000 A 
ATOM     18  C   UNL     1       5.842   4.536  14.448  0.00  0.00    +0.000 A 
ATOM     19 BR   UNL     1       5.197   3.666  12.898  0.00  0.00    +0.000 Br
ATOM     20  C   UNL     1       6.909   3.989  15.157  0.00  0.00    +0.000 A 
ATOM     21  C   UNL     1       7.386   4.632  16.304  0.00  0.00    +0.000 A 
ENDBRANCH  14  15
ENDBRANCH  13  14
ENDBRANCH   4  13
TORSDOF 3
ENDMDL
MODEL 5
REMARK VINA RESULT:      -7.0      0.577      1.197
REMARK  Name = 
REMARK  3 active torsions:
REMARK  status: ('A' for Active; 'I' for Inactive)
REMARK    1  A    between atoms: C_4  and  S_5
REMARK    2  A    between atoms: S_5  and  C_6
REMARK    3  A    between atoms: C_6  and  C_7
REMARK                            x       y       z     vdW  Elec       q    Type
REMARK                         _______ _______ _______ _____ _____    ______ ____
ROOT
ATOM      1  O   UNL     1       3.944   1.605  17.877  0.00  0.00    +0.000 OA
ATOM      2  C   UNL     1       4.065   2.680  18.451  0.00  0.00    +0.000 A 
ATOM      3  N   UNL     1       5.202   3.427  18.370  0.00  0.00    +0.000 N 
ATOM      4  C   UNL     1       5.340   4.606  19.029  0.00  0.00    +0.000 A 
ATOM      5  N   UNL     1       4.420   5.138  19.760  0.00  0.00    +0.000 NA
ATOM      6  C   UNL     1       3.228   4.456  19.859  0.00  0.00    +0.000 A 
ATOM      7  C   UNL     1       2.985   3.264  19.279  0.00  0.00    +0.000 A 
ATOM      8  C   UNL     1       1.696   2.500  19.409  0.00  0.00    +0.000 C 
ATOM      9  C   UNL     1       0.759   3.079  20.475  0.00  0.00    +0.000 C 
ATOM     10  C   UNL     1       0.750   4.602  20.417  0.00  0.00    +0.000 C 
ATOM     11  C   UNL     1       2.155   5.158  20.659  0.00  0.00    +0.000 C 
ATOM     12  H   UNL     1       5.961   3.074  17.807  0.00  0.00    +0.000 HD
ENDROOT
BRANCH   4  13
ATOM     13  S   UNL     1       6.893   5.344  18.766  0.00  0.00    +0.000 S 
BRANCH  13  14
ATOM     14  C   UNL     1       6.524   6.409  17.341  0.00  0.00    +0.000 C 
BRANCH  14  15
ATOM     15  C   UNL     1       6.353   5.613  16.063  0.00  0.00    +0.000 A 
ATOM     16  C   UNL     1       7.474   5.141  15.361  0.00  0.00    +0.000 A 
ATOM     17  C   UNL     1       7.321   4.401  14.183  0.00  0.00    +0.000 A 
ATOM     18  C   UNL     1       6.046   4.130  13.696  0.00  0.00    +0.000 A 
ATOM     19 BR   UNL     1       5.840   3.131  12.103  0.00  0.00    +0.000 Br
ATOM     20  C   UNL     1       4.921   4.592  14.375  0.00  0.00    +0.000 A 
ATOM     21  C   UNL     1       5.074   5.332  15.553  0.00  0.00    +0.000 A 
ENDBRANCH  14  15
ENDBRANCH  13  14
ENDBRANCH   4  13
TORSDOF 3
ENDMDL
MODEL 6
REMARK VINA RESULT:      -6.9      5.900      7.490
REMARK  Name = 
REMARK  3 active torsions:
REMARK  status: ('A' for Active; 'I' for Inactive)
REMARK    1  A    between atoms: C_4  and  S_5
REMARK    2  A    between atoms: S_5  and  C_6
REMARK    3  A    between atoms: C_6  and  C_7
REMARK                            x       y       z     vdW  Elec       q    Type
REMARK                         _______ _______ _______ _____ _____    ______ ____
ROOT
ATOM      1  O   UNL     1       7.890   5.325  20.139  0.00  0.00    +0.000 OA
ATOM      2  C   UNL     1       7.527   5.962  19.159  0.00  0.00    +0.000 A 
ATOM      3  N   UNL     1       8.084   7.160  18.820  0.00  0.00    +0.000 N 
ATOM      4  C   UNL     1       7.661   7.874  17.745  0.00  0.00    +0.000 A 
ATOM      5  N   UNL     1       6.730   7.488  16.941  0.00  0.00    +0.000 NA
ATOM      6  C   UNL     1       6.146   6.269  17.201  0.00  0.00    +0.000 A 
ATOM      7  C   UNL     1       6.458   5.486  18.253  0.00  0.00    +0.000 A 
ATOM      8  C   UNL     1       5.802   4.168  18.559  0.00  0.00    +0.000 C 
ATOM      9  C   UNL     1       4.558   3.902  17.704  0.00  0.00    +0.000 C 
ATOM     10  C   UNL     1       4.793   4.330  16.259  0.00  0.00    +0.000 C 
ATOM     11  C   UNL     1       5.119   5.823  16.186  0.00  0.00    +0.000 C 
ATOM     12  H   UNL     1       8.826   7.518  19.401  0.00  0.00    +0.000 HD
ENDROOT
BRANCH   4  13
ATOM     13  S   UNL     1       8.529   9.369  17.550  0.00  0.00    +0.000 S 
BRANCH  13  14
ATOM     14  C   UNL     1       9.154   9.620  19.239  0.00  0.00    +0.000 C 
BRANCH  14  15
ATOM     15  C   UNL     1       9.800  10.981  19.410  0.00  0.00    +0.000 A 
ATOM     16  C   UNL     1      10.540  11.555  18.364  0.00  0.00    +0.000 A 
ATOM     17  C   UNL     1      11.135  12.812  18.515  0.00  0.00    +0.000 A 
ATOM     18  C   UNL     1      10.998  13.504  19.715  0.00  0.00    +0.000 A 
ATOM     19 BR   UNL     1      11.804  15.202  19.919  0.00  0.00    +0.000 Br
ATOM     20  C   UNL     1      10.272  12.949  20.766  0.00  0.00    +0.000 A 
ATOM     21  C   UNL     1       9.677  11.692  20.615  0.00  0.00    +0.000 A 
ENDBRANCH  14  15
ENDBRANCH  13  14
ENDBRANCH   4  13
TORSDOF 3
ENDMDL
MODEL 7
REMARK VINA RESULT:      -6.9      1.372      1.865
REMARK  Name = 
REMARK  3 active torsions:
REMARK  status: ('A' for Active; 'I' for Inactive)
REMARK    1  A    between atoms: C_4  and  S_5
REMARK    2  A    between atoms: S_5  and  C_6
REMARK    3  A    between atoms: C_6  and  C_7
REMARK                            x       y       z     vdW  Elec       q    Type
REMARK                         _______ _______ _______ _____ _____    ______ ____
ROOT
ATOM      1  O   UNL     1       5.050   2.100  20.497  0.00  0.00    +0.000 OA
ATOM      2  C   UNL     1       4.749   2.942  19.660  0.00  0.00    +0.000 A 
ATOM      3  N   UNL     1       5.685   3.672  18.989  0.00  0.00    +0.000 N 
ATOM      4  C   UNL     1       5.344   4.621  18.080  0.00  0.00    +0.000 A 
ATOM      5  N   UNL     1       4.130   4.902  17.748  0.00  0.00    +0.000 NA
ATOM      6  C   UNL     1       3.132   4.177  18.359  0.00  0.00    +0.000 A 
ATOM      7  C   UNL     1       3.343   3.235  19.299  0.00  0.00    +0.000 A 
ATOM      8  C   UNL     1       2.255   2.462  19.991  0.00  0.00    +0.000 C 
ATOM      9  C   UNL     1       0.854   3.020  19.717  0.00  0.00    +0.000 C 
ATOM     10  C   UNL     1       0.706   3.415  18.252  0.00  0.00    +0.000 C 
ATOM     11  C   UNL     1       1.733   4.486  17.878  0.00  0.00    +0.000 C 
ATOM     12  H   UNL     1       6.657   3.497  19.194  0.00  0.00    +0.000 HD
ENDROOT
BRANCH   4  13
ATOM     13  S   UNL     1       6.729   5.412  17.386  0.00  0.00    +0.000 S 
BRANCH  13  14
ATOM     14  C   UNL     1       6.005   6.087  15.862  0.00  0.00    +0.000 C 
BRANCH  14  15
ATOM     15  C   UNL     1       6.199   5.158  14.679  0.00  0.00    +0.000 A 
ATOM     16  C   UNL     1       7.377   5.211  13.917  0.00  0.00    +0.000 A 
ATOM     17  C   UNL     1       7.562   4.353  12.828  0.00  0.00    +0.000 A 
ATOM     18  C   UNL     1       6.570   3.438  12.490  0.00  0.00    +0.000 A 
ATOM     19 BR   UNL     1       6.821   2.279  11.016  0.00  0.00    +0.000 Br
ATOM     20  C   UNL     1       5.392   3.372  13.231  0.00  0.00    +0.000 A 
ATOM     21  C   UNL     1       5.206   4.230  14.320  0.00  0.00    +0.000 A 
ENDBRANCH  14  15
ENDBRANCH  13  14
ENDBRANCH   4  13
TORSDOF 3
ENDMDL
MODEL 8
REMARK VINA RESULT:      -6.8      3.603      6.971
REMARK  Name = 
REMARK  3 active torsions:
REMARK  status: ('A' for Active; 'I' for Inactive)
REMARK    1  A    between atoms: C_4  and  S_5
REMARK    2  A    between atoms: S_5  and  C_6
REMARK    3  A    between atoms: C_6  and  C_7
REMARK                            x       y       z     vdW  Elec       q    Type
REMARK                         _______ _______ _______ _____ _____    ______ ____
ROOT
ATOM      1  O   UNL     1       8.922   5.837  13.395  0.00  0.00    +0.000 OA
ATOM      2  C   UNL     1       7.909   5.440  13.955  0.00  0.00    +0.000 A 
ATOM      3  N   UNL     1       7.582   5.813  15.225  0.00  0.00    +0.000 N 
ATOM      4  C   UNL     1       6.470   5.348  15.850  0.00  0.00    +0.000 A 
ATOM      5  N   UNL     1       5.616   4.548  15.308  0.00  0.00    +0.000 NA
ATOM      6  C   UNL     1       5.863   4.157  14.011  0.00  0.00    +0.000 A 
ATOM      7  C   UNL     1       6.947   4.524  13.300  0.00  0.00    +0.000 A 
ATOM      8  C   UNL     1       7.237   4.075  11.895  0.00  0.00    +0.000 C 
ATOM      9  C   UNL     1       6.311   2.950  11.419  0.00  0.00    +0.000 C 
ATOM     10  C   UNL     1       4.876   3.206  11.867  0.00  0.00    +0.000 C 
ATOM     11  C   UNL     1       4.794   3.285  13.393  0.00  0.00    +0.000 C 
ATOM     12  H   UNL     1       8.202   6.446  15.706  0.00  0.00    +0.000 HD
ENDROOT
BRANCH   4  13
ATOM     13  S   UNL     1       6.300   5.969  17.466  0.00  0.00    +0.000 S 
BRANCH  13  14
ATOM     14  C   UNL     1       4.520   6.335  17.504  0.00  0.00    +0.000 C 
BRANCH  14  15
ATOM     15  C   UNL     1       3.779   5.456  18.491  0.00  0.00    +0.000 A 
ATOM     16  C   UNL     1       3.939   4.061  18.464  0.00  0.00    +0.000 A 
ATOM     17  C   UNL     1       3.260   3.246  19.376  0.00  0.00    +0.000 A 
ATOM     18  C   UNL     1       2.414   3.818  20.321  0.00  0.00    +0.000 A 
ATOM     19 BR   UNL     1       1.496   2.715  21.552  0.00  0.00    +0.000 Br
ATOM     20  C   UNL     1       2.238   5.199  20.362  0.00  0.00    +0.000 A 
ATOM     21  C   UNL     1       2.917   6.015  19.450  0.00  0.00    +0.000 A 
ENDBRANCH  14  15
ENDBRANCH  13  14
ENDBRANCH   4  13
TORSDOF 3
ENDMDL
MODEL 9
REMARK VINA RESULT:      -6.8      3.886      4.960
REMARK  Name = 
REMARK  3 active torsions:
REMARK  status: ('A' for Active; 'I' for Inactive)
REMARK    1  A    between atoms: C_4  and  S_5
REMARK    2  A    between atoms: S_5  and  C_6
REMARK    3  A    between atoms: C_6  and  C_7
REMARK                            x       y       z     vdW  Elec       q    Type
REMARK                         _______ _______ _______ _____ _____    ______ ____
ROOT
ATOM      1  O   UNL     1       1.945   9.576  17.431  0.00  0.00    +0.000 OA
ATOM      2  C   UNL     1       1.829   8.898  18.445  0.00  0.00    +0.000 A 
ATOM      3  N   UNL     1       2.398   7.666  18.567  0.00  0.00    +0.000 N 
ATOM      4  C   UNL     1       2.245   6.908  19.683  0.00  0.00    +0.000 A 
ATOM      5  N   UNL     1       1.583   7.280  20.726  0.00  0.00    +0.000 NA
ATOM      6  C   UNL     1       1.010   8.531  20.687  0.00  0.00    +0.000 A 
ATOM      7  C   UNL     1       1.065   9.360  19.626  0.00  0.00    +0.000 A 
ATOM      8  C   UNL     1       0.414  10.714  19.567  0.00  0.00    +0.000 C 
ATOM      9  C   UNL     1      -0.541  10.974  20.737  0.00  0.00    +0.000 C 
ATOM     10  C   UNL     1       0.052  10.460  22.044  0.00  0.00    +0.000 C 
ATOM     11  C   UNL     1       0.314   8.954  21.960  0.00  0.00    +0.000 C 
ATOM     12  H   UNL     1       2.939   7.316  17.792  0.00  0.00    +0.000 HD
ENDROOT
BRANCH   4  13
ATOM     13  S   UNL     1       3.062   5.376  19.571  0.00  0.00    +0.000 S 
BRANCH  13  14
ATOM     14  C   UNL     1       4.709   5.910  19.019  0.00  0.00    +0.000 C 
BRANCH  14  15
ATOM     15  C   UNL     1       5.032   5.411  17.625  0.00  0.00    +0.000 A 
ATOM     16  C   UNL     1       5.162   6.313  16.557  0.00  0.00    +0.000 A 
ATOM     17  C   UNL     1       5.465   5.858  15.269  0.00  0.00    +0.000 A 
ATOM     18  C   UNL     1       5.638   4.497  15.038  0.00  0.00    +0.000 A 
ATOM     19 BR   UNL     1       6.046   3.882  13.297  0.00  0.00    +0.000 Br
ATOM     20  C   UNL     1       5.509   3.585  16.083  0.00  0.00    +0.000 A 
ATOM     21  C   UNL     1       5.206   4.040  17.371  0.00  0.00    +0.000 A 
ENDBRANCH  14  15
ENDBRANCH  13  14
ENDBRANCH   4  13
TORSDOF 3
ENDMDL
