MODEL 1
REMARK VINA RESULT:      -8.1      0.000      0.000
REMARK  Name = 
REMARK  17 active torsions:
REMARK  status: ('A' for Active; 'I' for Inactive)
REMARK    1  A    between atoms: C_1  and  C_2
REMARK    2  A    between atoms: C_2  and  C_3
REMARK    3  A    between atoms: C_3  and  C_4
REMARK    4  A    between atoms: C_4  and  O_5
REMARK    5  A    between atoms: O_5  and  C_6
REMARK    6  A    between atoms: C_6  and  C_8
REMARK    7  A    between atoms: C_8  and  C_10
REMARK    8  A    between atoms: C_10  and  C_11
REMARK    9  A    between atoms: C_10  and  C_28
REMARK   10  A    between atoms: C_11  and  C_12
REMARK   11  A    between atoms: C_12  and  C_13
REMARK   12  A    between atoms: C_12  and  C_22
REMARK   13  A    between atoms: C_13  and  C_15
REMARK   14  A    between atoms: C_15  and  C_16
REMARK   15  A    between atoms: C_28  and  C_30
REMARK   16  A    between atoms: C_31  and  C_32
REMARK   17  A    between atoms: C_31  and  C_33
REMARK                            x       y       z     vdW  Elec       q    Type
REMARK                         _______ _______ _______ _____ _____    ______ ____
ROOT
ATOM      1  C   UNL     1       3.946   6.502  18.057  0.00  0.00    +0.000 C 
ENDROOT
BRANCH   1   2
ATOM      2  C   UNL     1       5.453   6.136  18.181  0.00  0.00    +0.000 C 
BRANCH   2   3
ATOM      3  C   UNL     1       6.327   6.199  16.921  0.00  0.00    +0.000 C 
ATOM      4  O   UNL     1       7.548   6.264  16.941  0.00  0.00    +0.000 OA
BRANCH   3   5
ATOM      5  C   UNL     1       5.597   5.940  15.580  0.00  0.00    +0.000 C 
ATOM      6  O   UNL     1       5.134   6.871  14.930  0.00  0.00    +0.000 OA
BRANCH   5   7
ATOM      7  O   UNL     1       5.397   4.624  15.340  0.00  0.00    +0.000 OA
BRANCH   7   8
ATOM      8  C   UNL     1       5.118   4.221  13.978  0.00  0.00    +0.000 C 
BRANCH   8   9
ATOM      9  C   UNL     1       6.300   3.676  13.172  0.00  0.00    +0.000 C 
BRANCH   9  11
ATOM     10  C   UNL     1       4.442   3.199  11.531  0.00  0.00    +0.000 C 
ATOM     11  C   UNL     1       5.927   3.015  11.843  0.00  0.00    +0.000 C 
ENDBRANCH   9  11
ENDBRANCH   8   9
ENDBRANCH   7   8
ENDBRANCH   5   7
ENDBRANCH   3   5
ENDBRANCH   2   3
BRANCH   2  12
ATOM     12  C   UNL     1       5.597   4.815  18.905  0.00  0.00    +0.000 C 
ATOM     13  O   UNL     1       6.339   4.737  19.883  0.00  0.00    +0.000 OA
BRANCH  12  14
ATOM     14  C   UNL     1       4.905   3.616  18.330  0.00  0.00    +0.000 C 
ATOM     15  C   UNL     1       4.443   2.554  19.024  0.00  0.00    +0.000 C 
ATOM     16  C   UNL     1       4.456   2.401  20.525  0.00  0.00    +0.000 C 
ATOM     17  C   UNL     1       3.841   1.364  18.324  0.00  0.00    +0.000 C 
ENDBRANCH  12  14
ENDBRANCH   2  12
ENDBRANCH   1   2
BRANCH   1  18
ATOM     18  C   UNL     1       2.988   6.395  19.281  0.00  0.00    +0.000 C 
BRANCH  18  19
ATOM     19  C   UNL     1       1.990   5.252  19.356  0.00  0.00    +0.000 A 
ATOM     20  C   UNL     1       1.596   4.616  18.164  0.00  0.00    +0.000 A 
ATOM     21  C   UNL     1       0.924   3.393  18.197  0.00  0.00    +0.000 A 
ATOM     22  C   UNL     1       0.617   2.799  19.418  0.00  0.00    +0.000 A 
ATOM     23  C   UNL     1       0.957   3.440  20.606  0.00  0.00    +0.000 A 
ATOM     24  C   UNL     1       1.644   4.654  20.575  0.00  0.00    +0.000 A 
ENDBRANCH  18  19
BRANCH  18  25
ATOM     25  C   UNL     1       2.157   7.707  19.345  0.00  0.00    +0.000 C 
ATOM     26  O   UNL     1       1.617   8.087  20.390  0.00  0.00    +0.000 OA
BRANCH  25  27
ATOM     27  C   UNL     1       2.008   8.515  18.067  0.00  0.00    +0.000 C 
BRANCH  27  28
ATOM     28  C   UNL     1       1.122   9.722  18.258  0.00  0.00    +0.000 A 
ATOM     29  C   UNL     1      -0.263   9.623  18.061  0.00  0.00    +0.000 A 
ATOM     30  C   UNL     1      -1.083  10.744  18.196  0.00  0.00    +0.000 A 
ATOM     31  C   UNL     1      -0.526  11.974  18.536  0.00  0.00    +0.000 A 
ATOM     32  C   UNL     1       0.848  12.083  18.742  0.00  0.00    +0.000 A 
ATOM     33  C   UNL     1       1.671  10.963  18.603  0.00  0.00    +0.000 A 
ENDBRANCH  27  28
ENDBRANCH  25  27
ENDBRANCH  18  25
ENDBRANCH   1  18
TORSDOF 14
ENDMDL
MODEL 2
REMARK VINA RESULT:      -8.1      1.766      3.409
REMARK  Name = 
REMARK  17 active torsions:
REMARK  status: ('A' for Active; 'I' for Inactive)
REMARK    1  A    between atoms: C_1  and  C_2
REMARK    2  A    between atoms: C_2  and  C_3
REMARK    3  A    between atoms: C_3  and  C_4
REMARK    4  A    between atoms: C_4  and  O_5
REMARK    5  A    between atoms: O_5  and  C_6
REMARK    6  A    between atoms: C_6  and  C_8
REMARK    7  A    between atoms: C_8  and  C_10
REMARK    8  A    between atoms: C_10  and  C_11
REMARK    9  A    between atoms: C_10  and  C_28
REMARK   10  A    between atoms: C_11  and  C_12
REMARK   11  A    between atoms: C_12  and  C_13
REMARK   12  A    between atoms: C_12  and  C_22
REMARK   13  A    between atoms: C_13  and  C_15
REMARK   14  A    between atoms: C_15  and  C_16
REMARK   15  A    between atoms: C_28  and  C_30
REMARK   16  A    between atoms: C_31  and  C_32
REMARK   17  A    between atoms: C_31  and  C_33
REMARK                            x       y       z     vdW  Elec       q    Type
REMARK                         _______ _______ _______ _____ _____    ______ ____
ROOT
ATOM      1  C   UNL     1       3.597   6.534  17.960  0.00  0.00    +0.000 C 
ENDROOT
BRANCH   1   2
ATOM      2  C   UNL     1       5.088   6.118  17.802  0.00  0.00    +0.000 C 
BRANCH   2   3
ATOM      3  C   UNL     1       5.716   6.162  16.402  0.00  0.00    +0.000 C 
ATOM      4  O   UNL     1       5.115   6.509  15.397  0.00  0.00    +0.000 OA
BRANCH   3   5
ATOM      5  C   UNL     1       7.250   5.959  16.344  0.00  0.00    +0.000 C 
ATOM      6  O   UNL     1       7.731   4.833  16.283  0.00  0.00    +0.000 OA
BRANCH   5   7
ATOM      7  O   UNL     1       7.937   7.109  16.543  0.00  0.00    +0.000 OA
BRANCH   7   8
ATOM      8  C   UNL     1       7.528   7.957  17.643  0.00  0.00    +0.000 C 
BRANCH   8   9
ATOM      9  C   UNL     1       8.212   9.322  17.742  0.00  0.00    +0.000 C 
BRANCH   9  11
ATOM     10  C   UNL     1       9.462  11.001  19.154  0.00  0.00    +0.000 C 
ATOM     11  C   UNL     1       9.043   9.538  19.009  0.00  0.00    +0.000 C 
ENDBRANCH   9  11
ENDBRANCH   8   9
ENDBRANCH   7   8
ENDBRANCH   5   7
ENDBRANCH   3   5
ENDBRANCH   2   3
BRANCH   2  12
ATOM     12  C   UNL     1       5.318   4.787  18.485  0.00  0.00    +0.000 C 
ATOM     13  O   UNL     1       6.194   4.689  19.343  0.00  0.00    +0.000 OA
BRANCH  12  14
ATOM     14  C   UNL     1       4.533   3.603  18.005  0.00  0.00    +0.000 C 
ATOM     15  C   UNL     1       4.246   2.495  18.721  0.00  0.00    +0.000 C 
ATOM     16  C   UNL     1       4.586   2.264  20.173  0.00  0.00    +0.000 C 
ATOM     17  C   UNL     1       3.521   1.329  18.102  0.00  0.00    +0.000 C 
ENDBRANCH  12  14
ENDBRANCH   2  12
ENDBRANCH   1   2
BRANCH   1  18
ATOM     18  C   UNL     1       2.917   6.575  19.359  0.00  0.00    +0.000 C 
BRANCH  18  19
ATOM     19  C   UNL     1       2.075   5.397  19.820  0.00  0.00    +0.000 A 
ATOM     20  C   UNL     1       1.313   4.694  18.868  0.00  0.00    +0.000 A 
ATOM     21  C   UNL     1       0.764   3.447  19.173  0.00  0.00    +0.000 A 
ATOM     22  C   UNL     1       0.950   2.895  20.437  0.00  0.00    +0.000 A 
ATOM     23  C   UNL     1       1.660   3.599  21.405  0.00  0.00    +0.000 A 
ATOM     24  C   UNL     1       2.224   4.838  21.097  0.00  0.00    +0.000 A 
ENDBRANCH  18  19
BRANCH  18  25
ATOM     25  C   UNL     1       1.984   7.818  19.395  0.00  0.00    +0.000 C 
ATOM     26  O   UNL     1       1.384   8.155  20.422  0.00  0.00    +0.000 OA
BRANCH  25  27
ATOM     27  C   UNL     1       1.814   8.613  18.112  0.00  0.00    +0.000 C 
BRANCH  27  28
ATOM     28  C   UNL     1       0.912   9.809  18.300  0.00  0.00    +0.000 A 
ATOM     29  C   UNL     1      -0.455   9.722  17.998  0.00  0.00    +0.000 A 
ATOM     30  C   UNL     1      -1.286  10.834  18.131  0.00  0.00    +0.000 A 
ATOM     31  C   UNL     1      -0.759  12.045  18.573  0.00  0.00    +0.000 A 
ATOM     32  C   UNL     1       0.596  12.142  18.884  0.00  0.00    +0.000 A 
ATOM     33  C   UNL     1       1.431  11.031  18.748  0.00  0.00    +0.000 A 
ENDBRANCH  27  28
ENDBRANCH  25  27
ENDBRANCH  18  25
ENDBRANCH   1  18
TORSDOF 14
ENDMDL
MODEL 3
REMARK VINA RESULT:      -7.9      1.614      4.187
REMARK  Name = 
REMARK  17 active torsions:
REMARK  status: ('A' for Active; 'I' for Inactive)
REMARK    1  A    between atoms: C_1  and  C_2
REMARK    2  A    between atoms: C_2  and  C_3
REMARK    3  A    between atoms: C_3  and  C_4
REMARK    4  A    between atoms: C_4  and  O_5
REMARK    5  A    between atoms: O_5  and  C_6
REMARK    6  A    between atoms: C_6  and  C_8
REMARK    7  A    between atoms: C_8  and  C_10
REMARK    8  A    between atoms: C_10  and  C_11
REMARK    9  A    between atoms: C_10  and  C_28
REMARK   10  A    between atoms: C_11  and  C_12
REMARK   11  A    between atoms: C_12  and  C_13
REMARK   12  A    between atoms: C_12  and  C_22
REMARK   13  A    between atoms: C_13  and  C_15
REMARK   14  A    between atoms: C_15  and  C_16
REMARK   15  A    between atoms: C_28  and  C_30
REMARK   16  A    between atoms: C_31  and  C_32
REMARK   17  A    between atoms: C_31  and  C_33
REMARK                            x       y       z     vdW  Elec       q    Type
REMARK                         _______ _______ _______ _____ _____    ______ ____
ROOT
ATOM      1  C   UNL     1       3.741   6.364  17.427  0.00  0.00    +0.000 C 
ENDROOT
BRANCH   1   2
ATOM      2  C   UNL     1       4.847   5.351  17.012  0.00  0.00    +0.000 C 
BRANCH   2   3
ATOM      3  C   UNL     1       6.042   5.146  17.954  0.00  0.00    +0.000 C 
ATOM      4  O   UNL     1       5.935   4.837  19.132  0.00  0.00    +0.000 OA
BRANCH   3   5
ATOM      5  C   UNL     1       7.436   5.124  17.280  0.00  0.00    +0.000 C 
ATOM      6  O   UNL     1       7.916   4.073  16.869  0.00  0.00    +0.000 OA
BRANCH   5   7
ATOM      7  O   UNL     1       8.079   6.311  17.372  0.00  0.00    +0.000 OA
BRANCH   7   8
ATOM      8  C   UNL     1       7.368   7.420  17.972  0.00  0.00    +0.000 C 
BRANCH   8   9
ATOM      9  C   UNL     1       7.878   8.822  17.633  0.00  0.00    +0.000 C 
BRANCH   9  11
ATOM     10  C   UNL     1       9.125  10.901  18.335  0.00  0.00    +0.000 C 
ATOM     11  C   UNL     1       8.783   9.455  18.692  0.00  0.00    +0.000 C 
ENDBRANCH   9  11
ENDBRANCH   8   9
ENDBRANCH   7   8
ENDBRANCH   5   7
ENDBRANCH   3   5
ENDBRANCH   2   3
BRANCH   2  12
ATOM     12  C   UNL     1       5.287   5.635  15.592  0.00  0.00    +0.000 C 
ATOM     13  O   UNL     1       5.517   6.793  15.248  0.00  0.00    +0.000 OA
BRANCH  12  14
ATOM     14  C   UNL     1       5.321   4.491  14.623  0.00  0.00    +0.000 C 
ATOM     15  C   UNL     1       6.268   4.270  13.687  0.00  0.00    +0.000 C 
ATOM     16  C   UNL     1       7.524   5.081  13.485  0.00  0.00    +0.000 C 
ATOM     17  C   UNL     1       6.150   3.131  12.708  0.00  0.00    +0.000 C 
ENDBRANCH  12  14
ENDBRANCH   2  12
ENDBRANCH   1   2
BRANCH   1  18
ATOM     18  C   UNL     1       3.135   6.351  18.862  0.00  0.00    +0.000 C 
BRANCH  18  19
ATOM     19  C   UNL     1       2.239   5.200  19.288  0.00  0.00    +0.000 A 
ATOM     20  C   UNL     1       1.652   4.394  18.296  0.00  0.00    +0.000 A 
ATOM     21  C   UNL     1       1.070   3.168  18.625  0.00  0.00    +0.000 A 
ATOM     22  C   UNL     1       1.050   2.739  19.949  0.00  0.00    +0.000 A 
ATOM     23  C   UNL     1       1.583   3.548  20.949  0.00  0.00    +0.000 A 
ATOM     24  C   UNL     1       2.180   4.766  20.620  0.00  0.00    +0.000 A 
ENDBRANCH  18  19
BRANCH  18  25
ATOM     25  C   UNL     1       2.293   7.646  19.031  0.00  0.00    +0.000 C 
ATOM     26  O   UNL     1       1.808   7.973  20.121  0.00  0.00    +0.000 OA
BRANCH  25  27
ATOM     27  C   UNL     1       2.064   8.507  17.801  0.00  0.00    +0.000 C 
BRANCH  27  28
ATOM     28  C   UNL     1       1.198   9.707  18.101  0.00  0.00    +0.000 A 
ATOM     29  C   UNL     1       1.779  10.915  18.516  0.00  0.00    +0.000 A 
ATOM     30  C   UNL     1       0.982  12.015  18.834  0.00  0.00    +0.000 A 
ATOM     31  C   UNL     1      -0.404  11.920  18.734  0.00  0.00    +0.000 A 
ATOM     32  C   UNL     1      -0.992  10.728  18.315  0.00  0.00    +0.000 A 
ATOM     33  C   UNL     1      -0.196   9.625  18.000  0.00  0.00    +0.000 A 
ENDBRANCH  27  28
ENDBRANCH  25  27
ENDBRANCH  18  25
ENDBRANCH   1  18
TORSDOF 14
ENDMDL
MODEL 4
REMARK VINA RESULT:      -7.8      0.570      1.045
REMARK  Name = 
REMARK  17 active torsions:
REMARK  status: ('A' for Active; 'I' for Inactive)
REMARK    1  A    between atoms: C_1  and  C_2
REMARK    2  A    between atoms: C_2  and  C_3
REMARK    3  A    between atoms: C_3  and  C_4
REMARK    4  A    between atoms: C_4  and  O_5
REMARK    5  A    between atoms: O_5  and  C_6
REMARK    6  A    between atoms: C_6  and  C_8
REMARK    7  A    between atoms: C_8  and  C_10
REMARK    8  A    between atoms: C_10  and  C_11
REMARK    9  A    between atoms: C_10  and  C_28
REMARK   10  A    between atoms: C_11  and  C_12
REMARK   11  A    between atoms: C_12  and  C_13
REMARK   12  A    between atoms: C_12  and  C_22
REMARK   13  A    between atoms: C_13  and  C_15
REMARK   14  A    between atoms: C_15  and  C_16
REMARK   15  A    between atoms: C_28  and  C_30
REMARK   16  A    between atoms: C_31  and  C_32
REMARK   17  A    between atoms: C_31  and  C_33
REMARK                            x       y       z     vdW  Elec       q    Type
REMARK                         _______ _______ _______ _____ _____    ______ ____
ROOT
ATOM      1  C   UNL     1       3.955   6.533  17.899  0.00  0.00    +0.000 C 
ENDROOT
BRANCH   1   2
ATOM      2  C   UNL     1       5.452   6.124  18.016  0.00  0.00    +0.000 C 
BRANCH   2   3
ATOM      3  C   UNL     1       6.312   6.125  16.745  0.00  0.00    +0.000 C 
ATOM      4  O   UNL     1       7.525   5.971  16.743  0.00  0.00    +0.000 OA
BRANCH   3   5
ATOM      5  C   UNL     1       5.536   6.103  15.405  0.00  0.00    +0.000 C 
ATOM      6  O   UNL     1       4.944   7.101  15.008  0.00  0.00    +0.000 OA
BRANCH   5   7
ATOM      7  O   UNL     1       5.456   4.863  14.868  0.00  0.00    +0.000 OA
BRANCH   7   8
ATOM      8  C   UNL     1       6.449   4.489  13.883  0.00  0.00    +0.000 C 
BRANCH   8   9
ATOM      9  C   UNL     1       6.135   3.256  13.032  0.00  0.00    +0.000 C 
BRANCH   9  11
ATOM     10  C   UNL     1       6.775   1.785  11.083  0.00  0.00    +0.000 C 
ATOM     11  C   UNL     1       6.894   3.175  11.706  0.00  0.00    +0.000 C 
ENDBRANCH   9  11
ENDBRANCH   8   9
ENDBRANCH   7   8
ENDBRANCH   5   7
ENDBRANCH   3   5
ENDBRANCH   2   3
BRANCH   2  12
ATOM     12  C   UNL     1       5.564   4.819  18.774  0.00  0.00    +0.000 C 
ATOM     13  O   UNL     1       6.263   4.762  19.784  0.00  0.00    +0.000 OA
BRANCH  12  14
ATOM     14  C   UNL     1       4.896   3.608  18.196  0.00  0.00    +0.000 C 
ATOM     15  C   UNL     1       4.379   2.575  18.894  0.00  0.00    +0.000 C 
ATOM     16  C   UNL     1       4.294   2.473  20.397  0.00  0.00    +0.000 C 
ATOM     17  C   UNL     1       3.808   1.367  18.198  0.00  0.00    +0.000 C 
ENDBRANCH  12  14
ENDBRANCH   2  12
ENDBRANCH   1   2
BRANCH   1  18
ATOM     18  C   UNL     1       3.000   6.449  19.126  0.00  0.00    +0.000 C 
BRANCH  18  19
ATOM     19  C   UNL     1       1.981   5.324  19.208  0.00  0.00    +0.000 A 
ATOM     20  C   UNL     1       1.623   4.646  18.029  0.00  0.00    +0.000 A 
ATOM     21  C   UNL     1       0.930   3.434  18.086  0.00  0.00    +0.000 A 
ATOM     22  C   UNL     1       0.568   2.896  19.317  0.00  0.00    +0.000 A 
ATOM     23  C   UNL     1       0.872   3.580  20.491  0.00  0.00    +0.000 A 
ATOM     24  C   UNL     1       1.579   4.781  20.437  0.00  0.00    +0.000 A 
ENDBRANCH  18  19
BRANCH  18  25
ATOM     25  C   UNL     1       2.192   7.775  19.186  0.00  0.00    +0.000 C 
ATOM     26  O   UNL     1       1.724   8.207  20.247  0.00  0.00    +0.000 OA
BRANCH  25  27
ATOM     27  C   UNL     1       1.975   8.533  17.888  0.00  0.00    +0.000 C 
BRANCH  27  28
ATOM     28  C   UNL     1       1.281   9.855  18.111  0.00  0.00    +0.000 A 
ATOM     29  C   UNL     1       2.028  11.022  18.322  0.00  0.00    +0.000 A 
ATOM     30  C   UNL     1       1.393  12.240  18.569  0.00  0.00    +0.000 A 
ATOM     31  C   UNL     1       0.002  12.303  18.601  0.00  0.00    +0.000 A 
ATOM     32  C   UNL     1      -0.752  11.151  18.384  0.00  0.00    +0.000 A 
ATOM     33  C   UNL     1      -0.117   9.930  18.141  0.00  0.00    +0.000 A 
ENDBRANCH  27  28
ENDBRANCH  25  27
ENDBRANCH  18  25
ENDBRANCH   1  18
TORSDOF 14
ENDMDL
MODEL 5
REMARK VINA RESULT:      -7.6      2.448      4.448
REMARK  Name = 
REMARK  17 active torsions:
REMARK  status: ('A' for Active; 'I' for Inactive)
REMARK    1  A    between atoms: C_1  and  C_2
REMARK    2  A    between atoms: C_2  and  C_3
REMARK    3  A    between atoms: C_3  and  C_4
REMARK    4  A    between atoms: C_4  and  O_5
REMARK    5  A    between atoms: O_5  and  C_6
REMARK    6  A    between atoms: C_6  and  C_8
REMARK    7  A    between atoms: C_8  and  C_10
REMARK    8  A    between atoms: C_10  and  C_11
REMARK    9  A    between atoms: C_10  and  C_28
REMARK   10  A    between atoms: C_11  and  C_12
REMARK   11  A    between atoms: C_12  and  C_13
REMARK   12  A    between atoms: C_12  and  C_22
REMARK   13  A    between atoms: C_13  and  C_15
REMARK   14  A    between atoms: C_15  and  C_16
REMARK   15  A    between atoms: C_28  and  C_30
REMARK   16  A    between atoms: C_31  and  C_32
REMARK   17  A    between atoms: C_31  and  C_33
REMARK                            x       y       z     vdW  Elec       q    Type
REMARK                         _______ _______ _______ _____ _____    ______ ____
ROOT
ATOM      1  C   UNL     1       3.918   6.464  18.044  0.00  0.00    +0.000 C 
ENDROOT
BRANCH   1   2
ATOM      2  C   UNL     1       5.442   6.147  18.021  0.00  0.00    +0.000 C 
BRANCH   2   3
ATOM      3  C   UNL     1       6.372   7.087  17.242  0.00  0.00    +0.000 C 
ATOM      4  O   UNL     1       6.071   7.623  16.186  0.00  0.00    +0.000 OA
BRANCH   3   5
ATOM      5  C   UNL     1       7.662   7.523  17.979  0.00  0.00    +0.000 C 
ATOM      6  O   UNL     1       8.172   6.800  18.829  0.00  0.00    +0.000 OA
BRANCH   5   7
ATOM      7  O   UNL     1       8.014   8.801  17.706  0.00  0.00    +0.000 OA
BRANCH   7   8
ATOM      8  C   UNL     1       8.842   9.494  18.670  0.00  0.00    +0.000 C 
BRANCH   8   9
ATOM      9  C   UNL     1       9.125  10.972  18.389  0.00  0.00    +0.000 C 
BRANCH   9  11
ATOM     10  C   UNL     1      11.476  11.667  18.987  0.00  0.00    +0.000 C 
ATOM     11  C   UNL     1      10.528  11.272  17.856  0.00  0.00    +0.000 C 
ENDBRANCH   9  11
ENDBRANCH   8   9
ENDBRANCH   7   8
ENDBRANCH   5   7
ENDBRANCH   3   5
ENDBRANCH   2   3
BRANCH   2  12
ATOM     12  C   UNL     1       5.652   4.698  17.640  0.00  0.00    +0.000 C 
ATOM     13  O   UNL     1       6.292   3.961  18.389  0.00  0.00    +0.000 OA
BRANCH  12  14
ATOM     14  C   UNL     1       5.160   4.242  16.300  0.00  0.00    +0.000 C 
ATOM     15  C   UNL     1       5.861   4.259  15.146  0.00  0.00    +0.000 C 
ATOM     16  C   UNL     1       7.307   4.661  14.992  0.00  0.00    +0.000 C 
ATOM     17  C   UNL     1       5.229   3.855  13.840  0.00  0.00    +0.000 C 
ENDBRANCH  12  14
ENDBRANCH   2  12
ENDBRANCH   1   2
BRANCH   1  18
ATOM     18  C   UNL     1       3.082   6.298  19.347  0.00  0.00    +0.000 C 
BRANCH  18  19
ATOM     19  C   UNL     1       2.145   5.111  19.492  0.00  0.00    +0.000 A 
ATOM     20  C   UNL     1       1.745   4.417  18.335  0.00  0.00    +0.000 A 
ATOM     21  C   UNL     1       1.137   3.164  18.429  0.00  0.00    +0.000 A 
ATOM     22  C   UNL     1       0.901   2.596  19.678  0.00  0.00    +0.000 A 
ATOM     23  C   UNL     1       1.246   3.291  20.833  0.00  0.00    +0.000 A 
ATOM     24  C   UNL     1       1.870   4.536  20.740  0.00  0.00    +0.000 A 
ENDBRANCH  18  19
BRANCH  18  25
ATOM     25  C   UNL     1       2.203   7.570  19.509  0.00  0.00    +0.000 C 
ATOM     26  O   UNL     1       1.605   7.821  20.562  0.00  0.00    +0.000 OA
BRANCH  25  27
ATOM     27  C   UNL     1       2.083   8.505  18.318  0.00  0.00    +0.000 C 
BRANCH  27  28
ATOM     28  C   UNL     1       1.005   9.542  18.517  0.00  0.00    +0.000 A 
ATOM     29  C   UNL     1       1.186  10.586  19.436  0.00  0.00    +0.000 A 
ATOM     30  C   UNL     1       0.177  11.526  19.654  0.00  0.00    +0.000 A 
ATOM     31  C   UNL     1      -1.021  11.433  18.950  0.00  0.00    +0.000 A 
ATOM     32  C   UNL     1      -1.209  10.405  18.029  0.00  0.00    +0.000 A 
ATOM     33  C   UNL     1      -0.202   9.462  17.812  0.00  0.00    +0.000 A 
ENDBRANCH  27  28
ENDBRANCH  25  27
ENDBRANCH  18  25
ENDBRANCH   1  18
TORSDOF 14
ENDMDL
MODEL 6
REMARK VINA RESULT:      -7.5      2.290      4.858
REMARK  Name = 
REMARK  17 active torsions:
REMARK  status: ('A' for Active; 'I' for Inactive)
REMARK    1  A    between atoms: C_1  and  C_2
REMARK    2  A    between atoms: C_2  and  C_3
REMARK    3  A    between atoms: C_3  and  C_4
REMARK    4  A    between atoms: C_4  and  O_5
REMARK    5  A    between atoms: O_5  and  C_6
REMARK    6  A    between atoms: C_6  and  C_8
REMARK    7  A    between atoms: C_8  and  C_10
REMARK    8  A    between atoms: C_10  and  C_11
REMARK    9  A    between atoms: C_10  and  C_28
REMARK   10  A    between atoms: C_11  and  C_12
REMARK   11  A    between atoms: C_12  and  C_13
REMARK   12  A    between atoms: C_12  and  C_22
REMARK   13  A    between atoms: C_13  and  C_15
REMARK   14  A    between atoms: C_15  and  C_16
REMARK   15  A    between atoms: C_28  and  C_30
REMARK   16  A    between atoms: C_31  and  C_32
REMARK   17  A    between atoms: C_31  and  C_33
REMARK                            x       y       z     vdW  Elec       q    Type
REMARK                         _______ _______ _______ _____ _____    ______ ____
ROOT
ATOM      1  C   UNL     1       5.044   6.103  16.556  0.00  0.00    +0.000 C 
ENDROOT
BRANCH   1   2
ATOM      2  C   UNL     1       6.091   4.979  16.310  0.00  0.00    +0.000 C 
BRANCH   2   3
ATOM      3  C   UNL     1       7.348   4.944  17.190  0.00  0.00    +0.000 C 
ATOM      4  O   UNL     1       8.164   4.034  17.177  0.00  0.00    +0.000 OA
BRANCH   3   5
ATOM      5  C   UNL     1       7.672   6.250  17.956  0.00  0.00    +0.000 C 
ATOM      6  O   UNL     1       7.556   6.306  19.176  0.00  0.00    +0.000 OA
BRANCH   5   7
ATOM      7  O   UNL     1       7.905   7.296  17.130  0.00  0.00    +0.000 OA
BRANCH   7   8
ATOM      8  C   UNL     1       7.572   8.621  17.609  0.00  0.00    +0.000 C 
BRANCH   8   9
ATOM      9  C   UNL     1       8.650   9.345  18.418  0.00  0.00    +0.000 C 
BRANCH   9  11
ATOM     10  C   UNL     1      10.299  11.250  18.261  0.00  0.00    +0.000 C 
ATOM     11  C   UNL     1       8.847  10.820  18.060  0.00  0.00    +0.000 C 
ENDBRANCH   9  11
ENDBRANCH   8   9
ENDBRANCH   7   8
ENDBRANCH   5   7
ENDBRANCH   3   5
ENDBRANCH   2   3
BRANCH   2  12
ATOM     12  C   UNL     1       6.430   4.916  14.837  0.00  0.00    +0.000 C 
ATOM     13  O   UNL     1       7.446   5.472  14.423  0.00  0.00    +0.000 OA
BRANCH  12  14
ATOM     14  C   UNL     1       5.446   4.262  13.914  0.00  0.00    +0.000 C 
ATOM     15  C   UNL     1       5.713   3.767  12.686  0.00  0.00    +0.000 C 
ATOM     16  C   UNL     1       7.071   3.698  12.033  0.00  0.00    +0.000 C 
ATOM     17  C   UNL     1       4.620   3.209  11.812  0.00  0.00    +0.000 C 
ENDBRANCH  12  14
ENDBRANCH   2  12
ENDBRANCH   1   2
BRANCH   1  18
ATOM     18  C   UNL     1       4.272   6.202  17.905  0.00  0.00    +0.000 C 
BRANCH  18  19
ATOM     19  C   UNL     1       3.524   4.990  18.433  0.00  0.00    +0.000 A 
ATOM     20  C   UNL     1       3.508   4.754  19.820  0.00  0.00    +0.000 A 
ATOM     21  C   UNL     1       2.609   3.843  20.379  0.00  0.00    +0.000 A 
ATOM     22  C   UNL     1       1.729   3.141  19.559  0.00  0.00    +0.000 A 
ATOM     23  C   UNL     1       1.767   3.327  18.181  0.00  0.00    +0.000 A 
ATOM     24  C   UNL     1       2.653   4.250  17.623  0.00  0.00    +0.000 A 
ENDBRANCH  18  19
BRANCH  18  25
ATOM     25  C   UNL     1       3.220   7.337  17.764  0.00  0.00    +0.000 C 
ATOM     26  O   UNL     1       3.476   8.398  17.183  0.00  0.00    +0.000 OA
BRANCH  25  27
ATOM     27  C   UNL     1       1.850   7.113  18.381  0.00  0.00    +0.000 C 
BRANCH  27  28
ATOM     28  C   UNL     1       1.484   8.199  19.364  0.00  0.00    +0.000 A 
ATOM     29  C   UNL     1       1.155   9.485  18.910  0.00  0.00    +0.000 A 
ATOM     30  C   UNL     1       0.856  10.504  19.815  0.00  0.00    +0.000 A 
ATOM     31  C   UNL     1       0.877  10.246  21.183  0.00  0.00    +0.000 A 
ATOM     32  C   UNL     1       1.196   8.970  21.646  0.00  0.00    +0.000 A 
ATOM     33  C   UNL     1       1.499   7.950  20.742  0.00  0.00    +0.000 A 
ENDBRANCH  27  28
ENDBRANCH  25  27
ENDBRANCH  18  25
ENDBRANCH   1  18
TORSDOF 14
ENDMDL
MODEL 7
REMARK VINA RESULT:      -7.4      1.017      1.333
REMARK  Name = 
REMARK  17 active torsions:
REMARK  status: ('A' for Active; 'I' for Inactive)
REMARK    1  A    between atoms: C_1  and  C_2
REMARK    2  A    between atoms: C_2  and  C_3
REMARK    3  A    between atoms: C_3  and  C_4
REMARK    4  A    between atoms: C_4  and  O_5
REMARK    5  A    between atoms: O_5  and  C_6
REMARK    6  A    between atoms: C_6  and  C_8
REMARK    7  A    between atoms: C_8  and  C_10
REMARK    8  A    between atoms: C_10  and  C_11
REMARK    9  A    between atoms: C_10  and  C_28
REMARK   10  A    between atoms: C_11  and  C_12
REMARK   11  A    between atoms: C_12  and  C_13
REMARK   12  A    between atoms: C_12  and  C_22
REMARK   13  A    between atoms: C_13  and  C_15
REMARK   14  A    between atoms: C_15  and  C_16
REMARK   15  A    between atoms: C_28  and  C_30
REMARK   16  A    between atoms: C_31  and  C_32
REMARK   17  A    between atoms: C_31  and  C_33
REMARK                            x       y       z     vdW  Elec       q    Type
REMARK                         _______ _______ _______ _____ _____    ______ ____
ROOT
ATOM      1  C   UNL     1       3.682   6.611  18.096  0.00  0.00    +0.000 C 
ENDROOT
BRANCH   1   2
ATOM      2  C   UNL     1       5.039   5.870  17.920  0.00  0.00    +0.000 C 
BRANCH   2   3
ATOM      3  C   UNL     1       6.011   6.371  16.843  0.00  0.00    +0.000 C 
ATOM      4  O   UNL     1       6.360   7.537  16.730  0.00  0.00    +0.000 OA
BRANCH   3   5
ATOM      5  C   UNL     1       6.732   5.274  16.021  0.00  0.00    +0.000 C 
ATOM      6  O   UNL     1       7.635   4.611  16.519  0.00  0.00    +0.000 OA
BRANCH   5   7
ATOM      7  O   UNL     1       6.375   5.281  14.716  0.00  0.00    +0.000 OA
BRANCH   7   8
ATOM      8  C   UNL     1       6.059   4.011  14.097  0.00  0.00    +0.000 C 
BRANCH   8   9
ATOM      9  C   UNL     1       6.834   3.661  12.824  0.00  0.00    +0.000 C 
BRANCH   9  11
ATOM     10  C   UNL     1       4.479   3.372  11.960  0.00  0.00    +0.000 C 
ATOM     11  C   UNL     1       5.965   3.351  11.603  0.00  0.00    +0.000 C 
ENDBRANCH   9  11
ENDBRANCH   8   9
ENDBRANCH   7   8
ENDBRANCH   5   7
ENDBRANCH   3   5
ENDBRANCH   2   3
BRANCH   2  12
ATOM     12  C   UNL     1       4.793   4.381  17.811  0.00  0.00    +0.000 C 
ATOM     13  O   UNL     1       4.265   3.925  16.798  0.00  0.00    +0.000 OA
BRANCH  12  14
ATOM     14  C   UNL     1       5.107   3.525  19.002  0.00  0.00    +0.000 C 
ATOM     15  C   UNL     1       4.591   2.305  19.263  0.00  0.00    +0.000 C 
ATOM     16  C   UNL     1       3.662   1.524  18.369  0.00  0.00    +0.000 C 
ATOM     17  C   UNL     1       4.917   1.575  20.540  0.00  0.00    +0.000 C 
ENDBRANCH  12  14
ENDBRANCH   2  12
ENDBRANCH   1   2
BRANCH   1  18
ATOM     18  C   UNL     1       2.947   6.627  19.469  0.00  0.00    +0.000 C 
BRANCH  18  19
ATOM     19  C   UNL     1       2.134   5.417  19.899  0.00  0.00    +0.000 A 
ATOM     20  C   UNL     1       1.395   4.716  18.929  0.00  0.00    +0.000 A 
ATOM     21  C   UNL     1       0.878   3.449  19.204  0.00  0.00    +0.000 A 
ATOM     22  C   UNL     1       1.074   2.873  20.456  0.00  0.00    +0.000 A 
ATOM     23  C   UNL     1       1.761   3.574  21.442  0.00  0.00    +0.000 A 
ATOM     24  C   UNL     1       2.294   4.833  21.164  0.00  0.00    +0.000 A 
ENDBRANCH  18  19
BRANCH  18  25
ATOM     25  C   UNL     1       1.965   7.832  19.465  0.00  0.00    +0.000 C 
ATOM     26  O   UNL     1       1.291   8.129  20.458  0.00  0.00    +0.000 OA
BRANCH  25  27
ATOM     27  C   UNL     1       1.842   8.641  18.185  0.00  0.00    +0.000 C 
BRANCH  27  28
ATOM     28  C   UNL     1       0.923   9.827  18.349  0.00  0.00    +0.000 A 
ATOM     29  C   UNL     1      -0.411   9.756  17.921  0.00  0.00    +0.000 A 
ATOM     30  C   UNL     1      -1.254  10.862  18.032  0.00  0.00    +0.000 A 
ATOM     31  C   UNL     1      -0.773  12.049  18.580  0.00  0.00    +0.000 A 
ATOM     32  C   UNL     1       0.548  12.129  19.017  0.00  0.00    +0.000 A 
ATOM     33  C   UNL     1       1.394  11.024  18.902  0.00  0.00    +0.000 A 
ENDBRANCH  27  28
ENDBRANCH  25  27
ENDBRANCH  18  25
ENDBRANCH   1  18
TORSDOF 14
ENDMDL
MODEL 8
REMARK VINA RESULT:      -7.4      2.390      4.133
REMARK  Name = 
REMARK  17 active torsions:
REMARK  status: ('A' for Active; 'I' for Inactive)
REMARK    1  A    between atoms: C_1  and  C_2
REMARK    2  A    between atoms: C_2  and  C_3
REMARK    3  A    between atoms: C_3  and  C_4
REMARK    4  A    between atoms: C_4  and  O_5
REMARK    5  A    between atoms: O_5  and  C_6
REMARK    6  A    between atoms: C_6  and  C_8
REMARK    7  A    between atoms: C_8  and  C_10
REMARK    8  A    between atoms: C_10  and  C_11
REMARK    9  A    between atoms: C_10  and  C_28
REMARK   10  A    between atoms: C_11  and  C_12
REMARK   11  A    between atoms: C_12  and  C_13
REMARK   12  A    between atoms: C_12  and  C_22
REMARK   13  A    between atoms: C_13  and  C_15
REMARK   14  A    between atoms: C_15  and  C_16
REMARK   15  A    between atoms: C_28  and  C_30
REMARK   16  A    between atoms: C_31  and  C_32
REMARK   17  A    between atoms: C_31  and  C_33
REMARK                            x       y       z     vdW  Elec       q    Type
REMARK                         _______ _______ _______ _____ _____    ______ ____
ROOT
ATOM      1  C   UNL     1       3.964   6.733  17.772  0.00  0.00    +0.000 C 
ENDROOT
BRANCH   1   2
ATOM      2  C   UNL     1       5.332   6.020  17.977  0.00  0.00    +0.000 C 
BRANCH   2   3
ATOM      3  C   UNL     1       6.537   6.498  17.154  0.00  0.00    +0.000 C 
ATOM      4  O   UNL     1       6.560   6.521  15.932  0.00  0.00    +0.000 OA
BRANCH   3   5
ATOM      5  C   UNL     1       7.672   7.183  17.953  0.00  0.00    +0.000 C 
ATOM      6  O   UNL     1       8.231   6.596  18.874  0.00  0.00    +0.000 OA
BRANCH   5   7
ATOM      7  O   UNL     1       7.820   8.490  17.635  0.00  0.00    +0.000 OA
BRANCH   7   8
ATOM      8  C   UNL     1       8.653   9.303  18.495  0.00  0.00    +0.000 C 
BRANCH   8   9
ATOM      9  C   UNL     1       8.946  10.726  18.014  0.00  0.00    +0.000 C 
BRANCH   9  11
ATOM     10  C   UNL     1       9.150  13.039  19.004  0.00  0.00    +0.000 C 
ATOM     11  C   UNL     1       9.688  11.609  19.019  0.00  0.00    +0.000 C 
ENDBRANCH   9  11
ENDBRANCH   8   9
ENDBRANCH   7   8
ENDBRANCH   5   7
ENDBRANCH   3   5
ENDBRANCH   2   3
BRANCH   2  12
ATOM     12  C   UNL     1       5.143   4.522  17.886  0.00  0.00    +0.000 C 
ATOM     13  O   UNL     1       4.980   3.997  16.786  0.00  0.00    +0.000 OA
BRANCH  12  14
ATOM     14  C   UNL     1       5.051   3.744  19.165  0.00  0.00    +0.000 C 
ATOM     15  C   UNL     1       4.434   2.554  19.330  0.00  0.00    +0.000 C 
ATOM     16  C   UNL     1       3.787   1.732  18.244  0.00  0.00    +0.000 C 
ATOM     17  C   UNL     1       4.332   1.907  20.686  0.00  0.00    +0.000 C 
ENDBRANCH  12  14
ENDBRANCH   2  12
ENDBRANCH   1   2
BRANCH   1  18
ATOM     18  C   UNL     1       2.927   6.831  18.929  0.00  0.00    +0.000 C 
BRANCH  18  19
ATOM     19  C   UNL     1       2.011   5.654  19.218  0.00  0.00    +0.000 A 
ATOM     20  C   UNL     1       1.575   4.854  18.146  0.00  0.00    +0.000 A 
ATOM     21  C   UNL     1       0.986   3.609  18.378  0.00  0.00    +0.000 A 
ATOM     22  C   UNL     1       0.806   3.155  19.681  0.00  0.00    +0.000 A 
ATOM     23  C   UNL     1       1.188   3.956  20.754  0.00  0.00    +0.000 A 
ATOM     24  C   UNL     1       1.792   5.193  20.524  0.00  0.00    +0.000 A 
ENDBRANCH  18  19
BRANCH  18  25
ATOM     25  C   UNL     1       1.999   8.042  18.629  0.00  0.00    +0.000 C 
ATOM     26  O   UNL     1       1.783   8.430  17.475  0.00  0.00    +0.000 OA
BRANCH  25  27
ATOM     27  C   UNL     1       1.366   8.758  19.810  0.00  0.00    +0.000 C 
BRANCH  27  28
ATOM     28  C   UNL     1       0.665  10.029  19.394  0.00  0.00    +0.000 A 
ATOM     29  C   UNL     1      -0.723  10.040  19.190  0.00  0.00    +0.000 A 
ATOM     30  C   UNL     1      -1.371  11.201  18.767  0.00  0.00    +0.000 A 
ATOM     31  C   UNL     1      -0.638  12.364  18.548  0.00  0.00    +0.000 A 
ATOM     32  C   UNL     1       0.741  12.368  18.754  0.00  0.00    +0.000 A 
ATOM     33  C   UNL     1       1.392  11.206  19.174  0.00  0.00    +0.000 A 
ENDBRANCH  27  28
ENDBRANCH  25  27
ENDBRANCH  18  25
ENDBRANCH   1  18
TORSDOF 14
ENDMDL
MODEL 9
REMARK VINA RESULT:      -7.4      2.610      6.005
REMARK  Name = 
REMARK  17 active torsions:
REMARK  status: ('A' for Active; 'I' for Inactive)
REMARK    1  A    between atoms: C_1  and  C_2
REMARK    2  A    between atoms: C_2  and  C_3
REMARK    3  A    between atoms: C_3  and  C_4
REMARK    4  A    between atoms: C_4  and  O_5
REMARK    5  A    between atoms: O_5  and  C_6
REMARK    6  A    between atoms: C_6  and  C_8
REMARK    7  A    between atoms: C_8  and  C_10
REMARK    8  A    between atoms: C_10  and  C_11
REMARK    9  A    between atoms: C_10  and  C_28
REMARK   10  A    between atoms: C_11  and  C_12
REMARK   11  A    between atoms: C_12  and  C_13
REMARK   12  A    between atoms: C_12  and  C_22
REMARK   13  A    between atoms: C_13  and  C_15
REMARK   14  A    between atoms: C_15  and  C_16
REMARK   15  A    between atoms: C_28  and  C_30
REMARK   16  A    between atoms: C_31  and  C_32
REMARK   17  A    between atoms: C_31  and  C_33
REMARK                            x       y       z     vdW  Elec       q    Type
REMARK                         _______ _______ _______ _____ _____    ______ ____
ROOT
ATOM      1  C   UNL     1       4.983   6.694  17.722  0.00  0.00    +0.000 C 
ENDROOT
BRANCH   1   2
ATOM      2  C   UNL     1       6.027   6.080  16.744  0.00  0.00    +0.000 C 
BRANCH   2   3
ATOM      3  C   UNL     1       7.461   6.627  16.768  0.00  0.00    +0.000 C 
ATOM      4  O   UNL     1       8.201   6.639  15.795  0.00  0.00    +0.000 OA
BRANCH   3   5
ATOM      5  C   UNL     1       7.871   7.391  18.050  0.00  0.00    +0.000 C 
ATOM      6  O   UNL     1       8.262   6.786  19.042  0.00  0.00    +0.000 OA
BRANCH   5   7
ATOM      7  O   UNL     1       7.581   8.712  17.987  0.00  0.00    +0.000 OA
BRANCH   7   8
ATOM      8  C   UNL     1       8.687   9.645  17.946  0.00  0.00    +0.000 C 
BRANCH   8   9
ATOM      9  C   UNL     1       9.196  10.159  19.295  0.00  0.00    +0.000 C 
BRANCH   9  11
ATOM     10  C   UNL     1      10.526  11.671  17.774  0.00  0.00    +0.000 C 
ATOM     11  C   UNL     1      10.321  11.192  19.210  0.00  0.00    +0.000 C 
ENDBRANCH   9  11
ENDBRANCH   8   9
ENDBRANCH   7   8
ENDBRANCH   5   7
ENDBRANCH   3   5
ENDBRANCH   2   3
BRANCH   2  12
ATOM     12  C   UNL     1       5.454   6.052  15.344  0.00  0.00    +0.000 C 
ATOM     13  O   UNL     1       4.945   7.068  14.876  0.00  0.00    +0.000 OA
BRANCH  12  14
ATOM     14  C   UNL     1       5.435   4.741  14.617  0.00  0.00    +0.000 C 
ATOM     15  C   UNL     1       6.269   4.370  13.622  0.00  0.00    +0.000 C 
ATOM     16  C   UNL     1       7.439   5.167  13.101  0.00  0.00    +0.000 C 
ATOM     17  C   UNL     1       6.097   3.056  12.905  0.00  0.00    +0.000 C 
ENDBRANCH  12  14
ENDBRANCH   2  12
ENDBRANCH   1   2
BRANCH   1  18
ATOM     18  C   UNL     1       4.156   5.794  18.685  0.00  0.00    +0.000 C 
BRANCH  18  19
ATOM     19  C   UNL     1       3.971   4.320  18.363  0.00  0.00    +0.000 A 
ATOM     20  C   UNL     1       4.556   3.362  19.211  0.00  0.00    +0.000 A 
ATOM     21  C   UNL     1       4.180   2.019  19.136  0.00  0.00    +0.000 A 
ATOM     22  C   UNL     1       3.233   1.612  18.201  0.00  0.00    +0.000 A 
ATOM     23  C   UNL     1       2.681   2.539  17.322  0.00  0.00    +0.000 A 
ATOM     24  C   UNL     1       3.043   3.885  17.407  0.00  0.00    +0.000 A 
ENDBRANCH  18  19
BRANCH  18  25
ATOM     25  C   UNL     1       2.728   6.400  18.788  0.00  0.00    +0.000 C 
ATOM     26  O   UNL     1       2.167   6.921  17.816  0.00  0.00    +0.000 OA
BRANCH  25  27
ATOM     27  C   UNL     1       2.032   6.349  20.138  0.00  0.00    +0.000 C 
BRANCH  27  28
ATOM     28  C   UNL     1       1.765   4.933  20.586  0.00  0.00    +0.000 A 
ATOM     29  C   UNL     1       0.773   4.165  19.958  0.00  0.00    +0.000 A 
ATOM     30  C   UNL     1       0.493   2.870  20.394  0.00  0.00    +0.000 A 
ATOM     31  C   UNL     1       1.206   2.327  21.459  0.00  0.00    +0.000 A 
ATOM     32  C   UNL     1       2.199   3.077  22.087  0.00  0.00    +0.000 A 
ATOM     33  C   UNL     1       2.478   4.375  21.654  0.00  0.00    +0.000 A 
ENDBRANCH  27  28
ENDBRANCH  25  27
ENDBRANCH  18  25
ENDBRANCH   1  18
TORSDOF 14
ENDMDL
