MODEL 1
REMARK VINA RESULT:      -8.5      0.000      0.000
REMARK  Name = 
REMARK  3 active torsions:
REMARK  status: ('A' for Active; 'I' for Inactive)
REMARK    1  A    between atoms: C_1  and  N_2
REMARK    2  A    between atoms: C_6  and  N_7
REMARK    3  A    between atoms: C_20  and  N_21
REMARK                            x       y       z     vdW  Elec       q    Type
REMARK                         _______ _______ _______ _____ _____    ______ ____
ROOT
ATOM      1  C   UNL     1      -0.927  11.746  18.245  0.00  0.00    +0.000 C 
ATOM      2  N   UNL     1      -0.448  10.932  19.367  0.00  0.00    +0.000 N 
ATOM      3  C   UNL     1       0.481   9.891  19.158  0.00  0.00    +0.000 A 
ATOM      4  C   UNL     1       1.021   9.556  17.914  0.00  0.00    +0.000 A 
ATOM      5  C   UNL     1       1.955   8.522  17.769  0.00  0.00    +0.000 A 
ATOM      6  C   UNL     1       2.378   7.744  18.848  0.00  0.00    +0.000 A 
ATOM      7  C   UNL     1       1.873   8.077  20.102  0.00  0.00    +0.000 A 
ATOM      8  C   UNL     1       0.933   9.117  20.244  0.00  0.00    +0.000 A 
ATOM      9  C   UNL     1       0.402   9.389  21.592  0.00  0.00    +0.000 A 
ATOM     10  O   UNL     1       0.761   8.712  22.552  0.00  0.00    +0.000 OA
ATOM     11  C   UNL     1      -0.560  10.492  21.765  0.00  0.00    +0.000 A 
ATOM     12  C   UNL     1      -1.036  10.763  23.048  0.00  0.00    +0.000 A 
ATOM     13  C   UNL     1      -1.932  11.806  23.243  0.00  0.00    +0.000 A 
ATOM     14  C   UNL     1      -2.394  12.575  22.170  0.00  0.00    +0.000 A 
ATOM     15  C   UNL     1      -1.875  12.302  20.891  0.00  0.00    +0.000 A 
ATOM     16  C   UNL     1      -0.965  11.248  20.651  0.00  0.00    +0.000 A 
ENDROOT
BRANCH   6  17
ATOM     17  N   UNL     1       3.310   6.697  18.714  0.00  0.00    +0.000 N 
ATOM     18  C   UNL     1       3.027   5.446  18.263  0.00  0.00    +0.000 C 
ATOM     19  N   UNL     1       1.876   4.939  17.918  0.00  0.00    +0.000 NA
ATOM     20  C   UNL     1       2.176   3.551  17.514  0.00  0.00    +0.000 C 
ATOM     21  C   UNL     1       3.691   3.502  17.319  0.00  0.00    +0.000 C 
ATOM     22  N   UNL     1       4.118   4.630  18.128  0.00  0.00    +0.000 N 
ATOM     23  H   UNL     1       4.089   6.747  19.358  0.00  0.00    +0.000 HD
ATOM     24  H   UNL     1       4.955   5.096  17.802  0.00  0.00    +0.000 HD
ENDBRANCH   6  17
BRANCH  14  25
ATOM     25  N   UNL     1      -3.312  13.634  22.340  0.00  0.00    +0.000 N 
ATOM     26  C   UNL     1      -4.663  13.495  22.430  0.00  0.00    +0.000 C 
ATOM     27  N   UNL     1      -5.382  12.411  22.324  0.00  0.00    +0.000 NA
ATOM     28  C   UNL     1      -6.778  12.858  22.512  0.00  0.00    +0.000 C 
ATOM     29  C   UNL     1      -6.681  14.265  23.100  0.00  0.00    +0.000 C 
ATOM     30  N   UNL     1      -5.340  14.654  22.696  0.00  0.00    +0.000 N 
ATOM     31  H   UNL     1      -3.012  14.520  21.959  0.00  0.00    +0.000 HD
ATOM     32  H   UNL     1      -4.871  15.274  23.344  0.00  0.00    +0.000 HD
ENDBRANCH  14  25
TORSDOF 2
ENDMDL
MODEL 2
REMARK VINA RESULT:      -8.1      1.229      9.506
REMARK  Name = 
REMARK  3 active torsions:
REMARK  status: ('A' for Active; 'I' for Inactive)
REMARK    1  A    between atoms: C_1  and  N_2
REMARK    2  A    between atoms: C_6  and  N_7
REMARK    3  A    between atoms: C_20  and  N_21
REMARK                            x       y       z     vdW  Elec       q    Type
REMARK                         _______ _______ _______ _____ _____    ______ ____
ROOT
ATOM      1  C   UNL     1       0.952   8.910  22.648  0.00  0.00    +0.000 C 
ATOM      2  N   UNL     1       0.398   9.625  21.495  0.00  0.00    +0.000 N 
ATOM      3  C   UNL     1      -0.571  10.636  21.669  0.00  0.00    +0.000 A 
ATOM      4  C   UNL     1      -1.067  11.044  22.910  0.00  0.00    +0.000 A 
ATOM      5  C   UNL     1      -2.018  12.068  23.024  0.00  0.00    +0.000 A 
ATOM      6  C   UNL     1      -2.549  12.718  21.909  0.00  0.00    +0.000 A 
ATOM      7  C   UNL     1      -2.050  12.345  20.664  0.00  0.00    +0.000 A 
ATOM      8  C   UNL     1      -1.095  11.315  20.553  0.00  0.00    +0.000 A 
ATOM      9  C   UNL     1      -0.641  10.937  19.202  0.00  0.00    +0.000 A 
ATOM     10  O   UNL     1      -1.102  11.496  18.210  0.00  0.00    +0.000 OA
ATOM     11  C   UNL     1       0.378   9.881  19.068  0.00  0.00    +0.000 A 
ATOM     12  C   UNL     1       0.825   9.549  17.789  0.00  0.00    +0.000 A 
ATOM     13  C   UNL     1       1.796   8.569  17.632  0.00  0.00    +0.000 A 
ATOM     14  C   UNL     1       2.317   7.881  18.734  0.00  0.00    +0.000 A 
ATOM     15  C   UNL     1       1.873   8.258  20.015  0.00  0.00    +0.000 A 
ATOM     16  C   UNL     1       0.884   9.247  20.216  0.00  0.00    +0.000 A 
ENDROOT
BRANCH   6  17
ATOM     17  N   UNL     1      -3.511  13.741  22.010  0.00  0.00    +0.000 N 
ATOM     18  C   UNL     1      -4.856  13.554  22.074  0.00  0.00    +0.000 C 
ATOM     19  N   UNL     1      -5.532  12.441  22.008  0.00  0.00    +0.000 NA
ATOM     20  C   UNL     1      -6.946  12.847  22.134  0.00  0.00    +0.000 C 
ATOM     21  C   UNL     1      -6.914  14.279  22.665  0.00  0.00    +0.000 C 
ATOM     22  N   UNL     1      -5.582  14.698  22.269  0.00  0.00    +0.000 N 
ATOM     23  H   UNL     1      -3.227  14.622  21.600  0.00  0.00    +0.000 HD
ATOM     24  H   UNL     1      -5.146  15.373  22.884  0.00  0.00    +0.000 HD
ENDBRANCH   6  17
BRANCH  14  25
ATOM     25  N   UNL     1       3.297   6.875  18.602  0.00  0.00    +0.000 N 
ATOM     26  C   UNL     1       3.059   5.595  18.202  0.00  0.00    +0.000 C 
ATOM     27  N   UNL     1       1.920   5.025  17.923  0.00  0.00    +0.000 NA
ATOM     28  C   UNL     1       2.268   3.640  17.544  0.00  0.00    +0.000 C 
ATOM     29  C   UNL     1       3.776   3.650  17.300  0.00  0.00    +0.000 C 
ATOM     30  N   UNL     1       4.181   4.827  18.050  0.00  0.00    +0.000 N 
ATOM     31  H   UNL     1       4.093   6.975  19.216  0.00  0.00    +0.000 HD
ATOM     32  H   UNL     1       4.976   5.318  17.661  0.00  0.00    +0.000 HD
ENDBRANCH  14  25
TORSDOF 2
ENDMDL
MODEL 3
REMARK VINA RESULT:      -7.9      3.051      9.452
REMARK  Name = 
REMARK  3 active torsions:
REMARK  status: ('A' for Active; 'I' for Inactive)
REMARK    1  A    between atoms: C_1  and  N_2
REMARK    2  A    between atoms: C_6  and  N_7
REMARK    3  A    between atoms: C_20  and  N_21
REMARK                            x       y       z     vdW  Elec       q    Type
REMARK                         _______ _______ _______ _____ _____    ______ ____
ROOT
ATOM      1  C   UNL     1       0.125   8.300  21.907  0.00  0.00    +0.000 C 
ATOM      2  N   UNL     1       0.617   8.936  20.681  0.00  0.00    +0.000 N 
ATOM      3  C   UNL     1       0.191  10.231  20.318  0.00  0.00    +0.000 A 
ATOM      4  C   UNL     1      -0.698  11.006  21.068  0.00  0.00    +0.000 A 
ATOM      5  C   UNL     1      -1.073  12.295  20.667  0.00  0.00    +0.000 A 
ATOM      6  C   UNL     1      -0.610  12.871  19.483  0.00  0.00    +0.000 A 
ATOM      7  C   UNL     1       0.297  12.127  18.732  0.00  0.00    +0.000 A 
ATOM      8  C   UNL     1       0.672  10.831  19.138  0.00  0.00    +0.000 A 
ATOM      9  C   UNL     1       1.600  10.078  18.276  0.00  0.00    +0.000 A 
ATOM     10  O   UNL     1       2.014  10.568  17.227  0.00  0.00    +0.000 OA
ATOM     11  C   UNL     1       2.025   8.731  18.698  0.00  0.00    +0.000 A 
ATOM     12  C   UNL     1       2.927   8.037  17.892  0.00  0.00    +0.000 A 
ATOM     13  C   UNL     1       3.357   6.773  18.272  0.00  0.00    +0.000 A 
ATOM     14  C   UNL     1       2.879   6.164  19.438  0.00  0.00    +0.000 A 
ATOM     15  C   UNL     1       1.995   6.899  20.249  0.00  0.00    +0.000 A 
ATOM     16  C   UNL     1       1.531   8.186  19.895  0.00  0.00    +0.000 A 
ENDROOT
BRANCH   6  17
ATOM     17  N   UNL     1      -0.986  14.162  19.065  0.00  0.00    +0.000 N 
ATOM     18  C   UNL     1      -0.184  15.259  19.081  0.00  0.00    +0.000 C 
ATOM     19  N   UNL     1       1.041  15.373  19.514  0.00  0.00    +0.000 NA
ATOM     20  C   UNL     1       1.398  16.786  19.279  0.00  0.00    +0.000 C 
ATOM     21  C   UNL     1       0.343  17.317  18.309  0.00  0.00    +0.000 C 
ATOM     22  N   UNL     1      -0.743  16.381  18.532  0.00  0.00    +0.000 N 
ATOM     23  H   UNL     1      -1.974  14.360  19.162  0.00  0.00    +0.000 HD
ATOM     24  H   UNL     1      -1.329  16.208  17.725  0.00  0.00    +0.000 HD
ENDBRANCH   6  17
BRANCH  14  25
ATOM     25  N   UNL     1       3.293   4.877  19.842  0.00  0.00    +0.000 N 
ATOM     26  C   UNL     1       3.047   3.724  19.161  0.00  0.00    +0.000 C 
ATOM     27  N   UNL     1       2.356   3.551  18.068  0.00  0.00    +0.000 NA
ATOM     28  C   UNL     1       2.434   2.102  17.791  0.00  0.00    +0.000 C 
ATOM     29  C   UNL     1       3.564   1.577  18.674  0.00  0.00    +0.000 C 
ATOM     30  N   UNL     1       3.635   2.609  19.694  0.00  0.00    +0.000 N 
ATOM     31  H   UNL     1       3.386   4.755  20.841  0.00  0.00    +0.000 HD
ATOM     32  H   UNL     1       4.562   2.764  20.071  0.00  0.00    +0.000 HD
ENDBRANCH  14  25
TORSDOF 2
ENDMDL
MODEL 4
REMARK VINA RESULT:      -7.8      1.293      1.755
REMARK  Name = 
REMARK  3 active torsions:
REMARK  status: ('A' for Active; 'I' for Inactive)
REMARK    1  A    between atoms: C_1  and  N_2
REMARK    2  A    between atoms: C_6  and  N_7
REMARK    3  A    between atoms: C_20  and  N_21
REMARK                            x       y       z     vdW  Elec       q    Type
REMARK                         _______ _______ _______ _____ _____    ______ ____
ROOT
ATOM      1  C   UNL     1      -1.046  11.762  18.236  0.00  0.00    +0.000 C 
ATOM      2  N   UNL     1      -0.543  10.973  19.365  0.00  0.00    +0.000 N 
ATOM      3  C   UNL     1       0.396   9.941  19.162  0.00  0.00    +0.000 A 
ATOM      4  C   UNL     1       0.925   9.591  17.917  0.00  0.00    +0.000 A 
ATOM      5  C   UNL     1       1.870   8.566  17.778  0.00  0.00    +0.000 A 
ATOM      6  C   UNL     1       2.317   7.812  18.864  0.00  0.00    +0.000 A 
ATOM      7  C   UNL     1       1.823   8.159  20.119  0.00  0.00    +0.000 A 
ATOM      8  C   UNL     1       0.872   9.190  20.255  0.00  0.00    +0.000 A 
ATOM      9  C   UNL     1       0.354   9.479  21.605  0.00  0.00    +0.000 A 
ATOM     10  O   UNL     1       0.733   8.822  22.572  0.00  0.00    +0.000 OA
ATOM     11  C   UNL     1      -0.620  10.572  21.771  0.00  0.00    +0.000 A 
ATOM     12  C   UNL     1      -1.083  10.859  23.055  0.00  0.00    +0.000 A 
ATOM     13  C   UNL     1      -1.989  11.894  23.244  0.00  0.00    +0.000 A 
ATOM     14  C   UNL     1      -2.475  12.639  22.164  0.00  0.00    +0.000 A 
ATOM     15  C   UNL     1      -1.967  12.351  20.884  0.00  0.00    +0.000 A 
ATOM     16  C   UNL     1      -1.047  11.304  20.650  0.00  0.00    +0.000 A 
ENDROOT
BRANCH   6  17
ATOM     17  N   UNL     1       3.259   6.774  18.736  0.00  0.00    +0.000 N 
ATOM     18  C   UNL     1       2.992   5.519  18.286  0.00  0.00    +0.000 C 
ATOM     19  N   UNL     1       1.848   5.001  17.935  0.00  0.00    +0.000 NA
ATOM     20  C   UNL     1       2.164   3.616  17.534  0.00  0.00    +0.000 C 
ATOM     21  C   UNL     1       3.680   3.582  17.347  0.00  0.00    +0.000 C 
ATOM     22  N   UNL     1       4.091   4.714  18.156  0.00  0.00    +0.000 N 
ATOM     23  H   UNL     1       4.034   6.832  19.384  0.00  0.00    +0.000 HD
ATOM     24  H   UNL     1       4.925   5.189  17.835  0.00  0.00    +0.000 HD
ENDBRANCH   6  17
BRANCH  14  25
ATOM     25  N   UNL     1      -3.403  13.689  22.328  0.00  0.00    +0.000 N 
ATOM     26  C   UNL     1      -3.084  14.981  22.616  0.00  0.00    +0.000 C 
ATOM     27  N   UNL     1      -1.911  15.500  22.852  0.00  0.00    +0.000 NA
ATOM     28  C   UNL     1      -2.169  16.935  23.096  0.00  0.00    +0.000 C 
ATOM     29  C   UNL     1      -3.590  17.185  22.594  0.00  0.00    +0.000 C 
ATOM     30  N   UNL     1      -4.147  15.843  22.625  0.00  0.00    +0.000 N 
ATOM     31  H   UNL     1      -4.312  13.404  22.664  0.00  0.00    +0.000 HD
ATOM     32  H   UNL     1      -4.841  15.661  21.912  0.00  0.00    +0.000 HD
ENDBRANCH  14  25
TORSDOF 2
ENDMDL
MODEL 5
REMARK VINA RESULT:      -7.8      1.599      1.929
REMARK  Name = 
REMARK  3 active torsions:
REMARK  status: ('A' for Active; 'I' for Inactive)
REMARK    1  A    between atoms: C_1  and  N_2
REMARK    2  A    between atoms: C_6  and  N_7
REMARK    3  A    between atoms: C_20  and  N_21
REMARK                            x       y       z     vdW  Elec       q    Type
REMARK                         _______ _______ _______ _____ _____    ______ ____
ROOT
ATOM      1  C   UNL     1       0.611  11.870  18.590  0.00  0.00    +0.000 C 
ATOM      2  N   UNL     1       0.716  10.683  19.444  0.00  0.00    +0.000 N 
ATOM      3  C   UNL     1       1.421   9.541  19.009  0.00  0.00    +0.000 A 
ATOM      4  C   UNL     1       2.070   9.439  17.777  0.00  0.00    +0.000 A 
ATOM      5  C   UNL     1       2.771   8.284  17.404  0.00  0.00    +0.000 A 
ATOM      6  C   UNL     1       2.837   7.156  18.224  0.00  0.00    +0.000 A 
ATOM      7  C   UNL     1       2.218   7.244  19.468  0.00  0.00    +0.000 A 
ATOM      8  C   UNL     1       1.514   8.407  19.839  0.00  0.00    +0.000 A 
ATOM      9  C   UNL     1       0.843   8.419  21.152  0.00  0.00    +0.000 A 
ATOM     10  O   UNL     1       0.887   7.433  21.884  0.00  0.00    +0.000 OA
ATOM     11  C   UNL     1       0.125   9.637  21.569  0.00  0.00    +0.000 A 
ATOM     12  C   UNL     1      -0.482   9.652  22.824  0.00  0.00    +0.000 A 
ATOM     13  C   UNL     1      -1.153  10.791  23.250  0.00  0.00    +0.000 A 
ATOM     14  C   UNL     1      -1.259  11.919  22.430  0.00  0.00    +0.000 A 
ATOM     15  C   UNL     1      -0.610  11.890  21.182  0.00  0.00    +0.000 A 
ATOM     16  C   UNL     1       0.078  10.749  20.711  0.00  0.00    +0.000 A 
ENDROOT
BRANCH   6  17
ATOM     17  N   UNL     1       3.530   5.987  17.858  0.00  0.00    +0.000 N 
ATOM     18  C   UNL     1       4.846   5.924  17.524  0.00  0.00    +0.000 C 
ATOM     19  N   UNL     1       5.713   6.893  17.422  0.00  0.00    +0.000 NA
ATOM     20  C   UNL     1       6.976   6.235  17.034  0.00  0.00    +0.000 C 
ATOM     21  C   UNL     1       6.766   4.748  17.319  0.00  0.00    +0.000 C 
ATOM     22  N   UNL     1       5.317   4.658  17.302  0.00  0.00    +0.000 N 
ATOM     23  H   UNL     1       2.951   5.278  17.426  0.00  0.00    +0.000 HD
ATOM     24  H   UNL     1       4.926   3.950  17.910  0.00  0.00    +0.000 HD
ENDBRANCH   6  17
BRANCH  14  25
ATOM     25  N   UNL     1      -1.943  13.085  22.835  0.00  0.00    +0.000 N 
ATOM     26  C   UNL     1      -3.296  13.230  22.870  0.00  0.00    +0.000 C 
ATOM     27  N   UNL     1      -4.218  12.385  22.498  0.00  0.00    +0.000 NA
ATOM     28  C   UNL     1      -5.498  13.073  22.767  0.00  0.00    +0.000 C 
ATOM     29  C   UNL     1      -5.147  14.250  23.676  0.00  0.00    +0.000 C 
ATOM     30  N   UNL     1      -3.730  14.416  23.396  0.00  0.00    +0.000 N 
ATOM     31  H   UNL     1      -1.439  13.948  22.681  0.00  0.00    +0.000 HD
ATOM     32  H   UNL     1      -3.185  14.752  24.180  0.00  0.00    +0.000 HD
ENDBRANCH  14  25
TORSDOF 2
ENDMDL
MODEL 6
REMARK VINA RESULT:      -7.8      2.016      9.328
REMARK  Name = 
REMARK  3 active torsions:
REMARK  status: ('A' for Active; 'I' for Inactive)
REMARK    1  A    between atoms: C_1  and  N_2
REMARK    2  A    between atoms: C_6  and  N_7
REMARK    3  A    between atoms: C_20  and  N_21
REMARK                            x       y       z     vdW  Elec       q    Type
REMARK                         _______ _______ _______ _____ _____    ______ ____
ROOT
ATOM      1  C   UNL     1       0.157   9.276  23.152  0.00  0.00    +0.000 C 
ATOM      2  N   UNL     1       0.008   9.933  21.850  0.00  0.00    +0.000 N 
ATOM      3  C   UNL     1      -0.761  11.108  21.719  0.00  0.00    +0.000 A 
ATOM      4  C   UNL     1      -1.420  11.740  22.777  0.00  0.00    +0.000 A 
ATOM      5  C   UNL     1      -2.157  12.917  22.590  0.00  0.00    +0.000 A 
ATOM      6  C   UNL     1      -2.305  13.512  21.336  0.00  0.00    +0.000 A 
ATOM      7  C   UNL     1      -1.636  12.914  20.271  0.00  0.00    +0.000 A 
ATOM      8  C   UNL     1      -0.896  11.730  20.462  0.00  0.00    +0.000 A 
ATOM      9  C   UNL     1      -0.249  11.122  19.286  0.00  0.00    +0.000 A 
ATOM     10  O   UNL     1      -0.373  11.630  18.174  0.00  0.00    +0.000 OA
ATOM     11  C   UNL     1       0.552   9.899  19.471  0.00  0.00    +0.000 A 
ATOM     12  C   UNL     1       1.186   9.346  18.359  0.00  0.00    +0.000 A 
ATOM     13  C   UNL     1       1.960   8.203  18.506  0.00  0.00    +0.000 A 
ATOM     14  C   UNL     1       2.094   7.572  19.747  0.00  0.00    +0.000 A 
ATOM     15  C   UNL     1       1.471   8.168  20.859  0.00  0.00    +0.000 A 
ATOM     16  C   UNL     1       0.671   9.329  20.750  0.00  0.00    +0.000 A 
ENDROOT
BRANCH   6  17
ATOM     17  N   UNL     1      -3.050  14.689  21.134  0.00  0.00    +0.000 N 
ATOM     18  C   UNL     1      -4.383  14.742  20.873  0.00  0.00    +0.000 C 
ATOM     19  N   UNL     1      -5.225  13.760  20.708  0.00  0.00    +0.000 NA
ATOM     20  C   UNL     1      -6.526  14.412  20.455  0.00  0.00    +0.000 C 
ATOM     21  C   UNL     1      -6.345  15.866  20.891  0.00  0.00    +0.000 C 
ATOM     22  N   UNL     1      -4.902  16.007  20.813  0.00  0.00    +0.000 N 
ATOM     23  H   UNL     1      -2.516  15.460  20.755  0.00  0.00    +0.000 HD
ATOM     24  H   UNL     1      -4.501  16.659  21.475  0.00  0.00    +0.000 HD
ENDBRANCH   6  17
BRANCH  14  25
ATOM     25  N   UNL     1       2.866   6.404  19.922  0.00  0.00    +0.000 N 
ATOM     26  C   UNL     1       2.367   5.164  20.179  0.00  0.00    +0.000 C 
ATOM     27  N   UNL     1       1.127   4.806  20.371  0.00  0.00    +0.000 NA
ATOM     28  C   UNL     1       1.182   3.347  20.599  0.00  0.00    +0.000 C 
ATOM     29  C   UNL     1       2.572   2.912  20.137  0.00  0.00    +0.000 C 
ATOM     30  N   UNL     1       3.303   4.166  20.207  0.00  0.00    +0.000 N 
ATOM     31  H   UNL     1       3.794   6.560  20.290  0.00  0.00    +0.000 HD
ATOM     32  H   UNL     1       4.038   4.262  19.518  0.00  0.00    +0.000 HD
ENDBRANCH  14  25
TORSDOF 2
ENDMDL
MODEL 7
REMARK VINA RESULT:      -7.7      1.654      2.052
REMARK  Name = 
REMARK  3 active torsions:
REMARK  status: ('A' for Active; 'I' for Inactive)
REMARK    1  A    between atoms: C_1  and  N_2
REMARK    2  A    between atoms: C_6  and  N_7
REMARK    3  A    between atoms: C_20  and  N_21
REMARK                            x       y       z     vdW  Elec       q    Type
REMARK                         _______ _______ _______ _____ _____    ______ ____
ROOT
ATOM      1  C   UNL     1      -0.205  11.782  18.379  0.00  0.00    +0.000 C 
ATOM      2  N   UNL     1       0.119  10.778  19.397  0.00  0.00    +0.000 N 
ATOM      3  C   UNL     1       0.932   9.669  19.085  0.00  0.00    +0.000 A 
ATOM      4  C   UNL     1       1.494   9.435  17.827  0.00  0.00    +0.000 A 
ATOM      5  C   UNL     1       2.310   8.323  17.579  0.00  0.00    +0.000 A 
ATOM      6  C   UNL     1       2.585   7.367  18.558  0.00  0.00    +0.000 A 
ATOM      7  C   UNL     1       2.056   7.593  19.826  0.00  0.00    +0.000 A 
ATOM      8  C   UNL     1       1.235   8.712  20.073  0.00  0.00    +0.000 A 
ATOM      9  C   UNL     1       0.670   8.870  21.425  0.00  0.00    +0.000 A 
ATOM     10  O   UNL     1       0.898   8.036  22.297  0.00  0.00    +0.000 OA
ATOM     11  C   UNL     1      -0.168  10.049  21.709  0.00  0.00    +0.000 A 
ATOM     12  C   UNL     1      -0.675  10.207  22.998  0.00  0.00    +0.000 A 
ATOM     13  C   UNL     1      -1.454  11.316  23.299  0.00  0.00    +0.000 A 
ATOM     14  C   UNL     1      -1.769  12.268  22.323  0.00  0.00    +0.000 A 
ATOM     15  C   UNL     1      -1.219  12.102  21.039  0.00  0.00    +0.000 A 
ATOM     16  C   UNL     1      -0.424  10.985  20.692  0.00  0.00    +0.000 A 
ENDROOT
BRANCH   6  17
ATOM     17  N   UNL     1       3.395   6.241  18.318  0.00  0.00    +0.000 N 
ATOM     18  C   UNL     1       2.955   4.957  18.238  0.00  0.00    +0.000 C 
ATOM     19  N   UNL     1       1.748   4.493  18.406  0.00  0.00    +0.000 NA
ATOM     20  C   UNL     1       1.869   3.036  18.196  0.00  0.00    +0.000 C 
ATOM     21  C   UNL     1       3.220   2.833  17.513  0.00  0.00    +0.000 C 
ATOM     22  N   UNL     1       3.918   4.046  17.898  0.00  0.00    +0.000 N 
ATOM     23  H   UNL     1       4.350   6.340  18.638  0.00  0.00    +0.000 HD
ATOM     24  H   UNL     1       4.596   4.380  17.226  0.00  0.00    +0.000 HD
ENDBRANCH   6  17
BRANCH  14  25
ATOM     25  N   UNL     1      -2.567  13.398  22.600  0.00  0.00    +0.000 N 
ATOM     26  C   UNL     1      -2.229  14.409  23.448  0.00  0.00    +0.000 C 
ATOM     27  N   UNL     1      -1.171  14.523  24.203  0.00  0.00    +0.000 NA
ATOM     28  C   UNL     1      -1.334  15.817  24.897  0.00  0.00    +0.000 C 
ATOM     29  C   UNL     1      -2.437  16.552  24.137  0.00  0.00    +0.000 C 
ATOM     30  N   UNL     1      -3.116  15.450  23.478  0.00  0.00    +0.000 N 
ATOM     31  H   UNL     1      -3.562  13.247  22.514  0.00  0.00    +0.000 HD
ATOM     32  H   UNL     1      -3.520  15.683  22.579  0.00  0.00    +0.000 HD
ENDBRANCH  14  25
TORSDOF 2
ENDMDL
MODEL 8
REMARK VINA RESULT:      -7.7      0.990      1.008
REMARK  Name = 
REMARK  3 active torsions:
REMARK  status: ('A' for Active; 'I' for Inactive)
REMARK    1  A    between atoms: C_1  and  N_2
REMARK    2  A    between atoms: C_6  and  N_7
REMARK    3  A    between atoms: C_20  and  N_21
REMARK                            x       y       z     vdW  Elec       q    Type
REMARK                         _______ _______ _______ _____ _____    ______ ____
ROOT
ATOM      1  C   UNL     1      -2.046  11.641  18.215  0.00  0.00    +0.000 C 
ATOM      2  N   UNL     1      -1.253  11.135  19.339  0.00  0.00    +0.000 N 
ATOM      3  C   UNL     1      -0.206  10.214  19.128  0.00  0.00    +0.000 A 
ATOM      4  C   UNL     1       0.170   9.724  17.874  0.00  0.00    +0.000 A 
ATOM      5  C   UNL     1       1.232   8.823  17.722  0.00  0.00    +0.000 A 
ATOM      6  C   UNL     1       1.957   8.335  18.810  0.00  0.00    +0.000 A 
ATOM      7  C   UNL     1       1.617   8.830  20.067  0.00  0.00    +0.000 A 
ATOM      8  C   UNL     1       0.548   9.736  20.217  0.00  0.00    +0.000 A 
ATOM      9  C   UNL     1       0.209  10.186  21.579  0.00  0.00    +0.000 A 
ATOM     10  O   UNL     1       0.835   9.763  22.549  0.00  0.00    +0.000 OA
ATOM     11  C   UNL     1      -0.888  11.155  21.752  0.00  0.00    +0.000 A 
ATOM     12  C   UNL     1      -1.183  11.599  23.041  0.00  0.00    +0.000 A 
ATOM     13  C   UNL     1      -2.201  12.523  23.233  0.00  0.00    +0.000 A 
ATOM     14  C   UNL     1      -2.962  12.998  22.160  0.00  0.00    +0.000 A 
ATOM     15  C   UNL     1      -2.622  12.559  20.867  0.00  0.00    +0.000 A 
ATOM     16  C   UNL     1      -1.596  11.616  20.630  0.00  0.00    +0.000 A 
ENDROOT
BRANCH   6  17
ATOM     17  N   UNL     1       3.020   7.423  18.672  0.00  0.00    +0.000 N 
ATOM     18  C   UNL     1       2.981   6.109  19.019  0.00  0.00    +0.000 C 
ATOM     19  N   UNL     1       2.013   5.439  19.580  0.00  0.00    +0.000 NA
ATOM     20  C   UNL     1       2.531   4.063  19.716  0.00  0.00    +0.000 C 
ATOM     21  C   UNL     1       3.755   3.997  18.802  0.00  0.00    +0.000 C 
ATOM     22  N   UNL     1       4.106   5.401  18.697  0.00  0.00    +0.000 N 
ATOM     23  H   UNL     1       3.940   7.844  18.720  0.00  0.00    +0.000 HD
ATOM     24  H   UNL     1       4.537   5.669  17.821  0.00  0.00    +0.000 HD
ENDBRANCH   6  17
BRANCH  14  25
ATOM     25  N   UNL     1      -4.008  13.930  22.329  0.00  0.00    +0.000 N 
ATOM     26  C   UNL     1      -5.255  13.636  22.787  0.00  0.00    +0.000 C 
ATOM     27  N   UNL     1      -5.758  12.473  23.100  0.00  0.00    +0.000 NA
ATOM     28  C   UNL     1      -7.140  12.758  23.537  0.00  0.00    +0.000 C 
ATOM     29  C   UNL     1      -7.192  14.267  23.769  0.00  0.00    +0.000 C 
ATOM     30  N   UNL     1      -6.070  14.721  22.965  0.00  0.00    +0.000 N 
ATOM     31  H   UNL     1      -3.974  14.724  21.705  0.00  0.00    +0.000 HD
ATOM     32  H   UNL     1      -5.601  15.542  23.325  0.00  0.00    +0.000 HD
ENDBRANCH  14  25
TORSDOF 2
ENDMDL
MODEL 9
REMARK VINA RESULT:      -7.7      2.660      9.324
REMARK  Name = 
REMARK  3 active torsions:
REMARK  status: ('A' for Active; 'I' for Inactive)
REMARK    1  A    between atoms: C_1  and  N_2
REMARK    2  A    between atoms: C_6  and  N_7
REMARK    3  A    between atoms: C_20  and  N_21
REMARK                            x       y       z     vdW  Elec       q    Type
REMARK                         _______ _______ _______ _____ _____    ______ ____
ROOT
ATOM      1  C   UNL     1       0.030   9.359  23.079  0.00  0.00    +0.000 C 
ATOM      2  N   UNL     1      -0.067   9.956  21.743  0.00  0.00    +0.000 N 
ATOM      3  C   UNL     1      -0.829  11.123  21.528  0.00  0.00    +0.000 A 
ATOM      4  C   UNL     1      -1.527  11.803  22.529  0.00  0.00    +0.000 A 
ATOM      5  C   UNL     1      -2.254  12.971  22.260  0.00  0.00    +0.000 A 
ATOM      6  C   UNL     1      -2.352  13.507  20.975  0.00  0.00    +0.000 A 
ATOM      7  C   UNL     1      -1.643  12.861  19.966  0.00  0.00    +0.000 A 
ATOM      8  C   UNL     1      -0.914  11.686  20.240  0.00  0.00    +0.000 A 
ATOM      9  C   UNL     1      -0.222  11.025  19.119  0.00  0.00    +0.000 A 
ATOM     10  O   UNL     1      -0.302  11.481  17.980  0.00  0.00    +0.000 OA
ATOM     11  C   UNL     1       0.569   9.811  19.391  0.00  0.00    +0.000 A 
ATOM     12  C   UNL     1       1.244   9.207  18.331  0.00  0.00    +0.000 A 
ATOM     13  C   UNL     1       2.010   8.072  18.561  0.00  0.00    +0.000 A 
ATOM     14  C   UNL     1       2.094   7.499  19.834  0.00  0.00    +0.000 A 
ATOM     15  C   UNL     1       1.429   8.146  20.892  0.00  0.00    +0.000 A 
ATOM     16  C   UNL     1       0.637   9.301  20.699  0.00  0.00    +0.000 A 
ENDROOT
BRANCH   6  17
ATOM     17  N   UNL     1      -3.086  14.674  20.690  0.00  0.00    +0.000 N 
ATOM     18  C   UNL     1      -2.552  15.901  20.453  0.00  0.00    +0.000 C 
ATOM     19  N   UNL     1      -1.302  16.271  20.484  0.00  0.00    +0.000 NA
ATOM     20  C   UNL     1      -1.321  17.708  20.144  0.00  0.00    +0.000 C 
ATOM     21  C   UNL     1      -2.704  17.967  19.548  0.00  0.00    +0.000 C 
ATOM     22  N   UNL     1      -3.463  16.860  20.100  0.00  0.00    +0.000 N 
ATOM     23  H   UNL     1      -4.016  14.689  21.088  0.00  0.00    +0.000 HD
ATOM     24  H   UNL     1      -4.220  16.528  19.516  0.00  0.00    +0.000 HD
ENDBRANCH   6  17
BRANCH  14  25
ATOM     25  N   UNL     1       2.857   6.341  20.093  0.00  0.00    +0.000 N 
ATOM     26  C   UNL     1       2.345   5.105  20.351  0.00  0.00    +0.000 C 
ATOM     27  N   UNL     1       1.097   4.746  20.470  0.00  0.00    +0.000 NA
ATOM     28  C   UNL     1       1.141   3.295  20.742  0.00  0.00    +0.000 C 
ATOM     29  C   UNL     1       2.559   2.855  20.386  0.00  0.00    +0.000 C 
ATOM     30  N   UNL     1       3.280   4.114  20.469  0.00  0.00    +0.000 N 
ATOM     31  H   UNL     1       3.757   6.512  20.517  0.00  0.00    +0.000 HD
ATOM     32  H   UNL     1       4.060   4.194  19.828  0.00  0.00    +0.000 HD
ENDBRANCH  14  25
TORSDOF 2
ENDMDL
