MODEL 1
REMARK VINA RESULT:      -7.7      0.000      0.000
REMARK  Name = 
REMARK  6 active torsions:
REMARK  status: ('A' for Active; 'I' for Inactive)
REMARK    1  A    between atoms: C_1  and  C_2
REMARK    2  A    between atoms: C_2  and  C_3
REMARK    3  A    between atoms: C_5  and  C_6
REMARK    4  A    between atoms: N_13  and  C_14
REMARK    5  A    between atoms: C_16  and  C_17
REMARK    6  A    between atoms: C_19  and  C_20
REMARK                            x       y       z     vdW  Elec       q    Type
REMARK                         _______ _______ _______ _____ _____    ______ ____
ROOT
ATOM      1  C   UNL     1       6.678   4.674  15.824  0.00  0.00    +0.000 C 
ATOM      2  C   UNL     1       7.058   4.893  14.355  0.00  0.00    +0.000 C 
ATOM      3  C   UNL     1       6.261   3.825  13.624  0.00  0.00    +0.000 C 
ATOM      4  C   UNL     1       4.994   3.675  14.456  0.00  0.00    +0.000 C 
ATOM      5  N   UNL     1       5.249   4.342  15.728  0.00  0.00    +0.000 N 
ATOM      6  C   UNL     1       4.263   4.213  16.698  0.00  0.00    +0.000 C 
ATOM      7  O   UNL     1       3.251   3.553  16.459  0.00  0.00    +0.000 OA
ATOM      8  N   UNL     1       4.449   4.930  17.853  0.00  0.00    +0.000 N 
ATOM      9  H   UNL     1       5.197   5.601  17.862  0.00  0.00    +0.000 HD
ENDROOT
BRANCH   8  10
ATOM     10  C   UNL     1       3.551   5.069  18.934  0.00  0.00    +0.000 A 
ATOM     11  C   UNL     1       3.127   4.010  19.735  0.00  0.00    +0.000 A 
ATOM     12  C   UNL     1       2.223   4.224  20.785  0.00  0.00    +0.000 A 
ATOM     13  C   UNL     1       1.794   3.089  21.667  0.00  0.00    +0.000 C 
ATOM     14  C   UNL     1       1.717   5.512  21.009  0.00  0.00    +0.000 A 
ATOM     15  C   UNL     1       2.128   6.585  20.216  0.00  0.00    +0.000 A 
ATOM     16  C   UNL     1       1.567   7.962  20.421  0.00  0.00    +0.000 C 
ATOM     17  C   UNL     1       3.064   6.358  19.196  0.00  0.00    +0.000 A 
ENDBRANCH   8  10
BRANCH   1  20
ATOM     18  C   UNL     1       7.745   7.506  17.907  0.00  0.00    +0.000 A 
ATOM     19  C   UNL     1       7.834   6.107  17.722  0.00  0.00    +0.000 A 
ATOM     20  C   UNL     1       7.002   5.848  16.660  0.00  0.00    +0.000 A 
ATOM     21  O   UNL     1       6.398   7.010  16.283  0.00  0.00    +0.000 OA
ATOM     22  N   UNL     1       6.884   8.054  17.044  0.00  0.00    +0.000 NA
BRANCH  18  24
ATOM     23  C   UNL     1       8.689   9.773  18.349  0.00  0.00    +0.000 C 
ATOM     24  C   UNL     1       8.499   8.354  18.867  0.00  0.00    +0.000 C 
ENDBRANCH  18  24
ENDBRANCH   1  20
TORSDOF 3
ENDMDL
MODEL 2
REMARK VINA RESULT:      -7.7      0.170      1.801
REMARK  Name = 
REMARK  6 active torsions:
REMARK  status: ('A' for Active; 'I' for Inactive)
REMARK    1  A    between atoms: C_1  and  C_2
REMARK    2  A    between atoms: C_2  and  C_3
REMARK    3  A    between atoms: C_5  and  C_6
REMARK    4  A    between atoms: N_13  and  C_14
REMARK    5  A    between atoms: C_16  and  C_17
REMARK    6  A    between atoms: C_19  and  C_20
REMARK                            x       y       z     vdW  Elec       q    Type
REMARK                         _______ _______ _______ _____ _____    ______ ____
ROOT
ATOM      1  C   UNL     1       6.715   4.738  15.948  0.00  0.00    +0.000 C 
ATOM      2  C   UNL     1       7.149   4.884  14.485  0.00  0.00    +0.000 C 
ATOM      3  C   UNL     1       6.352   3.803  13.774  0.00  0.00    +0.000 C 
ATOM      4  C   UNL     1       5.055   3.716  14.567  0.00  0.00    +0.000 C 
ATOM      5  N   UNL     1       5.283   4.432  15.818  0.00  0.00    +0.000 N 
ATOM      6  C   UNL     1       4.262   4.366  16.759  0.00  0.00    +0.000 C 
ATOM      7  O   UNL     1       3.244   3.718  16.514  0.00  0.00    +0.000 OA
ATOM      8  N   UNL     1       4.426   5.128  17.888  0.00  0.00    +0.000 N 
ATOM      9  H   UNL     1       5.189   5.783  17.893  0.00  0.00    +0.000 HD
ENDROOT
BRANCH   8  10
ATOM     10  C   UNL     1       3.496   5.333  18.931  0.00  0.00    +0.000 A 
ATOM     11  C   UNL     1       2.948   6.574  19.251  0.00  0.00    +0.000 A 
ATOM     12  C   UNL     1       2.039   6.702  20.311  0.00  0.00    +0.000 A 
ATOM     13  C   UNL     1       1.424   8.032  20.633  0.00  0.00    +0.000 C 
ATOM     14  C   UNL     1       1.704   5.575  21.073  0.00  0.00    +0.000 A 
ATOM     15  C   UNL     1       2.244   4.324  20.769  0.00  0.00    +0.000 A 
ATOM     16  C   UNL     1       1.922   3.116  21.599  0.00  0.00    +0.000 C 
ATOM     17  C   UNL     1       3.121   4.209  19.680  0.00  0.00    +0.000 A 
ENDBRANCH   8  10
BRANCH   1  20
ATOM     18  C   UNL     1       7.780   7.640  17.932  0.00  0.00    +0.000 A 
ATOM     19  C   UNL     1       7.876   6.237  17.792  0.00  0.00    +0.000 A 
ATOM     20  C   UNL     1       7.038   5.939  16.744  0.00  0.00    +0.000 A 
ATOM     21  O   UNL     1       6.425   7.086  16.335  0.00  0.00    +0.000 OA
ATOM     22  N   UNL     1       6.909   8.156  17.059  0.00  0.00    +0.000 NA
BRANCH  18  24
ATOM     23  C   UNL     1       8.725   9.922  18.290  0.00  0.00    +0.000 C 
ATOM     24  C   UNL     1       8.535   8.523  18.860  0.00  0.00    +0.000 C 
ENDBRANCH  18  24
ENDBRANCH   1  20
TORSDOF 3
ENDMDL
MODEL 3
REMARK VINA RESULT:      -7.6      1.081      1.089
REMARK  Name = 
REMARK  6 active torsions:
REMARK  status: ('A' for Active; 'I' for Inactive)
REMARK    1  A    between atoms: C_1  and  C_2
REMARK    2  A    between atoms: C_2  and  C_3
REMARK    3  A    between atoms: C_5  and  C_6
REMARK    4  A    between atoms: N_13  and  C_14
REMARK    5  A    between atoms: C_16  and  C_17
REMARK    6  A    between atoms: C_19  and  C_20
REMARK                            x       y       z     vdW  Elec       q    Type
REMARK                         _______ _______ _______ _____ _____    ______ ____
ROOT
ATOM      1  C   UNL     1       6.665   4.157  15.804  0.00  0.00    +0.000 C 
ATOM      2  C   UNL     1       7.136   4.521  14.391  0.00  0.00    +0.000 C 
ATOM      3  C   UNL     1       6.137   3.810  13.494  0.00  0.00    +0.000 C 
ATOM      4  C   UNL     1       4.842   3.827  14.296  0.00  0.00    +0.000 C 
ATOM      5  N   UNL     1       5.202   4.193  15.662  0.00  0.00    +0.000 N 
ATOM      6  C   UNL     1       4.181   4.141  16.602  0.00  0.00    +0.000 C 
ATOM      7  O   UNL     1       3.051   3.788  16.261  0.00  0.00    +0.000 OA
ATOM      8  N   UNL     1       4.490   4.589  17.861  0.00  0.00    +0.000 N 
ATOM      9  H   UNL     1       5.374   5.054  17.980  0.00  0.00    +0.000 HD
ENDROOT
BRANCH   8  10
ATOM     10  C   UNL     1       3.614   4.754  18.956  0.00  0.00    +0.000 A 
ATOM     11  C   UNL     1       3.192   3.712  19.779  0.00  0.00    +0.000 A 
ATOM     12  C   UNL     1       2.310   3.951  20.842  0.00  0.00    +0.000 A 
ATOM     13  C   UNL     1       1.884   2.833  21.748  0.00  0.00    +0.000 C 
ATOM     14  C   UNL     1       1.823   5.248  21.057  0.00  0.00    +0.000 A 
ATOM     15  C   UNL     1       2.232   6.304  20.242  0.00  0.00    +0.000 A 
ATOM     16  C   UNL     1       1.691   7.691  20.438  0.00  0.00    +0.000 C 
ATOM     17  C   UNL     1       3.147   6.052  19.208  0.00  0.00    +0.000 A 
ENDBRANCH   8  10
BRANCH   1  20
ATOM     18  C   UNL     1       7.882   6.600  18.262  0.00  0.00    +0.000 A 
ATOM     19  C   UNL     1       7.500   6.406  16.914  0.00  0.00    +0.000 A 
ATOM     20  C   UNL     1       7.227   5.063  16.825  0.00  0.00    +0.000 A 
ATOM     21  O   UNL     1       7.500   4.480  18.027  0.00  0.00    +0.000 OA
ATOM     22  N   UNL     1       7.883   5.446  18.936  0.00  0.00    +0.000 NA
BRANCH  18  24
ATOM     23  C   UNL     1       8.228   9.056  17.982  0.00  0.00    +0.000 C 
ATOM     24  C   UNL     1       8.209   7.878  18.947  0.00  0.00    +0.000 C 
ENDBRANCH  18  24
ENDBRANCH   1  20
TORSDOF 3
ENDMDL
MODEL 4
REMARK VINA RESULT:      -7.6      2.300      4.179
REMARK  Name = 
REMARK  6 active torsions:
REMARK  status: ('A' for Active; 'I' for Inactive)
REMARK    1  A    between atoms: C_1  and  C_2
REMARK    2  A    between atoms: C_2  and  C_3
REMARK    3  A    between atoms: C_5  and  C_6
REMARK    4  A    between atoms: N_13  and  C_14
REMARK    5  A    between atoms: C_16  and  C_17
REMARK    6  A    between atoms: C_19  and  C_20
REMARK                            x       y       z     vdW  Elec       q    Type
REMARK                         _______ _______ _______ _____ _____    ______ ____
ROOT
ATOM      1  C   UNL     1       4.050   3.700  19.277  0.00  0.00    +0.000 C 
ATOM      2  C   UNL     1       4.092   2.411  18.448  0.00  0.00    +0.000 C 
ATOM      3  C   UNL     1       2.979   1.570  19.053  0.00  0.00    +0.000 C 
ATOM      4  C   UNL     1       1.946   2.593  19.505  0.00  0.00    +0.000 C 
ATOM      5  N   UNL     1       2.607   3.894  19.477  0.00  0.00    +0.000 N 
ATOM      6  C   UNL     1       1.879   4.964  19.982  0.00  0.00    +0.000 C 
ATOM      7  O   UNL     1       0.747   4.779  20.429  0.00  0.00    +0.000 OA
ATOM      8  N   UNL     1       2.454   6.204  19.855  0.00  0.00    +0.000 N 
ATOM      9  H   UNL     1       3.280   6.271  19.285  0.00  0.00    +0.000 HD
ENDROOT
BRANCH   8  10
ATOM     10  C   UNL     1       1.881   7.455  20.171  0.00  0.00    +0.000 A 
ATOM     11  C   UNL     1       1.351   7.775  21.420  0.00  0.00    +0.000 A 
ATOM     12  C   UNL     1       0.787   9.036  21.656  0.00  0.00    +0.000 A 
ATOM     13  C   UNL     1       0.248   9.390  23.011  0.00  0.00    +0.000 C 
ATOM     14  C   UNL     1       0.728   9.972  20.615  0.00  0.00    +0.000 A 
ATOM     15  C   UNL     1       1.251   9.670  19.357  0.00  0.00    +0.000 A 
ATOM     16  C   UNL     1       1.162  10.649  18.222  0.00  0.00    +0.000 C 
ATOM     17  C   UNL     1       1.848   8.417  19.151  0.00  0.00    +0.000 A 
ENDBRANCH   8  10
BRANCH   1  20
ATOM     18  C   UNL     1       6.034   6.334  17.657  0.00  0.00    +0.000 A 
ATOM     19  C   UNL     1       5.932   5.493  18.789  0.00  0.00    +0.000 A 
ATOM     20  C   UNL     1       4.753   4.812  18.605  0.00  0.00    +0.000 A 
ATOM     21  O   UNL     1       4.154   5.273  17.471  0.00  0.00    +0.000 OA
ATOM     22  N   UNL     1       4.968   6.206  16.861  0.00  0.00    +0.000 NA
BRANCH  18  24
ATOM     23  C   UNL     1       8.150   7.412  18.424  0.00  0.00    +0.000 C 
ATOM     24  C   UNL     1       7.153   7.239  17.286  0.00  0.00    +0.000 C 
ENDBRANCH  18  24
ENDBRANCH   1  20
TORSDOF 3
ENDMDL
MODEL 5
REMARK VINA RESULT:      -7.4      1.082      2.095
REMARK  Name = 
REMARK  6 active torsions:
REMARK  status: ('A' for Active; 'I' for Inactive)
REMARK    1  A    between atoms: C_1  and  C_2
REMARK    2  A    between atoms: C_2  and  C_3
REMARK    3  A    between atoms: C_5  and  C_6
REMARK    4  A    between atoms: N_13  and  C_14
REMARK    5  A    between atoms: C_16  and  C_17
REMARK    6  A    between atoms: C_19  and  C_20
REMARK                            x       y       z     vdW  Elec       q    Type
REMARK                         _______ _______ _______ _____ _____    ______ ____
ROOT
ATOM      1  C   UNL     1       6.690   4.177  15.846  0.00  0.00    +0.000 C 
ATOM      2  C   UNL     1       7.186   4.506  14.434  0.00  0.00    +0.000 C 
ATOM      3  C   UNL     1       6.194   3.785  13.537  0.00  0.00    +0.000 C 
ATOM      4  C   UNL     1       4.888   3.832  14.318  0.00  0.00    +0.000 C 
ATOM      5  N   UNL     1       5.230   4.224  15.681  0.00  0.00    +0.000 N 
ATOM      6  C   UNL     1       4.194   4.202  16.606  0.00  0.00    +0.000 C 
ATOM      7  O   UNL     1       3.066   3.853  16.255  0.00  0.00    +0.000 OA
ATOM      8  N   UNL     1       4.488   4.675  17.860  0.00  0.00    +0.000 N 
ATOM      9  H   UNL     1       5.375   5.134  17.982  0.00  0.00    +0.000 HD
ENDROOT
BRANCH   8  10
ATOM     10  C   UNL     1       3.597   4.873  18.937  0.00  0.00    +0.000 A 
ATOM     11  C   UNL     1       3.037   6.106  19.268  0.00  0.00    +0.000 A 
ATOM     12  C   UNL     1       2.168   6.226  20.362  0.00  0.00    +0.000 A 
ATOM     13  C   UNL     1       1.540   7.548  20.696  0.00  0.00    +0.000 C 
ATOM     14  C   UNL     1       1.886   5.100  21.147  0.00  0.00    +0.000 A 
ATOM     15  C   UNL     1       2.438   3.858  20.833  0.00  0.00    +0.000 A 
ATOM     16  C   UNL     1       2.173   2.652  21.686  0.00  0.00    +0.000 C 
ATOM     17  C   UNL     1       3.274   3.749  19.711  0.00  0.00    +0.000 A 
ENDBRANCH   8  10
BRANCH   1  20
ATOM     18  C   UNL     1       7.891   6.662  18.271  0.00  0.00    +0.000 A 
ATOM     19  C   UNL     1       7.522   6.444  16.923  0.00  0.00    +0.000 A 
ATOM     20  C   UNL     1       7.245   5.100  16.857  0.00  0.00    +0.000 A 
ATOM     21  O   UNL     1       7.505   4.539  18.072  0.00  0.00    +0.000 OA
ATOM     22  N   UNL     1       7.882   5.520  18.966  0.00  0.00    +0.000 NA
BRANCH  18  24
ATOM     23  C   UNL     1       8.203   9.118  17.957  0.00  0.00    +0.000 C 
ATOM     24  C   UNL     1       8.216   7.951  18.936  0.00  0.00    +0.000 C 
ENDBRANCH  18  24
ENDBRANCH   1  20
TORSDOF 3
ENDMDL
MODEL 6
REMARK VINA RESULT:      -7.3      2.191      5.041
REMARK  Name = 
REMARK  6 active torsions:
REMARK  status: ('A' for Active; 'I' for Inactive)
REMARK    1  A    between atoms: C_1  and  C_2
REMARK    2  A    between atoms: C_2  and  C_3
REMARK    3  A    between atoms: C_5  and  C_6
REMARK    4  A    between atoms: N_13  and  C_14
REMARK    5  A    between atoms: C_16  and  C_17
REMARK    6  A    between atoms: C_19  and  C_20
REMARK                            x       y       z     vdW  Elec       q    Type
REMARK                         _______ _______ _______ _____ _____    ______ ____
ROOT
ATOM      1  C   UNL     1       4.182   4.363  16.579  0.00  0.00    +0.000 C 
ATOM      2  C   UNL     1       5.454   3.522  16.424  0.00  0.00    +0.000 C 
ATOM      3  C   UNL     1       6.446   4.498  15.812  0.00  0.00    +0.000 C 
ATOM      4  C   UNL     1       6.043   5.847  16.391  0.00  0.00    +0.000 C 
ATOM      5  N   UNL     1       4.721   5.671  16.981  0.00  0.00    +0.000 N 
ATOM      6  C   UNL     1       4.101   6.820  17.456  0.00  0.00    +0.000 C 
ATOM      7  O   UNL     1       4.667   7.908  17.355  0.00  0.00    +0.000 OA
ATOM      8  N   UNL     1       2.908   6.641  18.109  0.00  0.00    +0.000 N 
ATOM      9  H   UNL     1       2.639   5.696  18.325  0.00  0.00    +0.000 HD
ENDROOT
BRANCH   8  10
ATOM     10  C   UNL     1       2.141   7.616  18.786  0.00  0.00    +0.000 A 
ATOM     11  C   UNL     1       2.053   7.710  20.173  0.00  0.00    +0.000 A 
ATOM     12  C   UNL     1       1.261   8.699  20.774  0.00  0.00    +0.000 A 
ATOM     13  C   UNL     1       1.193   8.821  22.268  0.00  0.00    +0.000 C 
ATOM     14  C   UNL     1       0.526   9.579  19.967  0.00  0.00    +0.000 A 
ATOM     15  C   UNL     1       0.600   9.498  18.576  0.00  0.00    +0.000 A 
ATOM     16  C   UNL     1      -0.209  10.411  17.701  0.00  0.00    +0.000 C 
ATOM     17  C   UNL     1       1.430   8.528  17.994  0.00  0.00    +0.000 A 
ENDBRANCH   8  10
BRANCH   1  20
ATOM     18  C   UNL     1       1.947   2.963  19.137  0.00  0.00    +0.000 A 
ATOM     19  C   UNL     1       3.295   3.194  18.779  0.00  0.00    +0.000 A 
ATOM     20  C   UNL     1       3.227   3.752  17.525  0.00  0.00    +0.000 A 
ATOM     21  O   UNL     1       1.922   3.783  17.131  0.00  0.00    +0.000 OA
ATOM     22  N   UNL     1       1.117   3.316  18.150  0.00  0.00    +0.000 NA
BRANCH  18  24
ATOM     23  C   UNL     1       1.987   3.199  21.620  0.00  0.00    +0.000 C 
ATOM     24  C   UNL     1       1.415   2.447  20.425  0.00  0.00    +0.000 C 
ENDBRANCH  18  24
ENDBRANCH   1  20
TORSDOF 3
ENDMDL
MODEL 7
REMARK VINA RESULT:      -7.3      2.277      4.422
REMARK  Name = 
REMARK  6 active torsions:
REMARK  status: ('A' for Active; 'I' for Inactive)
REMARK    1  A    between atoms: C_1  and  C_2
REMARK    2  A    between atoms: C_2  and  C_3
REMARK    3  A    between atoms: C_5  and  C_6
REMARK    4  A    between atoms: N_13  and  C_14
REMARK    5  A    between atoms: C_16  and  C_17
REMARK    6  A    between atoms: C_19  and  C_20
REMARK                            x       y       z     vdW  Elec       q    Type
REMARK                         _______ _______ _______ _____ _____    ______ ____
ROOT
ATOM      1  C   UNL     1       4.034   3.733  19.383  0.00  0.00    +0.000 C 
ATOM      2  C   UNL     1       4.078   2.396  18.634  0.00  0.00    +0.000 C 
ATOM      3  C   UNL     1       2.945   1.604  19.263  0.00  0.00    +0.000 C 
ATOM      4  C   UNL     1       1.913   2.662  19.631  0.00  0.00    +0.000 C 
ATOM      5  N   UNL     1       2.588   3.952  19.541  0.00  0.00    +0.000 N 
ATOM      6  C   UNL     1       1.862   5.057  19.965  0.00  0.00    +0.000 C 
ATOM      7  O   UNL     1       0.719   4.910  20.399  0.00  0.00    +0.000 OA
ATOM      8  N   UNL     1       2.452   6.281  19.778  0.00  0.00    +0.000 N 
ATOM      9  H   UNL     1       3.291   6.307  19.223  0.00  0.00    +0.000 HD
ENDROOT
BRANCH   8  10
ATOM     10  C   UNL     1       1.886   7.555  20.007  0.00  0.00    +0.000 A 
ATOM     11  C   UNL     1       1.817   8.560  19.044  0.00  0.00    +0.000 A 
ATOM     12  C   UNL     1       1.250   9.805  19.350  0.00  0.00    +0.000 A 
ATOM     13  C   UNL     1       1.145  10.875  18.302  0.00  0.00    +0.000 C 
ATOM     14  C   UNL     1       0.780  10.050  20.647  0.00  0.00    +0.000 A 
ATOM     15  C   UNL     1       0.843   9.057  21.626  0.00  0.00    +0.000 A 
ATOM     16  C   UNL     1       0.376   9.317  23.028  0.00  0.00    +0.000 C 
ATOM     17  C   UNL     1       1.376   7.803  21.290  0.00  0.00    +0.000 A 
ENDBRANCH   8  10
BRANCH   1  20
ATOM     18  C   UNL     1       6.080   6.257  17.670  0.00  0.00    +0.000 A 
ATOM     19  C   UNL     1       5.911   5.521  18.866  0.00  0.00    +0.000 A 
ATOM     20  C   UNL     1       4.762   4.796  18.662  0.00  0.00    +0.000 A 
ATOM     21  O   UNL     1       4.239   5.135  17.450  0.00  0.00    +0.000 OA
ATOM     22  N   UNL     1       5.078   6.029  16.815  0.00  0.00    +0.000 NA
BRANCH  18  24
ATOM     23  C   UNL     1       8.158   7.391  18.460  0.00  0.00    +0.000 C 
ATOM     24  C   UNL     1       7.206   7.153  17.296  0.00  0.00    +0.000 C 
ENDBRANCH  18  24
ENDBRANCH   1  20
TORSDOF 3
ENDMDL
MODEL 8
REMARK VINA RESULT:      -7.2      2.219      5.306
REMARK  Name = 
REMARK  6 active torsions:
REMARK  status: ('A' for Active; 'I' for Inactive)
REMARK    1  A    between atoms: C_1  and  C_2
REMARK    2  A    between atoms: C_2  and  C_3
REMARK    3  A    between atoms: C_5  and  C_6
REMARK    4  A    between atoms: N_13  and  C_14
REMARK    5  A    between atoms: C_16  and  C_17
REMARK    6  A    between atoms: C_19  and  C_20
REMARK                            x       y       z     vdW  Elec       q    Type
REMARK                         _______ _______ _______ _____ _____    ______ ____
ROOT
ATOM      1  C   UNL     1       4.110   4.443  16.698  0.00  0.00    +0.000 C 
ATOM      2  C   UNL     1       5.389   3.601  16.622  0.00  0.00    +0.000 C 
ATOM      3  C   UNL     1       6.397   4.551  15.998  0.00  0.00    +0.000 C 
ATOM      4  C   UNL     1       5.973   5.924  16.502  0.00  0.00    +0.000 C 
ATOM      5  N   UNL     1       4.633   5.770  17.057  0.00  0.00    +0.000 N 
ATOM      6  C   UNL     1       3.996   6.937  17.460  0.00  0.00    +0.000 C 
ATOM      7  O   UNL     1       4.563   8.022  17.327  0.00  0.00    +0.000 OA
ATOM      8  N   UNL     1       2.783   6.783  18.082  0.00  0.00    +0.000 N 
ATOM      9  H   UNL     1       2.509   5.849  18.332  0.00  0.00    +0.000 HD
ENDROOT
BRANCH   8  10
ATOM     10  C   UNL     1       1.993   7.785  18.689  0.00  0.00    +0.000 A 
ATOM     11  C   UNL     1       1.279   8.748  17.979  0.00  0.00    +0.000 A 
ATOM     12  C   UNL     1       0.525   9.720  18.652  0.00  0.00    +0.000 A 
ATOM     13  C   UNL     1      -0.270  10.736  17.886  0.00  0.00    +0.000 C 
ATOM     14  C   UNL     1       0.518   9.740  20.053  0.00  0.00    +0.000 A 
ATOM     15  C   UNL     1       1.229   8.785  20.781  0.00  0.00    +0.000 A 
ATOM     16  C   UNL     1       1.258   8.816  22.282  0.00  0.00    +0.000 C 
ATOM     17  C   UNL     1       1.944   7.796  20.090  0.00  0.00    +0.000 A 
ENDBRANCH   8  10
BRANCH   1  20
ATOM     18  C   UNL     1       1.779   3.176  19.240  0.00  0.00    +0.000 A 
ATOM     19  C   UNL     1       3.132   3.471  18.955  0.00  0.00    +0.000 A 
ATOM     20  C   UNL     1       3.127   3.872  17.641  0.00  0.00    +0.000 A 
ATOM     21  O   UNL     1       1.859   3.754  17.153  0.00  0.00    +0.000 OA
ATOM     22  N   UNL     1       1.009   3.345  18.160  0.00  0.00    +0.000 NA
BRANCH  18  24
ATOM     23  C   UNL     1       2.189   2.855  21.680  0.00  0.00    +0.000 C 
ATOM     24  C   UNL     1       1.182   2.773  20.540  0.00  0.00    +0.000 C 
ENDBRANCH  18  24
ENDBRANCH   1  20
TORSDOF 3
ENDMDL
MODEL 9
REMARK VINA RESULT:      -7.2      2.541      4.185
REMARK  Name = 
REMARK  6 active torsions:
REMARK  status: ('A' for Active; 'I' for Inactive)
REMARK    1  A    between atoms: C_1  and  C_2
REMARK    2  A    between atoms: C_2  and  C_3
REMARK    3  A    between atoms: C_5  and  C_6
REMARK    4  A    between atoms: N_13  and  C_14
REMARK    5  A    between atoms: C_16  and  C_17
REMARK    6  A    between atoms: C_19  and  C_20
REMARK                            x       y       z     vdW  Elec       q    Type
REMARK                         _______ _______ _______ _____ _____    ______ ____
ROOT
ATOM      1  C   UNL     1       4.053   3.133  19.407  0.00  0.00    +0.000 C 
ATOM      2  C   UNL     1       4.136   1.837  18.593  0.00  0.00    +0.000 C 
ATOM      3  C   UNL     1       2.876   1.089  18.995  0.00  0.00    +0.000 C 
ATOM      4  C   UNL     1       1.862   2.192  19.267  0.00  0.00    +0.000 C 
ATOM      5  N   UNL     1       2.615   3.438  19.358  0.00  0.00    +0.000 N 
ATOM      6  C   UNL     1       1.896   4.565  19.734  0.00  0.00    +0.000 C 
ATOM      7  O   UNL     1       0.693   4.471  19.980  0.00  0.00    +0.000 OA
ATOM      8  N   UNL     1       2.577   5.756  19.713  0.00  0.00    +0.000 N 
ATOM      9  H   UNL     1       3.491   5.755  19.294  0.00  0.00    +0.000 HD
ENDROOT
BRANCH   8  10
ATOM     10  C   UNL     1       2.056   7.051  19.932  0.00  0.00    +0.000 A 
ATOM     11  C   UNL     1       1.457   7.457  21.123  0.00  0.00    +0.000 A 
ATOM     12  C   UNL     1       0.951   8.757  21.262  0.00  0.00    +0.000 A 
ATOM     13  C   UNL     1       0.337   9.204  22.556  0.00  0.00    +0.000 C 
ATOM     14  C   UNL     1       1.021   9.645  20.179  0.00  0.00    +0.000 A 
ATOM     15  C   UNL     1       1.614   9.255  18.978  0.00  0.00    +0.000 A 
ATOM     16  C   UNL     1       1.663  10.183  17.798  0.00  0.00    +0.000 C 
ATOM     17  C   UNL     1       2.151   7.963  18.871  0.00  0.00    +0.000 A 
ENDBRANCH   8  10
BRANCH   1  20
ATOM     18  C   UNL     1       6.053   5.839  17.933  0.00  0.00    +0.000 A 
ATOM     19  C   UNL     1       5.101   4.827  17.668  0.00  0.00    +0.000 A 
ATOM     20  C   UNL     1       4.943   4.182  18.871  0.00  0.00    +0.000 A 
ATOM     21  O   UNL     1       5.804   4.728  19.777  0.00  0.00    +0.000 OA
ATOM     22  N   UNL     1       6.478   5.784  19.199  0.00  0.00    +0.000 NA
BRANCH  18  24
ATOM     23  C   UNL     1       7.683   7.703  17.626  0.00  0.00    +0.000 C 
ATOM     24  C   UNL     1       6.545   6.897  17.012  0.00  0.00    +0.000 C 
ENDBRANCH  18  24
ENDBRANCH   1  20
TORSDOF 3
ENDMDL
