MODEL 1
REMARK VINA RESULT:      -7.3      0.000      0.000
REMARK  Name = 
REMARK  5 active torsions:
REMARK  status: ('A' for Active; 'I' for Inactive)
REMARK    1  A    between atoms: C_1  and  O_2
REMARK    2  A    between atoms: O_2  and  C_3
REMARK    3  A    between atoms: C_6  and  C_7
REMARK    4  A    between atoms: N_17  and  C_18
REMARK    5  A    between atoms: C_27  and  O_28
REMARK                            x       y       z     vdW  Elec       q    Type
REMARK                         _______ _______ _______ _____ _____    ______ ____
ROOT
ATOM      1  C   UNL     1       0.955  10.423  20.376  0.00  0.00    +0.000 C 
ATOM      2  C   UNL     1      -0.391  10.060  21.002  0.00  0.00    +0.000 C 
ATOM      3  C   UNL     1      -0.190   8.813  21.868  0.00  0.00    +0.000 C 
ATOM      4  O   UNL     1      -0.833   8.617  22.896  0.00  0.00    +0.000 OA
ATOM      5  N   UNL     1       0.707   7.873  21.386  0.00  0.00    +0.000 N 
ATOM      6  C   UNL     1       1.418   8.022  20.231  0.00  0.00    +0.000 A 
ATOM      7  C   UNL     1       1.456   9.237  19.672  0.00  0.00    +0.000 A 
ATOM      8  C   UNL     1       2.080   9.064  18.359  0.00  0.00    +0.000 A 
ATOM      9  O   UNL     1       1.957   9.777  17.387  0.00  0.00    +0.000 OA
ATOM     10  N   UNL     1       2.742   7.849  18.423  0.00  0.00    +0.000 N 
ATOM     11  N   UNL     1       2.193   7.113  19.511  0.00  0.00    +0.000 N 
ATOM     12  H   UNL     1       0.783   7.018  21.920  0.00  0.00    +0.000 HD
ATOM     13  H   UNL     1       2.992   7.390  17.557  0.00  0.00    +0.000 HD
ENDROOT
BRANCH  11  14
ATOM     14  C   UNL     1       1.831   5.727  19.143  0.00  0.00    +0.000 C 
ATOM     15  C   UNL     1       2.909   5.092  18.265  0.00  0.00    +0.000 C 
ATOM     16  C   UNL     1       2.453   3.814  17.557  0.00  0.00    +0.000 C 
ATOM     17  C   UNL     1       2.113   2.600  18.427  0.00  0.00    +0.000 C 
ATOM     18  C   UNL     1       3.079   2.327  19.583  0.00  0.00    +0.000 C 
ATOM     19  C   UNL     1       2.573   2.762  20.961  0.00  0.00    +0.000 C 
ATOM     20  C   UNL     1       2.465   4.265  21.193  0.00  0.00    +0.000 C 
ATOM     21  C   UNL     1       1.363   4.944  20.386  0.00  0.00    +0.000 C 
ENDBRANCH  11  14
BRANCH   1  25
ATOM     22  C   UNL     1       1.384  14.442  18.898  0.00  0.00    +0.000 A 
ATOM     23  C   UNL     1       2.431  13.807  19.568  0.00  0.00    +0.000 A 
ATOM     24  C   UNL     1       2.304  12.484  19.972  0.00  0.00    +0.000 A 
ATOM     25  C   UNL     1       1.138  11.749  19.687  0.00  0.00    +0.000 A 
ATOM     26  C   UNL     1       0.151  12.337  18.902  0.00  0.00    +0.000 A 
ATOM     27  C   UNL     1       0.257  13.688  18.561  0.00  0.00    +0.000 A 
BRANCH  22  29
ATOM     28  C   UNL     1       2.787  16.154  18.025  0.00  0.00    +0.000 C 
ATOM     29  O   UNL     1       1.602  15.778  18.707  0.00  0.00    +0.000 OA
ENDBRANCH  22  29
BRANCH  27  30
ATOM     30  O   UNL     1      -0.845  14.242  17.975  0.00  0.00    +0.000 OA
ATOM     31  H   UNL     1      -0.649  15.194  17.923  0.00  0.00    +0.000 HD
ENDBRANCH  27  30
ENDBRANCH   1  25
TORSDOF 4
ENDMDL
MODEL 2
REMARK VINA RESULT:      -7.3      1.406      1.596
REMARK  Name = 
REMARK  5 active torsions:
REMARK  status: ('A' for Active; 'I' for Inactive)
REMARK    1  A    between atoms: C_1  and  O_2
REMARK    2  A    between atoms: O_2  and  C_3
REMARK    3  A    between atoms: C_6  and  C_7
REMARK    4  A    between atoms: N_17  and  C_18
REMARK    5  A    between atoms: C_27  and  O_28
REMARK                            x       y       z     vdW  Elec       q    Type
REMARK                         _______ _______ _______ _____ _____    ______ ____
ROOT
ATOM      1  C   UNL     1       0.865  10.781  20.638  0.00  0.00    +0.000 C 
ATOM      2  C   UNL     1       0.112  10.290  21.875  0.00  0.00    +0.000 C 
ATOM      3  C   UNL     1       0.988   9.250  22.580  0.00  0.00    +0.000 C 
ATOM      4  O   UNL     1       0.986   9.109  23.800  0.00  0.00    +0.000 OA
ATOM      5  N   UNL     1       1.732   8.419  21.758  0.00  0.00    +0.000 N 
ATOM      6  C   UNL     1       1.742   8.506  20.397  0.00  0.00    +0.000 A 
ATOM      7  C   UNL     1       1.222   9.605  19.836  0.00  0.00    +0.000 A 
ATOM      8  C   UNL     1       1.158   9.339  18.398  0.00  0.00    +0.000 A 
ATOM      9  O   UNL     1       0.420   9.857  17.587  0.00  0.00    +0.000 OA
ATOM     10  N   UNL     1       2.029   8.286  18.178  0.00  0.00    +0.000 N 
ATOM     11  N   UNL     1       2.260   7.646  19.429  0.00  0.00    +0.000 N 
ATOM     12  H   UNL     1       2.251   7.686  22.221  0.00  0.00    +0.000 HD
ATOM     13  H   UNL     1       1.929   7.746  17.328  0.00  0.00    +0.000 HD
ENDROOT
BRANCH  11  14
ATOM     14  C   UNL     1       2.097   6.177  19.362  0.00  0.00    +0.000 C 
ATOM     15  C   UNL     1       1.911   5.710  17.919  0.00  0.00    +0.000 C 
ATOM     16  C   UNL     1       1.386   4.277  17.797  0.00  0.00    +0.000 C 
ATOM     17  C   UNL     1       2.286   3.144  18.296  0.00  0.00    +0.000 C 
ATOM     18  C   UNL     1       3.766   3.268  17.927  0.00  0.00    +0.000 C 
ATOM     19  C   UNL     1       4.676   3.747  19.061  0.00  0.00    +0.000 C 
ATOM     20  C   UNL     1       4.498   5.197  19.498  0.00  0.00    +0.000 C 
ATOM     21  C   UNL     1       3.178   5.477  20.210  0.00  0.00    +0.000 C 
ENDBRANCH  11  14
BRANCH   1  25
ATOM     22  C   UNL     1      -0.247  14.541  18.864  0.00  0.00    +0.000 A 
ATOM     23  C   UNL     1       1.007  13.977  18.625  0.00  0.00    +0.000 A 
ATOM     24  C   UNL     1       1.323  12.727  19.143  0.00  0.00    +0.000 A 
ATOM     25  C   UNL     1       0.380  11.992  19.887  0.00  0.00    +0.000 A 
ATOM     26  C   UNL     1      -0.912  12.493  20.010  0.00  0.00    +0.000 A 
ATOM     27  C   UNL     1      -1.199  13.779  19.546  0.00  0.00    +0.000 A 
BRANCH  22  29
ATOM     28  C   UNL     1       0.668  16.737  18.821  0.00  0.00    +0.000 C 
ATOM     29  O   UNL     1      -0.347  15.831  18.422  0.00  0.00    +0.000 OA
ENDBRANCH  22  29
BRANCH  27  30
ATOM     30  O   UNL     1      -2.424  14.278  19.892  0.00  0.00    +0.000 OA
ATOM     31  H   UNL     1      -2.716  14.784  19.113  0.00  0.00    +0.000 HD
ENDBRANCH  27  30
ENDBRANCH   1  25
TORSDOF 4
ENDMDL
MODEL 3
REMARK VINA RESULT:      -7.2      3.843      8.294
REMARK  Name = 
REMARK  5 active torsions:
REMARK  status: ('A' for Active; 'I' for Inactive)
REMARK    1  A    between atoms: C_1  and  O_2
REMARK    2  A    between atoms: O_2  and  C_3
REMARK    3  A    between atoms: C_6  and  C_7
REMARK    4  A    between atoms: N_17  and  C_18
REMARK    5  A    between atoms: C_27  and  O_28
REMARK                            x       y       z     vdW  Elec       q    Type
REMARK                         _______ _______ _______ _____ _____    ______ ____
ROOT
ATOM      1  C   UNL     1      -0.262  10.667  18.903  0.00  0.00    +0.000 C 
ATOM      2  C   UNL     1      -1.678  10.210  18.554  0.00  0.00    +0.000 C 
ATOM      3  C   UNL     1      -2.520  11.456  18.265  0.00  0.00    +0.000 C 
ATOM      4  O   UNL     1      -3.433  11.455  17.443  0.00  0.00    +0.000 OA
ATOM      5  N   UNL     1      -2.246  12.572  19.039  0.00  0.00    +0.000 N 
ATOM      6  C   UNL     1      -1.270  12.616  19.992  0.00  0.00    +0.000 A 
ATOM      7  C   UNL     1      -0.361  11.633  20.002  0.00  0.00    +0.000 A 
ATOM      8  C   UNL     1       0.410  11.803  21.235  0.00  0.00    +0.000 A 
ATOM      9  O   UNL     1       1.032  10.954  21.836  0.00  0.00    +0.000 OA
ATOM     10  N   UNL     1       0.180  13.108  21.638  0.00  0.00    +0.000 N 
ATOM     11  N   UNL     1      -0.997  13.564  20.977  0.00  0.00    +0.000 N 
ATOM     12  H   UNL     1      -2.851  13.369  18.898  0.00  0.00    +0.000 HD
ATOM     13  H   UNL     1       0.365  13.356  22.601  0.00  0.00    +0.000 HD
ENDROOT
BRANCH  11  14
ATOM     14  C   UNL     1      -1.965  14.197  21.899  0.00  0.00    +0.000 C 
ATOM     15  C   UNL     1      -3.325  14.380  21.228  0.00  0.00    +0.000 C 
ATOM     16  C   UNL     1      -4.258  15.336  21.977  0.00  0.00    +0.000 C 
ATOM     17  C   UNL     1      -4.737  14.919  23.369  0.00  0.00    +0.000 C 
ATOM     18  C   UNL     1      -5.152  13.452  23.511  0.00  0.00    +0.000 C 
ATOM     19  C   UNL     1      -4.121  12.554  24.202  0.00  0.00    +0.000 C 
ATOM     20  C   UNL     1      -2.837  12.285  23.424  0.00  0.00    +0.000 C 
ATOM     21  C   UNL     1      -1.930  13.502  23.275  0.00  0.00    +0.000 C 
ENDBRANCH  11  14
BRANCH   1  25
ATOM     22  C   UNL     1       2.649   7.499  18.773  0.00  0.00    +0.000 A 
ATOM     23  C   UNL     1       2.571   8.446  17.750  0.00  0.00    +0.000 A 
ATOM     24  C   UNL     1       1.677   9.506  17.843  0.00  0.00    +0.000 A 
ATOM     25  C   UNL     1       0.860   9.667  18.979  0.00  0.00    +0.000 A 
ATOM     26  C   UNL     1       1.034   8.803  20.055  0.00  0.00    +0.000 A 
ATOM     27  C   UNL     1       1.884   7.701  19.925  0.00  0.00    +0.000 A 
BRANCH  22  29
ATOM     28  C   UNL     1       2.840   5.284  17.928  0.00  0.00    +0.000 C 
ATOM     29  O   UNL     1       3.458   6.442  18.464  0.00  0.00    +0.000 OA
ENDBRANCH  22  29
BRANCH  27  30
ATOM     30  O   UNL     1       1.838   6.790  20.941  0.00  0.00    +0.000 OA
ATOM     31  H   UNL     1       1.362   6.026  20.570  0.00  0.00    +0.000 HD
ENDBRANCH  27  30
ENDBRANCH   1  25
TORSDOF 4
ENDMDL
MODEL 4
REMARK VINA RESULT:      -7.1      2.466      8.098
REMARK  Name = 
REMARK  5 active torsions:
REMARK  status: ('A' for Active; 'I' for Inactive)
REMARK    1  A    between atoms: C_1  and  O_2
REMARK    2  A    between atoms: O_2  and  C_3
REMARK    3  A    between atoms: C_6  and  C_7
REMARK    4  A    between atoms: N_17  and  C_18
REMARK    5  A    between atoms: C_27  and  O_28
REMARK                            x       y       z     vdW  Elec       q    Type
REMARK                         _______ _______ _______ _____ _____    ______ ____
ROOT
ATOM      1  C   UNL     1       1.232   7.939  20.659  0.00  0.00    +0.000 C 
ATOM      2  C   UNL     1       1.621   8.546  22.007  0.00  0.00    +0.000 C 
ATOM      3  C   UNL     1       0.633   9.672  22.322  0.00  0.00    +0.000 C 
ATOM      4  O   UNL     1       0.292   9.944  23.471  0.00  0.00    +0.000 OA
ATOM      5  N   UNL     1       0.198  10.424  21.243  0.00  0.00    +0.000 N 
ATOM      6  C   UNL     1       0.575  10.191  19.952  0.00  0.00    +0.000 A 
ATOM      7  C   UNL     1       1.178   9.028  19.677  0.00  0.00    +0.000 A 
ATOM      8  C   UNL     1       1.665   9.136  18.301  0.00  0.00    +0.000 A 
ATOM      9  O   UNL     1       2.578   8.520  17.794  0.00  0.00    +0.000 OA
ATOM     10  N   UNL     1       0.947  10.176  17.735  0.00  0.00    +0.000 N 
ATOM     11  N   UNL     1       0.399  10.952  18.797  0.00  0.00    +0.000 N 
ATOM     12  H   UNL     1      -0.395  11.213  21.461  0.00  0.00    +0.000 HD
ATOM     13  H   UNL     1       1.313  10.619  16.903  0.00  0.00    +0.000 HD
ENDROOT
BRANCH  11  14
ATOM     14  C   UNL     1       0.647  12.401  18.636  0.00  0.00    +0.000 C 
ATOM     15  C   UNL     1      -0.485  13.224  19.250  0.00  0.00    +0.000 C 
ATOM     16  C   UNL     1      -0.484  14.692  18.817  0.00  0.00    +0.000 C 
ATOM     17  C   UNL     1       0.699  15.562  19.249  0.00  0.00    +0.000 C 
ATOM     18  C   UNL     1       1.165  15.368  20.694  0.00  0.00    +0.000 C 
ATOM     19  C   UNL     1       2.435  14.528  20.855  0.00  0.00    +0.000 C 
ATOM     20  C   UNL     1       2.305  13.045  20.528  0.00  0.00    +0.000 C 
ATOM     21  C   UNL     1       2.092  12.748  19.047  0.00  0.00    +0.000 C 
ENDBRANCH  11  14
BRANCH   1  25
ATOM     22  C   UNL     1       3.067   4.123  19.892  0.00  0.00    +0.000 A 
ATOM     23  C   UNL     1       1.718   4.215  20.238  0.00  0.00    +0.000 A 
ATOM     24  C   UNL     1       1.122   5.458  20.408  0.00  0.00    +0.000 A 
ATOM     25  C   UNL     1       1.851   6.645  20.204  0.00  0.00    +0.000 A 
ATOM     26  C   UNL     1       3.155   6.555  19.727  0.00  0.00    +0.000 A 
ATOM     27  C   UNL     1       3.767   5.303  19.626  0.00  0.00    +0.000 A 
BRANCH  22  29
ATOM     28  C   UNL     1       3.351   2.057  18.747  0.00  0.00    +0.000 C 
ATOM     29  O   UNL     1       3.539   2.840  19.913  0.00  0.00    +0.000 OA
ENDBRANCH  22  29
BRANCH  27  30
ATOM     30  O   UNL     1       5.106   5.314  19.356  0.00  0.00    +0.000 OA
ATOM     31  H   UNL     1       5.471   4.577  19.876  0.00  0.00    +0.000 HD
ENDBRANCH  27  30
ENDBRANCH   1  25
TORSDOF 4
ENDMDL
MODEL 5
REMARK VINA RESULT:      -6.9      3.388      8.966
REMARK  Name = 
REMARK  5 active torsions:
REMARK  status: ('A' for Active; 'I' for Inactive)
REMARK    1  A    between atoms: C_1  and  O_2
REMARK    2  A    between atoms: O_2  and  C_3
REMARK    3  A    between atoms: C_6  and  C_7
REMARK    4  A    between atoms: N_17  and  C_18
REMARK    5  A    between atoms: C_27  and  O_28
REMARK                            x       y       z     vdW  Elec       q    Type
REMARK                         _______ _______ _______ _____ _____    ______ ____
ROOT
ATOM      1  C   UNL     1       0.172  10.543  18.286  0.00  0.00    +0.000 C 
ATOM      2  C   UNL     1      -1.328  10.251  18.253  0.00  0.00    +0.000 C 
ATOM      3  C   UNL     1      -2.014  11.383  17.482  0.00  0.00    +0.000 C 
ATOM      4  O   UNL     1      -3.016  11.198  16.797  0.00  0.00    +0.000 OA
ATOM      5  N   UNL     1      -1.485  12.652  17.661  0.00  0.00    +0.000 N 
ATOM      6  C   UNL     1      -0.399  12.920  18.441  0.00  0.00    +0.000 A 
ATOM      7  C   UNL     1       0.355  11.889  18.842  0.00  0.00    +0.000 A 
ATOM      8  C   UNL     1       1.295  12.427  19.826  0.00  0.00    +0.000 A 
ATOM      9  O   UNL     1       1.861  11.820  20.709  0.00  0.00    +0.000 OA
ATOM     10  N   UNL     1       1.307  13.796  19.615  0.00  0.00    +0.000 N 
ATOM     11  N   UNL     1       0.132  14.131  18.883  0.00  0.00    +0.000 N 
ATOM     12  H   UNL     1      -1.983  13.407  17.211  0.00  0.00    +0.000 HD
ATOM     13  H   UNL     1       1.649  14.395  20.355  0.00  0.00    +0.000 HD
ENDROOT
BRANCH  11  14
ATOM     14  C   UNL     1      -0.607  15.268  19.474  0.00  0.00    +0.000 C 
ATOM     15  C   UNL     1      -0.347  15.371  20.977  0.00  0.00    +0.000 C 
ATOM     16  C   UNL     1      -1.336  16.278  21.712  0.00  0.00    +0.000 C 
ATOM     17  C   UNL     1      -1.326  17.770  21.369  0.00  0.00    +0.000 C 
ATOM     18  C   UNL     1       0.060  18.402  21.218  0.00  0.00    +0.000 C 
ATOM     19  C   UNL     1       0.511  18.631  19.773  0.00  0.00    +0.000 C 
ATOM     20  C   UNL     1       0.815  17.378  18.958  0.00  0.00    +0.000 C 
ATOM     21  C   UNL     1      -0.413  16.538  18.622  0.00  0.00    +0.000 C 
ENDBRANCH  11  14
BRANCH   1  25
ATOM     22  C   UNL     1       2.646   7.165  19.282  0.00  0.00    +0.000 A 
ATOM     23  C   UNL     1       2.807   7.842  18.072  0.00  0.00    +0.000 A 
ATOM     24  C   UNL     1       2.052   8.976  17.798  0.00  0.00    +0.000 A 
ATOM     25  C   UNL     1       1.140   9.484  18.742  0.00  0.00    +0.000 A 
ATOM     26  C   UNL     1       1.078   8.891  19.999  0.00  0.00    +0.000 A 
ATOM     27  C   UNL     1       1.787   7.712  20.240  0.00  0.00    +0.000 A 
BRANCH  22  29
ATOM     28  C   UNL     1       4.148   5.659  18.217  0.00  0.00    +0.000 C 
ATOM     29  O   UNL     1       3.341   5.989  19.335  0.00  0.00    +0.000 OA
ENDBRANCH  22  29
BRANCH  27  30
ATOM     30  O   UNL     1       1.509   7.080  21.419  0.00  0.00    +0.000 OA
ATOM     31  H   UNL     1       1.568   7.777  22.096  0.00  0.00    +0.000 HD
ENDBRANCH  27  30
ENDBRANCH   1  25
TORSDOF 4
ENDMDL
MODEL 6
REMARK VINA RESULT:      -6.8      4.136      6.442
REMARK  Name = 
REMARK  5 active torsions:
REMARK  status: ('A' for Active; 'I' for Inactive)
REMARK    1  A    between atoms: C_1  and  O_2
REMARK    2  A    between atoms: O_2  and  C_3
REMARK    3  A    between atoms: C_6  and  C_7
REMARK    4  A    between atoms: N_17  and  C_18
REMARK    5  A    between atoms: C_27  and  O_28
REMARK                            x       y       z     vdW  Elec       q    Type
REMARK                         _______ _______ _______ _____ _____    ______ ____
ROOT
ATOM      1  C   UNL     1       2.803   5.575  18.355  0.00  0.00    +0.000 C 
ATOM      2  C   UNL     1       1.763   4.586  17.828  0.00  0.00    +0.000 C 
ATOM      3  C   UNL     1       2.440   3.220  17.684  0.00  0.00    +0.000 C 
ATOM      4  O   UNL     1       1.833   2.166  17.859  0.00  0.00    +0.000 OA
ATOM      5  N   UNL     1       3.761   3.232  17.269  0.00  0.00    +0.000 N 
ATOM      6  C   UNL     1       4.470   4.372  17.023  0.00  0.00    +0.000 A 
ATOM      7  C   UNL     1       3.959   5.533  17.452  0.00  0.00    +0.000 A 
ATOM      8  C   UNL     1       4.791   6.586  16.869  0.00  0.00    +0.000 A 
ATOM      9  O   UNL     1       4.477   7.738  16.658  0.00  0.00    +0.000 OA
ATOM     10  N   UNL     1       5.969   5.962  16.495  0.00  0.00    +0.000 N 
ATOM     11  N   UNL     1       5.714   4.563  16.421  0.00  0.00    +0.000 N 
ATOM     12  H   UNL     1       4.183   2.329  17.104  0.00  0.00    +0.000 HD
ATOM     13  H   UNL     1       6.563   6.419  15.815  0.00  0.00    +0.000 HD
ENDROOT
BRANCH  11  14
ATOM     14  C   UNL     1       6.198   3.956  15.162  0.00  0.00    +0.000 C 
ATOM     15  C   UNL     1       5.188   4.152  14.032  0.00  0.00    +0.000 C 
ATOM     16  C   UNL     1       5.444   3.260  12.815  0.00  0.00    +0.000 C 
ATOM     17  C   UNL     1       6.731   3.491  12.020  0.00  0.00    +0.000 C 
ATOM     18  C   UNL     1       7.096   4.957  11.770  0.00  0.00    +0.000 C 
ATOM     19  C   UNL     1       8.207   5.507  12.670  0.00  0.00    +0.000 C 
ATOM     20  C   UNL     1       7.853   5.678  14.144  0.00  0.00    +0.000 C 
ATOM     21  C   UNL     1       7.661   4.365  14.896  0.00  0.00    +0.000 C 
ENDBRANCH  11  14
BRANCH   1  25
ATOM     22  C   UNL     1       1.083   9.236  19.825  0.00  0.00    +0.000 A 
ATOM     23  C   UNL     1       1.465   8.219  20.701  0.00  0.00    +0.000 A 
ATOM     24  C   UNL     1       2.089   7.075  20.217  0.00  0.00    +0.000 A 
ATOM     25  C   UNL     1       2.377   6.932  18.846  0.00  0.00    +0.000 A 
ATOM     26  C   UNL     1       2.120   8.001  17.994  0.00  0.00    +0.000 A 
ATOM     27  C   UNL     1       1.431   9.117  18.476  0.00  0.00    +0.000 A 
BRANCH  22  29
ATOM     28  C   UNL     1       0.040  10.046  21.803  0.00  0.00    +0.000 C 
ATOM     29  O   UNL     1       0.349  10.217  20.430  0.00  0.00    +0.000 OA
ENDBRANCH  22  29
BRANCH  27  30
ATOM     30  O   UNL     1       1.033  10.024  17.535  0.00  0.00    +0.000 OA
ATOM     31  H   UNL     1       1.428   9.710  16.703  0.00  0.00    +0.000 HD
ENDBRANCH  27  30
ENDBRANCH   1  25
TORSDOF 4
ENDMDL
MODEL 7
REMARK VINA RESULT:      -6.8      3.897      8.530
REMARK  Name = 
REMARK  5 active torsions:
REMARK  status: ('A' for Active; 'I' for Inactive)
REMARK    1  A    between atoms: C_1  and  O_2
REMARK    2  A    between atoms: O_2  and  C_3
REMARK    3  A    between atoms: C_6  and  C_7
REMARK    4  A    between atoms: N_17  and  C_18
REMARK    5  A    between atoms: C_27  and  O_28
REMARK                            x       y       z     vdW  Elec       q    Type
REMARK                         _______ _______ _______ _____ _____    ______ ____
ROOT
ATOM      1  C   UNL     1      -0.124  10.570  18.832  0.00  0.00    +0.000 C 
ATOM      2  C   UNL     1      -1.522  10.150  18.380  0.00  0.00    +0.000 C 
ATOM      3  C   UNL     1      -2.331  11.420  18.101  0.00  0.00    +0.000 C 
ATOM      4  O   UNL     1      -3.194  11.470  17.228  0.00  0.00    +0.000 OA
ATOM      5  N   UNL     1      -2.091  12.495  18.942  0.00  0.00    +0.000 N 
ATOM      6  C   UNL     1      -1.173  12.480  19.952  0.00  0.00    +0.000 A 
ATOM      7  C   UNL     1      -0.277  11.485  19.969  0.00  0.00    +0.000 A 
ATOM      8  C   UNL     1       0.421  11.586  21.251  0.00  0.00    +0.000 A 
ATOM      9  O   UNL     1       0.997  10.701  21.847  0.00  0.00    +0.000 OA
ATOM     10  N   UNL     1       0.182  12.874  21.701  0.00  0.00    +0.000 N 
ATOM     11  N   UNL     1      -0.948  13.377  20.995  0.00  0.00    +0.000 N 
ATOM     12  H   UNL     1      -2.678  13.306  18.804  0.00  0.00    +0.000 HD
ATOM     13  H   UNL     1       0.313  13.074  22.685  0.00  0.00    +0.000 HD
ENDROOT
BRANCH  11  14
ATOM     14  C   UNL     1      -1.961  13.980  21.888  0.00  0.00    +0.000 C 
ATOM     15  C   UNL     1      -2.216  13.095  23.108  0.00  0.00    +0.000 C 
ATOM     16  C   UNL     1      -3.485  13.463  23.881  0.00  0.00    +0.000 C 
ATOM     17  C   UNL     1      -3.530  14.829  24.569  0.00  0.00    +0.000 C 
ATOM     18  C   UNL     1      -2.249  15.241  25.300  0.00  0.00    +0.000 C 
ATOM     19  C   UNL     1      -1.382  16.260  24.556  0.00  0.00    +0.000 C 
ATOM     20  C   UNL     1      -0.692  15.759  23.291  0.00  0.00    +0.000 C 
ATOM     21  C   UNL     1      -1.643  15.469  22.134  0.00  0.00    +0.000 C 
ENDBRANCH  11  14
BRANCH   1  25
ATOM     22  C   UNL     1       2.732   7.352  18.755  0.00  0.00    +0.000 A 
ATOM     23  C   UNL     1       2.678   8.290  17.723  0.00  0.00    +0.000 A 
ATOM     24  C   UNL     1       1.802   9.366  17.799  0.00  0.00    +0.000 A 
ATOM     25  C   UNL     1       0.980   9.552  18.926  0.00  0.00    +0.000 A 
ATOM     26  C   UNL     1       1.131   8.696  20.012  0.00  0.00    +0.000 A 
ATOM     27  C   UNL     1       1.962   7.578  19.899  0.00  0.00    +0.000 A 
BRANCH  22  29
ATOM     28  C   UNL     1       2.909   5.164  17.838  0.00  0.00    +0.000 C 
ATOM     29  O   UNL     1       3.525   6.278  18.462  0.00  0.00    +0.000 OA
ENDBRANCH  22  29
BRANCH  27  30
ATOM     30  O   UNL     1       1.893   6.677  20.924  0.00  0.00    +0.000 OA
ATOM     31  H   UNL     1       1.950   5.806  20.494  0.00  0.00    +0.000 HD
ENDBRANCH  27  30
ENDBRANCH   1  25
TORSDOF 4
ENDMDL
MODEL 8
REMARK VINA RESULT:      -6.8      3.381      7.805
REMARK  Name = 
REMARK  5 active torsions:
REMARK  status: ('A' for Active; 'I' for Inactive)
REMARK    1  A    between atoms: C_1  and  O_2
REMARK    2  A    between atoms: O_2  and  C_3
REMARK    3  A    between atoms: C_6  and  C_7
REMARK    4  A    between atoms: N_17  and  C_18
REMARK    5  A    between atoms: C_27  and  O_28
REMARK                            x       y       z     vdW  Elec       q    Type
REMARK                         _______ _______ _______ _____ _____    ______ ____
ROOT
ATOM      1  C   UNL     1       3.762   4.950  18.490  0.00  0.00    +0.000 C 
ATOM      2  C   UNL     1       3.953   4.489  19.935  0.00  0.00    +0.000 C 
ATOM      3  C   UNL     1       2.652   4.763  20.695  0.00  0.00    +0.000 C 
ATOM      4  O   UNL     1       2.262   4.042  21.610  0.00  0.00    +0.000 OA
ATOM      5  N   UNL     1       1.971   5.918  20.345  0.00  0.00    +0.000 N 
ATOM      6  C   UNL     1       2.379   6.774  19.364  0.00  0.00    +0.000 A 
ATOM      7  C   UNL     1       3.330   6.352  18.521  0.00  0.00    +0.000 A 
ATOM      8  C   UNL     1       3.727   7.521  17.735  0.00  0.00    +0.000 A 
ATOM      9  O   UNL     1       4.783   7.701  17.167  0.00  0.00    +0.000 OA
ATOM     10  N   UNL     1       2.693   8.431  17.877  0.00  0.00    +0.000 N 
ATOM     11  N   UNL     1       1.938   8.052  19.025  0.00  0.00    +0.000 N 
ATOM     12  H   UNL     1       1.153   6.135  20.897  0.00  0.00    +0.000 HD
ATOM     13  H   UNL     1       2.874   9.404  17.672  0.00  0.00    +0.000 HD
ENDROOT
BRANCH  11  14
ATOM     14  C   UNL     1       1.685   9.183  19.944  0.00  0.00    +0.000 C 
ATOM     15  C   UNL     1       0.652  10.146  19.361  0.00  0.00    +0.000 C 
ATOM     16  C   UNL     1       0.603  11.501  20.072  0.00  0.00    +0.000 C 
ATOM     17  C   UNL     1       0.147  11.523  21.533  0.00  0.00    +0.000 C 
ATOM     18  C   UNL     1      -1.058  10.637  21.860  0.00  0.00    +0.000 C 
ATOM     19  C   UNL     1      -0.717   9.320  22.563  0.00  0.00    +0.000 C 
ATOM     20  C   UNL     1       0.023   8.283  21.724  0.00  0.00    +0.000 C 
ATOM     21  C   UNL     1       1.458   8.668  21.380  0.00  0.00    +0.000 C 
ENDBRANCH  11  14
BRANCH   1  25
ATOM     22  C   UNL     1       6.753   4.413  15.443  0.00  0.00    +0.000 A 
ATOM     23  C   UNL     1       7.113   4.582  16.781  0.00  0.00    +0.000 A 
ATOM     24  C   UNL     1       6.134   4.678  17.762  0.00  0.00    +0.000 A 
ATOM     25  C   UNL     1       4.768   4.574  17.436  0.00  0.00    +0.000 A 
ATOM     26  C   UNL     1       4.415   4.270  16.125  0.00  0.00    +0.000 A 
ATOM     27  C   UNL     1       5.400   4.245  15.134  0.00  0.00    +0.000 A 
BRANCH  22  29
ATOM     28  C   UNL     1       7.696   5.362  13.476  0.00  0.00    +0.000 C 
ATOM     29  O   UNL     1       7.817   4.492  14.588  0.00  0.00    +0.000 OA
ENDBRANCH  22  29
BRANCH  27  30
ATOM     30  O   UNL     1       4.949   4.151  13.848  0.00  0.00    +0.000 OA
ATOM     31  H   UNL     1       4.696   5.059  13.606  0.00  0.00    +0.000 HD
ENDBRANCH  27  30
ENDBRANCH   1  25
TORSDOF 4
ENDMDL
MODEL 9
REMARK VINA RESULT:      -6.7      2.994      4.585
REMARK  Name = 
REMARK  5 active torsions:
REMARK  status: ('A' for Active; 'I' for Inactive)
REMARK    1  A    between atoms: C_1  and  O_2
REMARK    2  A    between atoms: O_2  and  C_3
REMARK    3  A    between atoms: C_6  and  C_7
REMARK    4  A    between atoms: N_17  and  C_18
REMARK    5  A    between atoms: C_27  and  O_28
REMARK                            x       y       z     vdW  Elec       q    Type
REMARK                         _______ _______ _______ _____ _____    ______ ____
ROOT
ATOM      1  C   UNL     1      -0.206  11.841  20.545  0.00  0.00    +0.000 C 
ATOM      2  C   UNL     1       1.101  12.467  20.059  0.00  0.00    +0.000 C 
ATOM      3  C   UNL     1       1.626  11.622  18.894  0.00  0.00    +0.000 C 
ATOM      4  O   UNL     1       2.253  12.111  17.959  0.00  0.00    +0.000 OA
ATOM      5  N   UNL     1       1.423  10.255  18.991  0.00  0.00    +0.000 N 
ATOM      6  C   UNL     1       0.769   9.654  20.027  0.00  0.00    +0.000 A 
ATOM      7  C   UNL     1       0.060  10.432  20.855  0.00  0.00    +0.000 A 
ATOM      8  C   UNL     1      -0.339   9.579  21.976  0.00  0.00    +0.000 A 
ATOM      9  O   UNL     1      -0.626   9.930  23.100  0.00  0.00    +0.000 OA
ATOM     10  N   UNL     1      -0.201   8.279  21.519  0.00  0.00    +0.000 N 
ATOM     11  N   UNL     1       0.653   8.310  20.378  0.00  0.00    +0.000 N 
ATOM     12  H   UNL     1       1.835   9.692  18.260  0.00  0.00    +0.000 HD
ATOM     13  H   UNL     1      -0.135   7.533  22.198  0.00  0.00    +0.000 HD
ENDROOT
BRANCH  11  14
ATOM     14  C   UNL     1       1.739   7.308  20.447  0.00  0.00    +0.000 C 
ATOM     15  C   UNL     1       1.179   5.904  20.676  0.00  0.00    +0.000 C 
ATOM     16  C   UNL     1       2.233   4.884  21.111  0.00  0.00    +0.000 C 
ATOM     17  C   UNL     1       3.341   4.535  20.114  0.00  0.00    +0.000 C 
ATOM     18  C   UNL     1       2.886   4.338  18.666  0.00  0.00    +0.000 C 
ATOM     19  C   UNL     1       3.177   5.517  17.733  0.00  0.00    +0.000 C 
ATOM     20  C   UNL     1       2.372   6.787  17.984  0.00  0.00    +0.000 C 
ATOM     21  C   UNL     1       2.728   7.506  19.281  0.00  0.00    +0.000 C 
ENDBRANCH  11  14
BRANCH   1  25
ATOM     22  C   UNL     1      -2.562  13.635  23.668  0.00  0.00    +0.000 A 
ATOM     23  C   UNL     1      -1.208  13.941  23.523  0.00  0.00    +0.000 A 
ATOM     24  C   UNL     1      -0.480  13.412  22.464  0.00  0.00    +0.000 A 
ATOM     25  C   UNL     1      -1.095  12.590  21.502  0.00  0.00    +0.000 A 
ATOM     26  C   UNL     1      -2.470  12.395  21.568  0.00  0.00    +0.000 A 
ATOM     27  C   UNL     1      -3.181  12.872  22.673  0.00  0.00    +0.000 A 
BRANCH  22  29
ATOM     28  C   UNL     1      -3.474  15.468  24.879  0.00  0.00    +0.000 C 
ATOM     29  O   UNL     1      -3.096  14.102  24.836  0.00  0.00    +0.000 OA
ENDBRANCH  22  29
BRANCH  27  30
ATOM     30  O   UNL     1      -4.480  12.460  22.769  0.00  0.00    +0.000 OA
ATOM     31  H   UNL     1      -4.623  11.901  21.985  0.00  0.00    +0.000 HD
ENDBRANCH  27  30
ENDBRANCH   1  25
TORSDOF 4
ENDMDL
