MODEL 1
REMARK VINA RESULT:      -8.5      0.000      0.000
REMARK  Name = 
REMARK  5 active torsions:
REMARK  status: ('A' for Active; 'I' for Inactive)
REMARK    1  A    between atoms: C_1  and  N_2
REMARK    2  A    between atoms: C_4  and  C_5
REMARK    3  A    between atoms: C_5  and  C_6
REMARK    4  A    between atoms: C_5  and  N_13
REMARK    5  A    between atoms: C_19  and  C_20
REMARK                            x       y       z     vdW  Elec       q    Type
REMARK                         _______ _______ _______ _____ _____    ______ ____
ROOT
ATOM      1  C   UNL     1       7.831   4.792  18.273  0.00  0.00    +0.000 C 
ATOM      2  N   UNL     1       6.391   4.939  18.237  0.00  0.00    +0.000 N 
ATOM      3  C   UNL     1       5.646   5.164  19.373  0.00  0.00    +0.000 A 
ATOM      4  C   UNL     1       4.321   5.347  19.020  0.00  0.00    +0.000 A 
ATOM      5  C   UNL     1       4.294   5.222  17.598  0.00  0.00    +0.000 A 
ATOM      6  C   UNL     1       5.570   4.927  17.122  0.00  0.00    +0.000 A 
ENDROOT
BRANCH   6   7
ATOM      7  C   UNL     1       5.980   4.692  15.723  0.00  0.00    +0.000 A 
ATOM      8  C   UNL     1       5.208   3.856  14.898  0.00  0.00    +0.000 A 
ATOM      9  C   UNL     1       5.567   3.618  13.565  0.00  0.00    +0.000 A 
ATOM     10  C   UNL     1       6.700   4.227  13.037  0.00  0.00    +0.000 A 
ATOM     11 CL   UNL     1       7.130   3.967  11.392  0.00  0.00    +0.000 Cl
ATOM     12  C   UNL     1       7.493   5.039  13.839  0.00  0.00    +0.000 A 
ATOM     13  C   UNL     1       7.146   5.247  15.178  0.00  0.00    +0.000 A 
ENDBRANCH   6   7
BRANCH   4  14
ATOM     14  C   UNL     1       3.179   5.589  19.972  0.00  0.00    +0.000 C 
BRANCH  14  15
ATOM     15  C   UNL     1       2.536   6.911  19.554  0.00  0.00    +0.000 A 
ATOM     16  C   UNL     1       2.649   7.425  18.248  0.00  0.00    +0.000 A 
ATOM     17  C   UNL     1       2.015   8.618  17.889  0.00  0.00    +0.000 A 
ATOM     18  C   UNL     1       1.267   9.317  18.832  0.00  0.00    +0.000 A 
ATOM     19 CL   UNL     1       0.471  10.774  18.383  0.00  0.00    +0.000 Cl
ATOM     20  C   UNL     1       1.154   8.839  20.135  0.00  0.00    +0.000 A 
ATOM     21  C   UNL     1       1.789   7.646  20.496  0.00  0.00    +0.000 A 
ENDBRANCH  14  15
BRANCH  14  22
ATOM     22  N   UNL     1       2.217   4.482  20.075  0.00  0.00    +0.000 N 
ATOM     23  C   UNL     1       2.005   3.728  21.208  0.00  0.00    +0.000 A 
ATOM     24  C   UNL     1       1.067   2.790  20.849  0.00  0.00    +0.000 A 
ATOM     25  N   UNL     1       0.712   2.937  19.537  0.00  0.00    +0.000 NA
ATOM     26  C   UNL     1       1.428   3.948  19.093  0.00  0.00    +0.000 A 
ENDBRANCH  14  22
ENDBRANCH   4  14
TORSDOF 4
ENDMDL
MODEL 2
REMARK VINA RESULT:      -8.4      0.390      1.189
REMARK  Name = 
REMARK  5 active torsions:
REMARK  status: ('A' for Active; 'I' for Inactive)
REMARK    1  A    between atoms: C_1  and  N_2
REMARK    2  A    between atoms: C_4  and  C_5
REMARK    3  A    between atoms: C_5  and  C_6
REMARK    4  A    between atoms: C_5  and  N_13
REMARK    5  A    between atoms: C_19  and  C_20
REMARK                            x       y       z     vdW  Elec       q    Type
REMARK                         _______ _______ _______ _____ _____    ______ ____
ROOT
ATOM      1  C   UNL     1       7.855   4.739  18.185  0.00  0.00    +0.000 C 
ATOM      2  N   UNL     1       6.416   4.893  18.184  0.00  0.00    +0.000 N 
ATOM      3  C   UNL     1       5.700   5.121  19.339  0.00  0.00    +0.000 A 
ATOM      4  C   UNL     1       4.368   5.310  19.019  0.00  0.00    +0.000 A 
ATOM      5  C   UNL     1       4.305   5.187  17.598  0.00  0.00    +0.000 A 
ATOM      6  C   UNL     1       5.567   4.886  17.090  0.00  0.00    +0.000 A 
ENDROOT
BRANCH   6   7
ATOM      7  C   UNL     1       5.941   4.651  15.682  0.00  0.00    +0.000 A 
ATOM      8  C   UNL     1       7.101   5.246  15.156  0.00  0.00    +0.000 A 
ATOM      9  C   UNL     1       7.486   5.036  13.825  0.00  0.00    +0.000 A 
ATOM     10  C   UNL     1       6.719   4.215  13.006  0.00  0.00    +0.000 A 
ATOM     11 CL   UNL     1       7.203   3.926  11.382  0.00  0.00    +0.000 Cl
ATOM     12  C   UNL     1       5.556   3.634  13.495  0.00  0.00    +0.000 A 
ATOM     13  C   UNL     1       5.160   3.873  14.816  0.00  0.00    +0.000 A 
ENDBRANCH   6   7
BRANCH   4  14
ATOM     14  C   UNL     1       3.251   5.557  19.999  0.00  0.00    +0.000 C 
BRANCH  14  15
ATOM     15  C   UNL     1       2.583   6.866  19.579  0.00  0.00    +0.000 A 
ATOM     16  C   UNL     1       2.687   7.380  18.272  0.00  0.00    +0.000 A 
ATOM     17  C   UNL     1       2.031   8.559  17.910  0.00  0.00    +0.000 A 
ATOM     18  C   UNL     1       1.268   9.245  18.852  0.00  0.00    +0.000 A 
ATOM     19 CL   UNL     1       0.445  10.686  18.400  0.00  0.00    +0.000 Cl
ATOM     20  C   UNL     1       1.164   8.767  20.156  0.00  0.00    +0.000 A 
ATOM     21  C   UNL     1       1.821   7.587  20.519  0.00  0.00    +0.000 A 
ENDBRANCH  14  15
BRANCH  14  22
ATOM     22  N   UNL     1       2.303   4.443  20.147  0.00  0.00    +0.000 N 
ATOM     23  C   UNL     1       1.447   4.004  19.162  0.00  0.00    +0.000 A 
ATOM     24  C   UNL     1       0.722   2.988  19.737  0.00  0.00    +0.000 A 
ATOM     25  N   UNL     1       1.096   2.803  21.039  0.00  0.00    +0.000 NA
ATOM     26  C   UNL     1       2.035   3.699  21.264  0.00  0.00    +0.000 A 
ENDBRANCH  14  22
ENDBRANCH   4  14
TORSDOF 4
ENDMDL
MODEL 3
REMARK VINA RESULT:      -7.9      4.058      6.675
REMARK  Name = 
REMARK  5 active torsions:
REMARK  status: ('A' for Active; 'I' for Inactive)
REMARK    1  A    between atoms: C_1  and  N_2
REMARK    2  A    between atoms: C_4  and  C_5
REMARK    3  A    between atoms: C_5  and  C_6
REMARK    4  A    between atoms: C_5  and  N_13
REMARK    5  A    between atoms: C_19  and  C_20
REMARK                            x       y       z     vdW  Elec       q    Type
REMARK                         _______ _______ _______ _____ _____    ______ ____
ROOT
ATOM      1  C   UNL     1       1.660   7.242  20.853  0.00  0.00    +0.000 C 
ATOM      2  N   UNL     1       1.576   8.224  19.792  0.00  0.00    +0.000 N 
ATOM      3  C   UNL     1       0.911   9.419  19.948  0.00  0.00    +0.000 A 
ATOM      4  C   UNL     1       1.073  10.182  18.805  0.00  0.00    +0.000 A 
ATOM      5  C   UNL     1       1.878   9.386  17.936  0.00  0.00    +0.000 A 
ATOM      6  C   UNL     1       2.152   8.157  18.534  0.00  0.00    +0.000 A 
ENDROOT
BRANCH   6   7
ATOM      7  C   UNL     1       2.925   7.032  17.973  0.00  0.00    +0.000 A 
ATOM      8  C   UNL     1       4.141   7.278  17.313  0.00  0.00    +0.000 A 
ATOM      9  C   UNL     1       4.901   6.231  16.776  0.00  0.00    +0.000 A 
ATOM     10  C   UNL     1       4.458   4.920  16.904  0.00  0.00    +0.000 A 
ATOM     11 CL   UNL     1       5.401   3.626  16.277  0.00  0.00    +0.000 Cl
ATOM     12  C   UNL     1       3.247   4.652  17.532  0.00  0.00    +0.000 A 
ATOM     13  C   UNL     1       2.478   5.705  18.038  0.00  0.00    +0.000 A 
ENDBRANCH   6   7
BRANCH   4  14
ATOM     14  C   UNL     1       0.478  11.545  18.562  0.00  0.00    +0.000 C 
BRANCH  14  15
ATOM     15  C   UNL     1      -1.034  11.347  18.453  0.00  0.00    +0.000 A 
ATOM     16  C   UNL     1      -1.953  12.165  19.139  0.00  0.00    +0.000 A 
ATOM     17  C   UNL     1      -3.330  11.981  18.985  0.00  0.00    +0.000 A 
ATOM     18  C   UNL     1      -3.806  10.973  18.151  0.00  0.00    +0.000 A 
ATOM     19 CL   UNL     1      -5.502  10.761  17.948  0.00  0.00    +0.000 Cl
ATOM     20  C   UNL     1      -2.918  10.139  17.477  0.00  0.00    +0.000 A 
ATOM     21  C   UNL     1      -1.541  10.322  17.630  0.00  0.00    +0.000 A 
ENDBRANCH  14  15
BRANCH  14  22
ATOM     22  N   UNL     1       0.860  12.569  19.544  0.00  0.00    +0.000 N 
ATOM     23  C   UNL     1       1.356  13.815  19.227  0.00  0.00    +0.000 A 
ATOM     24  C   UNL     1       1.616  14.419  20.434  0.00  0.00    +0.000 A 
ATOM     25  N   UNL     1       1.312  13.582  21.471  0.00  0.00    +0.000 NA
ATOM     26  C   UNL     1       0.876  12.474  20.909  0.00  0.00    +0.000 A 
ENDBRANCH  14  22
ENDBRANCH   4  14
TORSDOF 4
ENDMDL
MODEL 4
REMARK VINA RESULT:      -7.8      3.899      6.375
REMARK  Name = 
REMARK  5 active torsions:
REMARK  status: ('A' for Active; 'I' for Inactive)
REMARK    1  A    between atoms: C_1  and  N_2
REMARK    2  A    between atoms: C_4  and  C_5
REMARK    3  A    between atoms: C_5  and  C_6
REMARK    4  A    between atoms: C_5  and  N_13
REMARK    5  A    between atoms: C_19  and  C_20
REMARK                            x       y       z     vdW  Elec       q    Type
REMARK                         _______ _______ _______ _____ _____    ______ ____
ROOT
ATOM      1  C   UNL     1       1.778   6.947  20.720  0.00  0.00    +0.000 C 
ATOM      2  N   UNL     1       1.723   7.985  19.711  0.00  0.00    +0.000 N 
ATOM      3  C   UNL     1       1.058   9.173  19.914  0.00  0.00    +0.000 A 
ATOM      4  C   UNL     1       1.251   9.996  18.819  0.00  0.00    +0.000 A 
ATOM      5  C   UNL     1       2.075   9.243  17.929  0.00  0.00    +0.000 A 
ATOM      6  C   UNL     1       2.330   7.983  18.466  0.00  0.00    +0.000 A 
ENDROOT
BRANCH   6   7
ATOM      7  C   UNL     1       3.113   6.886  17.865  0.00  0.00    +0.000 A 
ATOM      8  C   UNL     1       4.312   7.170  17.189  0.00  0.00    +0.000 A 
ATOM      9  C   UNL     1       5.082   6.151  16.614  0.00  0.00    +0.000 A 
ATOM     10  C   UNL     1       4.665   4.829  16.720  0.00  0.00    +0.000 A 
ATOM     11 CL   UNL     1       5.621   3.568  16.045  0.00  0.00    +0.000 Cl
ATOM     12  C   UNL     1       3.472   4.523  17.362  0.00  0.00    +0.000 A 
ATOM     13  C   UNL     1       2.693   5.550  17.907  0.00  0.00    +0.000 A 
ENDBRANCH   6   7
BRANCH   4  14
ATOM     14  C   UNL     1       0.666  11.372  18.634  0.00  0.00    +0.000 C 
BRANCH  14  15
ATOM     15  C   UNL     1      -0.834  11.181  18.411  0.00  0.00    +0.000 A 
ATOM     16  C   UNL     1      -1.356  10.109  17.662  0.00  0.00    +0.000 A 
ATOM     17  C   UNL     1      -2.735   9.942  17.513  0.00  0.00    +0.000 A 
ATOM     18  C   UNL     1      -3.611  10.850  18.101  0.00  0.00    +0.000 A 
ATOM     19 CL   UNL     1      -5.309  10.633  17.932  0.00  0.00    +0.000 Cl
ATOM     20  C   UNL     1      -3.120  11.930  18.831  0.00  0.00    +0.000 A 
ATOM     21  C   UNL     1      -1.740  12.097  18.982  0.00  0.00    +0.000 A 
ENDBRANCH  14  15
BRANCH  14  22
ATOM     22  N   UNL     1       0.977  12.324  19.709  0.00  0.00    +0.000 N 
ATOM     23  C   UNL     1       1.894  13.347  19.611  0.00  0.00    +0.000 A 
ATOM     24  C   UNL     1       1.897  13.950  20.846  0.00  0.00    +0.000 A 
ATOM     25  N   UNL     1       1.029  13.323  21.694  0.00  0.00    +0.000 NA
ATOM     26  C   UNL     1       0.502  12.341  20.992  0.00  0.00    +0.000 A 
ENDBRANCH  14  22
ENDBRANCH   4  14
TORSDOF 4
ENDMDL
MODEL 5
REMARK VINA RESULT:      -7.8      4.125      6.669
REMARK  Name = 
REMARK  5 active torsions:
REMARK  status: ('A' for Active; 'I' for Inactive)
REMARK    1  A    between atoms: C_1  and  N_2
REMARK    2  A    between atoms: C_4  and  C_5
REMARK    3  A    between atoms: C_5  and  C_6
REMARK    4  A    between atoms: C_5  and  N_13
REMARK    5  A    between atoms: C_19  and  C_20
REMARK                            x       y       z     vdW  Elec       q    Type
REMARK                         _______ _______ _______ _____ _____    ______ ____
ROOT
ATOM      1  C   UNL     1       1.603   7.356  20.906  0.00  0.00    +0.000 C 
ATOM      2  N   UNL     1       1.514   8.329  19.838  0.00  0.00    +0.000 N 
ATOM      3  C   UNL     1       0.831   9.516  19.979  0.00  0.00    +0.000 A 
ATOM      4  C   UNL     1       0.992  10.273  18.833  0.00  0.00    +0.000 A 
ATOM      5  C   UNL     1       1.816   9.482  17.976  0.00  0.00    +0.000 A 
ATOM      6  C   UNL     1       2.101   8.261  18.585  0.00  0.00    +0.000 A 
ENDROOT
BRANCH   6   7
ATOM      7  C   UNL     1       2.894   7.143  18.039  0.00  0.00    +0.000 A 
ATOM      8  C   UNL     1       2.438   5.822  18.188  0.00  0.00    +0.000 A 
ATOM      9  C   UNL     1       3.164   4.739  17.675  0.00  0.00    +0.000 A 
ATOM     10  C   UNL     1       4.354   4.968  16.994  0.00  0.00    +0.000 A 
ATOM     11 CL   UNL     1       5.235   3.648  16.333  0.00  0.00    +0.000 Cl
ATOM     12  C   UNL     1       4.839   6.262  16.853  0.00  0.00    +0.000 A 
ATOM     13  C   UNL     1       4.124   7.336  17.396  0.00  0.00    +0.000 A 
ENDBRANCH   6   7
BRANCH   4  14
ATOM     14  C   UNL     1       0.381  11.626  18.574  0.00  0.00    +0.000 C 
BRANCH  14  15
ATOM     15  C   UNL     1      -1.122  11.400  18.405  0.00  0.00    +0.000 A 
ATOM     16  C   UNL     1      -1.644  10.417  17.542  0.00  0.00    +0.000 A 
ATOM     17  C   UNL     1      -3.023  10.211  17.442  0.00  0.00    +0.000 A 
ATOM     18  C   UNL     1      -3.897  10.988  18.197  0.00  0.00    +0.000 A 
ATOM     19 CL   UNL     1      -5.593  10.719  18.087  0.00  0.00    +0.000 Cl
ATOM     20  C   UNL     1      -3.406  11.979  19.044  0.00  0.00    +0.000 A 
ATOM     21  C   UNL     1      -2.027  12.186  19.144  0.00  0.00    +0.000 A 
ENDBRANCH  14  15
BRANCH  14  22
ATOM     22  N   UNL     1       0.705  12.651  19.576  0.00  0.00    +0.000 N 
ATOM     23  C   UNL     1       0.933  13.980  19.295  0.00  0.00    +0.000 A 
ATOM     24  C   UNL     1       1.240  14.559  20.503  0.00  0.00    +0.000 A 
ATOM     25  N   UNL     1       1.222  13.629  21.504  0.00  0.00    +0.000 NA
ATOM     26  C   UNL     1       0.914  12.490  20.919  0.00  0.00    +0.000 A 
ENDBRANCH  14  22
ENDBRANCH   4  14
TORSDOF 4
ENDMDL
MODEL 6
REMARK VINA RESULT:      -7.7      2.434      7.694
REMARK  Name = 
REMARK  5 active torsions:
REMARK  status: ('A' for Active; 'I' for Inactive)
REMARK    1  A    between atoms: C_1  and  N_2
REMARK    2  A    between atoms: C_4  and  C_5
REMARK    3  A    between atoms: C_5  and  C_6
REMARK    4  A    between atoms: C_5  and  N_13
REMARK    5  A    between atoms: C_19  and  C_20
REMARK                            x       y       z     vdW  Elec       q    Type
REMARK                         _______ _______ _______ _____ _____    ______ ____
ROOT
ATOM      1  C   UNL     1       2.226   9.733  18.170  0.00  0.00    +0.000 C 
ATOM      2  N   UNL     1       1.919   8.475  18.816  0.00  0.00    +0.000 N 
ATOM      3  C   UNL     1       2.378   7.269  18.335  0.00  0.00    +0.000 A 
ATOM      4  C   UNL     1       2.001   6.259  19.201  0.00  0.00    +0.000 A 
ATOM      5  C   UNL     1       1.281   6.914  20.246  0.00  0.00    +0.000 A 
ATOM      6  C   UNL     1       1.196   8.279  19.981  0.00  0.00    +0.000 A 
ENDROOT
BRANCH   6   7
ATOM      7  C   UNL     1       0.519   9.315  20.786  0.00  0.00    +0.000 A 
ATOM      8  C   UNL     1       0.390   9.149  22.176  0.00  0.00    +0.000 A 
ATOM      9  C   UNL     1      -0.241  10.117  22.968  0.00  0.00    +0.000 A 
ATOM     10  C   UNL     1      -0.743  11.272  22.378  0.00  0.00    +0.000 A 
ATOM     11 CL   UNL     1      -1.490  12.479  23.348  0.00  0.00    +0.000 Cl
ATOM     12  C   UNL     1      -0.649  11.448  21.003  0.00  0.00    +0.000 A 
ATOM     13  C   UNL     1      -0.045  10.463  20.214  0.00  0.00    +0.000 A 
ENDBRANCH   6   7
BRANCH   4  14
ATOM     14  C   UNL     1       2.282   4.790  19.021  0.00  0.00    +0.000 C 
BRANCH  14  15
ATOM     15  C   UNL     1       3.693   4.684  18.442  0.00  0.00    +0.000 A 
ATOM     16  C   UNL     1       3.944   4.164  17.157  0.00  0.00    +0.000 A 
ATOM     17  C   UNL     1       5.243   4.118  16.643  0.00  0.00    +0.000 A 
ATOM     18  C   UNL     1       6.308   4.583  17.410  0.00  0.00    +0.000 A 
ATOM     19 CL   UNL     1       7.904   4.544  16.768  0.00  0.00    +0.000 Cl
ATOM     20  C   UNL     1       6.089   5.084  18.690  0.00  0.00    +0.000 A 
ATOM     21  C   UNL     1       4.790   5.130  19.205  0.00  0.00    +0.000 A 
ENDBRANCH  14  15
BRANCH  14  22
ATOM     22  N   UNL     1       2.086   3.972  20.227  0.00  0.00    +0.000 N 
ATOM     23  C   UNL     1       1.205   2.918  20.326  0.00  0.00    +0.000 A 
ATOM     24  C   UNL     1       1.314   2.475  21.623  0.00  0.00    +0.000 A 
ATOM     25  N   UNL     1       2.216   3.231  22.318  0.00  0.00    +0.000 NA
ATOM     26  C   UNL     1       2.652   4.131  21.462  0.00  0.00    +0.000 A 
ENDBRANCH  14  22
ENDBRANCH   4  14
TORSDOF 4
ENDMDL
MODEL 7
REMARK VINA RESULT:      -7.7      2.925      7.256
REMARK  Name = 
REMARK  5 active torsions:
REMARK  status: ('A' for Active; 'I' for Inactive)
REMARK    1  A    between atoms: C_1  and  N_2
REMARK    2  A    between atoms: C_4  and  C_5
REMARK    3  A    between atoms: C_5  and  C_6
REMARK    4  A    between atoms: C_5  and  N_13
REMARK    5  A    between atoms: C_19  and  C_20
REMARK                            x       y       z     vdW  Elec       q    Type
REMARK                         _______ _______ _______ _____ _____    ______ ____
ROOT
ATOM      1  C   UNL     1       1.075   9.216  21.653  0.00  0.00    +0.000 C 
ATOM      2  N   UNL     1       1.419   8.729  20.334  0.00  0.00    +0.000 N 
ATOM      3  C   UNL     1       1.839   7.437  20.113  0.00  0.00    +0.000 A 
ATOM      4  C   UNL     1       2.011   7.239  18.755  0.00  0.00    +0.000 A 
ATOM      5  C   UNL     1       1.671   8.487  18.152  0.00  0.00    +0.000 A 
ATOM      6  C   UNL     1       1.347   9.419  19.135  0.00  0.00    +0.000 A 
ENDROOT
BRANCH   6   7
ATOM      7  C   UNL     1       0.964  10.832  18.950  0.00  0.00    +0.000 A 
ATOM      8  C   UNL     1      -0.387  11.210  19.037  0.00  0.00    +0.000 A 
ATOM      9  C   UNL     1      -0.781  12.544  18.872  0.00  0.00    +0.000 A 
ATOM     10  C   UNL     1       0.177  13.522  18.629  0.00  0.00    +0.000 A 
ATOM     11 CL   UNL     1      -0.295  15.166  18.458  0.00  0.00    +0.000 Cl
ATOM     12  C   UNL     1       1.517  13.171  18.514  0.00  0.00    +0.000 A 
ATOM     13  C   UNL     1       1.900  11.832  18.649  0.00  0.00    +0.000 A 
ENDBRANCH   6   7
BRANCH   4  14
ATOM     14  C   UNL     1       2.491   5.969  18.101  0.00  0.00    +0.000 C 
BRANCH  14  15
ATOM     15  C   UNL     1       4.014   5.963  18.225  0.00  0.00    +0.000 A 
ATOM     16  C   UNL     1       4.846   6.669  17.334  0.00  0.00    +0.000 A 
ATOM     17  C   UNL     1       6.234   6.675  17.501  0.00  0.00    +0.000 A 
ATOM     18  C   UNL     1       6.809   5.968  18.554  0.00  0.00    +0.000 A 
ATOM     19 CL   UNL     1       8.515   5.992  18.768  0.00  0.00    +0.000 Cl
ATOM     20  C   UNL     1       6.010   5.247  19.437  0.00  0.00    +0.000 A 
ATOM     21  C   UNL     1       4.621   5.241  19.271  0.00  0.00    +0.000 A 
ENDBRANCH  14  15
BRANCH  14  22
ATOM     22  N   UNL     1       1.862   4.740  18.606  0.00  0.00    +0.000 N 
ATOM     23  C   UNL     1       1.649   3.603  17.859  0.00  0.00    +0.000 A 
ATOM     24  C   UNL     1       1.006   2.730  18.704  0.00  0.00    +0.000 A 
ATOM     25  N   UNL     1       0.807   3.299  19.930  0.00  0.00    +0.000 NA
ATOM     26  C   UNL     1       1.316   4.510  19.840  0.00  0.00    +0.000 A 
ENDBRANCH  14  22
ENDBRANCH   4  14
TORSDOF 4
ENDMDL
MODEL 8
REMARK VINA RESULT:      -7.6      0.865      1.273
REMARK  Name = 
REMARK  5 active torsions:
REMARK  status: ('A' for Active; 'I' for Inactive)
REMARK    1  A    between atoms: C_1  and  N_2
REMARK    2  A    between atoms: C_4  and  C_5
REMARK    3  A    between atoms: C_5  and  C_6
REMARK    4  A    between atoms: C_5  and  N_13
REMARK    5  A    between atoms: C_19  and  C_20
REMARK                            x       y       z     vdW  Elec       q    Type
REMARK                         _______ _______ _______ _____ _____    ______ ____
ROOT
ATOM      1  C   UNL     1       7.386   6.838  17.105  0.00  0.00    +0.000 C 
ATOM      2  N   UNL     1       6.088   6.253  17.369  0.00  0.00    +0.000 N 
ATOM      3  C   UNL     1       5.378   6.527  18.516  0.00  0.00    +0.000 A 
ATOM      4  C   UNL     1       4.147   5.900  18.451  0.00  0.00    +0.000 A 
ATOM      5  C   UNL     1       4.141   5.222  17.194  0.00  0.00    +0.000 A 
ATOM      6  C   UNL     1       5.361   5.409  16.547  0.00  0.00    +0.000 A 
ENDROOT
BRANCH   6   7
ATOM      7  C   UNL     1       5.784   4.863  15.243  0.00  0.00    +0.000 A 
ATOM      8  C   UNL     1       7.087   5.101  14.773  0.00  0.00    +0.000 A 
ATOM      9  C   UNL     1       7.521   4.592  13.543  0.00  0.00    +0.000 A 
ATOM     10  C   UNL     1       6.657   3.823  12.771  0.00  0.00    +0.000 A 
ATOM     11 CL   UNL     1       7.192   3.166  11.275  0.00  0.00    +0.000 Cl
ATOM     12  C   UNL     1       5.356   3.593  13.201  0.00  0.00    +0.000 A 
ATOM     13  C   UNL     1       4.920   4.132  14.417  0.00  0.00    +0.000 A 
ENDBRANCH   6   7
BRANCH   4  14
ATOM     14  C   UNL     1       3.085   5.925  19.519  0.00  0.00    +0.000 C 
BRANCH  14  15
ATOM     15  C   UNL     1       2.337   7.248  19.359  0.00  0.00    +0.000 A 
ATOM     16  C   UNL     1       2.251   7.921  18.125  0.00  0.00    +0.000 A 
ATOM     17  C   UNL     1       1.525   9.110  18.005  0.00  0.00    +0.000 A 
ATOM     18  C   UNL     1       0.883   9.645  19.118  0.00  0.00    +0.000 A 
ATOM     19 CL   UNL     1      -0.026  11.097  18.964  0.00  0.00    +0.000 Cl
ATOM     20  C   UNL     1       0.968   9.009  20.353  0.00  0.00    +0.000 A 
ATOM     21  C   UNL     1       1.694   7.820  20.475  0.00  0.00    +0.000 A 
ENDBRANCH  14  15
BRANCH  14  22
ATOM     22  N   UNL     1       2.197   4.754  19.533  0.00  0.00    +0.000 N 
ATOM     23  C   UNL     1       1.907   4.001  20.649  0.00  0.00    +0.000 A 
ATOM     24  C   UNL     1       1.085   2.994  20.204  0.00  0.00    +0.000 A 
ATOM     25  N   UNL     1       0.876   3.098  18.857  0.00  0.00    +0.000 NA
ATOM     26  C   UNL     1       1.567   4.153  18.477  0.00  0.00    +0.000 A 
ENDBRANCH  14  22
ENDBRANCH   4  14
TORSDOF 4
ENDMDL
MODEL 9
REMARK VINA RESULT:      -7.6      2.933      7.283
REMARK  Name = 
REMARK  5 active torsions:
REMARK  status: ('A' for Active; 'I' for Inactive)
REMARK    1  A    between atoms: C_1  and  N_2
REMARK    2  A    between atoms: C_4  and  C_5
REMARK    3  A    between atoms: C_5  and  C_6
REMARK    4  A    between atoms: C_5  and  N_13
REMARK    5  A    between atoms: C_19  and  C_20
REMARK                            x       y       z     vdW  Elec       q    Type
REMARK                         _______ _______ _______ _____ _____    ______ ____
ROOT
ATOM      1  C   UNL     1       1.095   8.984  21.612  0.00  0.00    +0.000 C 
ATOM      2  N   UNL     1       1.447   8.566  20.272  0.00  0.00    +0.000 N 
ATOM      3  C   UNL     1       1.901   7.296  19.993  0.00  0.00    +0.000 A 
ATOM      4  C   UNL     1       2.073   7.164  18.627  0.00  0.00    +0.000 A 
ATOM      5  C   UNL     1       1.698   8.428  18.080  0.00  0.00    +0.000 A 
ATOM      6  C   UNL     1       1.352   9.306  19.106  0.00  0.00    +0.000 A 
ENDROOT
BRANCH   6   7
ATOM      7  C   UNL     1       0.932  10.716  18.984  0.00  0.00    +0.000 A 
ATOM      8  C   UNL     1       1.881  11.707  18.680  0.00  0.00    +0.000 A 
ATOM      9  C   UNL     1       1.512  13.052  18.552  0.00  0.00    +0.000 A 
ATOM     10  C   UNL     1       0.181  13.421  18.714  0.00  0.00    +0.000 A 
ATOM     11 CL   UNL     1      -0.285  15.065  18.526  0.00  0.00    +0.000 Cl
ATOM     12  C   UNL     1      -0.772  12.464  19.039  0.00  0.00    +0.000 A 
ATOM     13  C   UNL     1      -0.391  11.127  19.196  0.00  0.00    +0.000 A 
ENDBRANCH   6   7
BRANCH   4  14
ATOM     14  C   UNL     1       2.584   5.938  17.916  0.00  0.00    +0.000 C 
BRANCH  14  15
ATOM     15  C   UNL     1       4.095   5.900  18.142  0.00  0.00    +0.000 A 
ATOM     16  C   UNL     1       4.997   6.619  17.334  0.00  0.00    +0.000 A 
ATOM     17  C   UNL     1       6.370   6.594  17.594  0.00  0.00    +0.000 A 
ATOM     18  C   UNL     1       6.860   5.843  18.659  0.00  0.00    +0.000 A 
ATOM     19 CL   UNL     1       8.548   5.829  18.990  0.00  0.00    +0.000 Cl
ATOM     20  C   UNL     1       5.991   5.109  19.462  0.00  0.00    +0.000 A 
ATOM     21  C   UNL     1       4.617   5.134  19.203  0.00  0.00    +0.000 A 
ENDBRANCH  14  15
BRANCH  14  22
ATOM     22  N   UNL     1       1.910   4.685  18.285  0.00  0.00    +0.000 N 
ATOM     23  C   UNL     1       1.338   4.433  19.512  0.00  0.00    +0.000 A 
ATOM     24  C   UNL     1       0.868   3.144  19.436  0.00  0.00    +0.000 A 
ATOM     25  N   UNL     1       1.147   2.598  18.215  0.00  0.00    +0.000 NA
ATOM     26  C   UNL     1       1.786   3.538  17.550  0.00  0.00    +0.000 A 
ENDBRANCH  14  22
ENDBRANCH   4  14
TORSDOF 4
ENDMDL
