MODEL 1
REMARK VINA RESULT:      -9.3      0.000      0.000
REMARK  Name = 
REMARK  7 active torsions:
REMARK  status: ('A' for Active; 'I' for Inactive)
REMARK    1  A    between atoms: C_1  and  C_2
REMARK    2  A    between atoms: C_2  and  C_3
REMARK    3  A    between atoms: C_14  and  C_16
REMARK    4  A    between atoms: C_16  and  O_17
REMARK    5  A    between atoms: O_17  and  C_18
REMARK    6  A    between atoms: C_18  and  C_20
REMARK    7  A    between atoms: C_20  and  N_21
REMARK                            x       y       z     vdW  Elec       q    Type
REMARK                         _______ _______ _______ _____ _____    ______ ____
ROOT
ATOM      1  C   UNL     1       1.808   4.278  20.269  0.00  0.00    +0.000 C 
ATOM      2  C   UNL     1       2.654   4.297  18.985  0.00  0.00    +0.000 C 
ATOM      3  C   UNL     1       1.772   3.638  17.886  0.00  0.00    +0.000 C 
ATOM      4  C   UNL     1       3.827   3.312  19.253  0.00  0.00    +0.000 C 
ATOM      5  O   UNL     1       3.827   2.462  20.144  0.00  0.00    +0.000 OA
ATOM      6  N   UNL     1       4.795   3.264  18.298  0.00  0.00    +0.000 N 
ATOM      7  C   UNL     1       4.939   4.249  17.325  0.00  0.00    +0.000 A 
ATOM      8  C   UNL     1       5.892   4.002  16.324  0.00  0.00    +0.000 A 
ATOM      9  C   UNL     1       6.145   4.964  15.357  0.00  0.00    +0.000 A 
ATOM     10  C   UNL     1       5.452   6.167  15.407  0.00  0.00    +0.000 A 
ATOM     11  C   UNL     1       4.491   6.405  16.408  0.00  0.00    +0.000 A 
ATOM     12  C   UNL     1       4.201   5.455  17.397  0.00  0.00    +0.000 A 
ATOM     13  N   UNL     1       3.195   5.646  18.468  0.00  0.00    +0.000 N 
ATOM     14  C   UNL     1       2.777   6.967  18.818  0.00  0.00    +0.000 C 
ATOM     15  O   UNL     1       3.165   7.989  18.242  0.00  0.00    +0.000 OA
ATOM     16  H   UNL     1       5.456   2.501  18.365  0.00  0.00    +0.000 HD
ENDROOT
BRANCH  14  17
ATOM     17  C   UNL     1       1.796   7.185  20.000  0.00  0.00    +0.000 C 
BRANCH  17  18
ATOM     18  O   UNL     1       1.809   8.359  20.838  0.00  0.00    +0.000 OA
BRANCH  18  19
ATOM     19  C   UNL     1       0.590   8.884  21.189  0.00  0.00    +0.000 C 
ATOM     20  O   UNL     1      -0.310   8.245  21.711  0.00  0.00    +0.000 OA
BRANCH  19  21
ATOM     21  C   UNL     1       0.464  10.335  20.680  0.00  0.00    +0.000 C 
BRANCH  21  22
ATOM     22  N   UNL     1      -0.648  10.619  19.769  0.00  0.00    +0.000 N 
ATOM     23  C   UNL     1      -1.577  11.527  20.199  0.00  0.00    +0.000 A 
ATOM     24  N   UNL     1      -2.514  12.042  19.479  0.00  0.00    +0.000 NA
ATOM     25  C   UNL     1      -2.701  11.507  18.205  0.00  0.00    +0.000 A 
ATOM     26  C   UNL     1      -3.928  11.762  17.594  0.00  0.00    +0.000 A 
ATOM     27  C   UNL     1      -4.326  11.020  16.489  0.00  0.00    +0.000 A 
ATOM     28  C   UNL     1      -3.444  10.101  15.917  0.00  0.00    +0.000 A 
ATOM     29  C   UNL     1      -2.162   9.921  16.455  0.00  0.00    +0.000 A 
ATOM     30  C   UNL     1      -1.815  10.591  17.633  0.00  0.00    +0.000 A 
ATOM     31  C   UNL     1      -0.597  10.254  18.422  0.00  0.00    +0.000 A 
ATOM     32  O   UNL     1       0.365   9.706  17.884  0.00  0.00    +0.000 OA
ENDBRANCH  21  22
ENDBRANCH  19  21
ENDBRANCH  18  19
ENDBRANCH  17  18
ENDBRANCH  14  17
TORSDOF 5
ENDMDL
MODEL 2
REMARK VINA RESULT:      -8.7      2.225      8.704
REMARK  Name = 
REMARK  7 active torsions:
REMARK  status: ('A' for Active; 'I' for Inactive)
REMARK    1  A    between atoms: C_1  and  C_2
REMARK    2  A    between atoms: C_2  and  C_3
REMARK    3  A    between atoms: C_14  and  C_16
REMARK    4  A    between atoms: C_16  and  O_17
REMARK    5  A    between atoms: O_17  and  C_18
REMARK    6  A    between atoms: C_18  and  C_20
REMARK    7  A    between atoms: C_20  and  N_21
REMARK                            x       y       z     vdW  Elec       q    Type
REMARK                         _______ _______ _______ _____ _____    ______ ____
ROOT
ATOM      1  C   UNL     1       2.095   9.180  17.816  0.00  0.00    +0.000 C 
ATOM      2  C   UNL     1       1.179   9.978  18.761  0.00  0.00    +0.000 C 
ATOM      3  C   UNL     1      -0.215  10.015  18.069  0.00  0.00    +0.000 C 
ATOM      4  C   UNL     1       1.724  11.433  18.726  0.00  0.00    +0.000 C 
ATOM      5  O   UNL     1       2.471  11.873  17.852  0.00  0.00    +0.000 OA
ATOM      6  N   UNL     1       1.150  12.304  19.600  0.00  0.00    +0.000 N 
ATOM      7  C   UNL     1       0.389  11.885  20.688  0.00  0.00    +0.000 A 
ATOM      8  C   UNL     1      -0.254  12.893  21.426  0.00  0.00    +0.000 A 
ATOM      9  C   UNL     1      -0.975  12.564  22.564  0.00  0.00    +0.000 A 
ATOM     10  C   UNL     1      -1.038  11.234  22.959  0.00  0.00    +0.000 A 
ATOM     11  C   UNL     1      -0.400  10.227  22.210  0.00  0.00    +0.000 A 
ATOM     12  C   UNL     1       0.331  10.518  21.051  0.00  0.00    +0.000 A 
ATOM     13  N   UNL     1       1.015   9.501  20.219  0.00  0.00    +0.000 N 
ATOM     14  C   UNL     1       1.337   8.227  20.781  0.00  0.00    +0.000 C 
ATOM     15  O   UNL     1       1.033   7.882  21.928  0.00  0.00    +0.000 OA
ATOM     16  H   UNL     1       1.357  13.284  19.460  0.00  0.00    +0.000 HD
ENDROOT
BRANCH  14  17
ATOM     17  C   UNL     1       2.137   7.189  19.950  0.00  0.00    +0.000 C 
BRANCH  17  18
ATOM     18  O   UNL     1       1.628   5.885  19.603  0.00  0.00    +0.000 OA
BRANCH  18  19
ATOM     19  C   UNL     1       2.071   4.826  20.357  0.00  0.00    +0.000 C 
ATOM     20  O   UNL     1       2.201   4.852  21.570  0.00  0.00    +0.000 OA
BRANCH  19  21
ATOM     21  C   UNL     1       2.534   3.673  19.442  0.00  0.00    +0.000 C 
BRANCH  21  22
ATOM     22  N   UNL     1       3.706   3.930  18.602  0.00  0.00    +0.000 N 
ATOM     23  C   UNL     1       4.897   4.115  19.251  0.00  0.00    +0.000 A 
ATOM     24  N   UNL     1       6.058   4.168  18.691  0.00  0.00    +0.000 NA
ATOM     25  C   UNL     1       6.088   4.206  17.298  0.00  0.00    +0.000 A 
ATOM     26  C   UNL     1       7.268   4.662  16.711  0.00  0.00    +0.000 A 
ATOM     27  C   UNL     1       7.284   5.037  15.373  0.00  0.00    +0.000 A 
ATOM     28  C   UNL     1       6.148   4.841  14.585  0.00  0.00    +0.000 A 
ATOM     29  C   UNL     1       4.991   4.274  15.139  0.00  0.00    +0.000 A 
ATOM     30  C   UNL     1       4.951   4.006  16.512  0.00  0.00    +0.000 A 
ATOM     31  C   UNL     1       3.690   3.671  17.230  0.00  0.00    +0.000 A 
ATOM     32  O   UNL     1       2.732   3.191  16.622  0.00  0.00    +0.000 OA
ENDBRANCH  21  22
ENDBRANCH  19  21
ENDBRANCH  18  19
ENDBRANCH  17  18
ENDBRANCH  14  17
TORSDOF 5
ENDMDL
MODEL 3
REMARK VINA RESULT:      -8.7      2.088      4.223
REMARK  Name = 
REMARK  7 active torsions:
REMARK  status: ('A' for Active; 'I' for Inactive)
REMARK    1  A    between atoms: C_1  and  C_2
REMARK    2  A    between atoms: C_2  and  C_3
REMARK    3  A    between atoms: C_14  and  C_16
REMARK    4  A    between atoms: C_16  and  O_17
REMARK    5  A    between atoms: O_17  and  C_18
REMARK    6  A    between atoms: C_18  and  C_20
REMARK    7  A    between atoms: C_20  and  N_21
REMARK                            x       y       z     vdW  Elec       q    Type
REMARK                         _______ _______ _______ _____ _____    ______ ____
ROOT
ATOM      1  C   UNL     1       5.223   6.481  16.851  0.00  0.00    +0.000 C 
ATOM      2  C   UNL     1       4.834   5.526  17.993  0.00  0.00    +0.000 C 
ATOM      3  C   UNL     1       6.050   5.508  18.964  0.00  0.00    +0.000 C 
ATOM      4  C   UNL     1       4.771   4.115  17.343  0.00  0.00    +0.000 C 
ATOM      5  O   UNL     1       5.285   3.827  16.262  0.00  0.00    +0.000 OA
ATOM      6  N   UNL     1       4.308   3.113  18.139  0.00  0.00    +0.000 N 
ATOM      7  C   UNL     1       3.610   3.353  19.319  0.00  0.00    +0.000 A 
ATOM      8  C   UNL     1       3.312   2.230  20.107  0.00  0.00    +0.000 A 
ATOM      9  C   UNL     1       2.560   2.376  21.263  0.00  0.00    +0.000 A 
ATOM     10  C   UNL     1       2.105   3.640  21.615  0.00  0.00    +0.000 A 
ATOM     11  C   UNL     1       2.415   4.764  20.826  0.00  0.00    +0.000 A 
ATOM     12  C   UNL     1       3.179   4.659  19.656  0.00  0.00    +0.000 A 
ATOM     13  N   UNL     1       3.544   5.806  18.792  0.00  0.00    +0.000 N 
ATOM     14  C   UNL     1       2.781   7.012  18.858  0.00  0.00    +0.000 C 
ATOM     15  O   UNL     1       1.843   7.193  19.642  0.00  0.00    +0.000 OA
ATOM     16  H   UNL     1       4.439   2.170  17.797  0.00  0.00    +0.000 HD
ENDROOT
BRANCH  14  17
ATOM     17  C   UNL     1       3.094   8.186  17.892  0.00  0.00    +0.000 C 
BRANCH  17  18
ATOM     18  O   UNL     1       2.078   8.935  17.194  0.00  0.00    +0.000 OA
BRANCH  18  19
ATOM     19  C   UNL     1       1.553  10.023  17.846  0.00  0.00    +0.000 C 
ATOM     20  O   UNL     1       2.213  10.964  18.256  0.00  0.00    +0.000 OA
BRANCH  19  21
ATOM     21  C   UNL     1       0.052   9.806  18.129  0.00  0.00    +0.000 C 
BRANCH  21  22
ATOM     22  N   UNL     1      -0.470  10.367  19.378  0.00  0.00    +0.000 N 
ATOM     23  C   UNL     1      -0.029   9.795  20.539  0.00  0.00    +0.000 A 
ATOM     24  N   UNL     1      -0.224  10.258  21.727  0.00  0.00    +0.000 NA
ATOM     25  C   UNL     1      -1.097  11.338  21.851  0.00  0.00    +0.000 A 
ATOM     26  C   UNL     1      -1.619  11.577  23.122  0.00  0.00    +0.000 A 
ATOM     27  C   UNL     1      -2.722  12.408  23.279  0.00  0.00    +0.000 A 
ATOM     28  C   UNL     1      -3.232  13.099  22.177  0.00  0.00    +0.000 A 
ATOM     29  C   UNL     1      -2.640  12.954  20.914  0.00  0.00    +0.000 A 
ATOM     30  C   UNL     1      -1.602  12.030  20.748  0.00  0.00    +0.000 A 
ATOM     31  C   UNL     1      -1.108  11.609  19.407  0.00  0.00    +0.000 A 
ATOM     32  O   UNL     1      -1.258  12.339  18.427  0.00  0.00    +0.000 OA
ENDBRANCH  21  22
ENDBRANCH  19  21
ENDBRANCH  18  19
ENDBRANCH  17  18
ENDBRANCH  14  17
TORSDOF 5
ENDMDL
MODEL 4
REMARK VINA RESULT:      -8.6      2.284      3.255
REMARK  Name = 
REMARK  7 active torsions:
REMARK  status: ('A' for Active; 'I' for Inactive)
REMARK    1  A    between atoms: C_1  and  C_2
REMARK    2  A    between atoms: C_2  and  C_3
REMARK    3  A    between atoms: C_14  and  C_16
REMARK    4  A    between atoms: C_16  and  O_17
REMARK    5  A    between atoms: O_17  and  C_18
REMARK    6  A    between atoms: C_18  and  C_20
REMARK    7  A    between atoms: C_20  and  N_21
REMARK                            x       y       z     vdW  Elec       q    Type
REMARK                         _______ _______ _______ _____ _____    ______ ____
ROOT
ATOM      1  C   UNL     1       1.772   4.148  20.673  0.00  0.00    +0.000 C 
ATOM      2  C   UNL     1       2.589   4.201  19.370  0.00  0.00    +0.000 C 
ATOM      3  C   UNL     1       1.705   3.517  18.287  0.00  0.00    +0.000 C 
ATOM      4  C   UNL     1       3.800   3.256  19.607  0.00  0.00    +0.000 C 
ATOM      5  O   UNL     1       3.850   2.403  20.494  0.00  0.00    +0.000 OA
ATOM      6  N   UNL     1       4.747   3.246  18.630  0.00  0.00    +0.000 N 
ATOM      7  C   UNL     1       4.836   4.239  17.659  0.00  0.00    +0.000 A 
ATOM      8  C   UNL     1       5.774   4.029  16.635  0.00  0.00    +0.000 A 
ATOM      9  C   UNL     1       5.972   5.004  15.668  0.00  0.00    +0.000 A 
ATOM     10  C   UNL     1       5.239   6.181  15.740  0.00  0.00    +0.000 A 
ATOM     11  C   UNL     1       4.293   6.381  16.763  0.00  0.00    +0.000 A 
ATOM     12  C   UNL     1       4.059   5.418  17.753  0.00  0.00    +0.000 A 
ATOM     13  N   UNL     1       3.071   5.570  18.847  0.00  0.00    +0.000 N 
ATOM     14  C   UNL     1       2.616   6.874  19.213  0.00  0.00    +0.000 C 
ATOM     15  O   UNL     1       2.955   7.912  18.633  0.00  0.00    +0.000 OA
ATOM     16  H   UNL     1       5.435   2.506  18.679  0.00  0.00    +0.000 HD
ENDROOT
BRANCH  14  17
ATOM     17  C   UNL     1       1.655   7.054  20.418  0.00  0.00    +0.000 C 
BRANCH  17  18
ATOM     18  O   UNL     1       1.506   8.294  21.139  0.00  0.00    +0.000 OA
BRANCH  18  19
ATOM     19  C   UNL     1       0.247   8.841  21.179  0.00  0.00    +0.000 C 
ATOM     20  O   UNL     1      -0.604   8.550  22.004  0.00  0.00    +0.000 OA
BRANCH  19  21
ATOM     21  C   UNL     1       0.012   9.736  19.944  0.00  0.00    +0.000 C 
BRANCH  21  22
ATOM     22  N   UNL     1       0.610  11.073  19.977  0.00  0.00    +0.000 N 
ATOM     23  C   UNL     1       0.493  11.769  21.149  0.00  0.00    +0.000 A 
ATOM     24  N   UNL     1       1.103  12.869  21.434  0.00  0.00    +0.000 NA
ATOM     25  C   UNL     1       1.809  13.488  20.403  0.00  0.00    +0.000 A 
ATOM     26  C   UNL     1       2.119  14.836  20.579  0.00  0.00    +0.000 A 
ATOM     27  C   UNL     1       2.525  15.607  19.497  0.00  0.00    +0.000 A 
ATOM     28  C   UNL     1       2.739  15.002  18.256  0.00  0.00    +0.000 A 
ATOM     29  C   UNL     1       2.542  13.622  18.098  0.00  0.00    +0.000 A 
ATOM     30  C   UNL     1       2.026  12.879  19.165  0.00  0.00    +0.000 A 
ATOM     31  C   UNL     1       1.526  11.484  19.006  0.00  0.00    +0.000 A 
ATOM     32  O   UNL     1       1.928  10.777  18.082  0.00  0.00    +0.000 OA
ENDBRANCH  21  22
ENDBRANCH  19  21
ENDBRANCH  18  19
ENDBRANCH  17  18
ENDBRANCH  14  17
TORSDOF 5
ENDMDL
MODEL 5
REMARK VINA RESULT:      -8.5      1.920      2.996
REMARK  Name = 
REMARK  7 active torsions:
REMARK  status: ('A' for Active; 'I' for Inactive)
REMARK    1  A    between atoms: C_1  and  C_2
REMARK    2  A    between atoms: C_2  and  C_3
REMARK    3  A    between atoms: C_14  and  C_16
REMARK    4  A    between atoms: C_16  and  O_17
REMARK    5  A    between atoms: O_17  and  C_18
REMARK    6  A    between atoms: C_18  and  C_20
REMARK    7  A    between atoms: C_20  and  N_21
REMARK                            x       y       z     vdW  Elec       q    Type
REMARK                         _______ _______ _______ _____ _____    ______ ____
ROOT
ATOM      1  C   UNL     1       1.828   4.672  20.173  0.00  0.00    +0.000 C 
ATOM      2  C   UNL     1       2.661   4.485  18.893  0.00  0.00    +0.000 C 
ATOM      3  C   UNL     1       1.707   3.820  17.859  0.00  0.00    +0.000 C 
ATOM      4  C   UNL     1       3.731   3.416  19.253  0.00  0.00    +0.000 C 
ATOM      5  O   UNL     1       3.653   2.657  20.220  0.00  0.00    +0.000 OA
ATOM      6  N   UNL     1       4.680   3.182  18.307  0.00  0.00    +0.000 N 
ATOM      7  C   UNL     1       4.915   4.053  17.247  0.00  0.00    +0.000 A 
ATOM      8  C   UNL     1       5.829   3.619  16.273  0.00  0.00    +0.000 A 
ATOM      9  C   UNL     1       6.170   4.456  15.221  0.00  0.00    +0.000 A 
ATOM     10  C   UNL     1       5.601   5.722  15.158  0.00  0.00    +0.000 A 
ATOM     11  C   UNL     1       4.678   6.148  16.132  0.00  0.00    +0.000 A 
ATOM     12  C   UNL     1       4.303   5.328  17.205  0.00  0.00    +0.000 A 
ATOM     13  N   UNL     1       3.331   5.719  18.252  0.00  0.00    +0.000 N 
ATOM     14  C   UNL     1       3.050   7.102  18.477  0.00  0.00    +0.000 C 
ATOM     15  O   UNL     1       3.534   8.022  17.808  0.00  0.00    +0.000 OA
ATOM     16  H   UNL     1       5.262   2.366  18.446  0.00  0.00    +0.000 HD
ENDROOT
BRANCH  14  17
ATOM     17  C   UNL     1       2.107   7.527  19.634  0.00  0.00    +0.000 C 
BRANCH  17  18
ATOM     18  O   UNL     1       1.398   8.783  19.661  0.00  0.00    +0.000 OA
BRANCH  18  19
ATOM     19  C   UNL     1       0.710   9.082  20.811  0.00  0.00    +0.000 C 
ATOM     20  O   UNL     1      -0.004   8.294  21.410  0.00  0.00    +0.000 OA
BRANCH  19  21
ATOM     21  C   UNL     1       0.836  10.585  21.136  0.00  0.00    +0.000 C 
BRANCH  21  22
ATOM     22  N   UNL     1      -0.413  11.344  21.237  0.00  0.00    +0.000 N 
ATOM     23  C   UNL     1      -1.003  11.715  20.059  0.00  0.00    +0.000 A 
ATOM     24  N   UNL     1      -2.184  12.218  19.936  0.00  0.00    +0.000 NA
ATOM     25  C   UNL     1      -2.850  12.568  21.110  0.00  0.00    +0.000 A 
ATOM     26  C   UNL     1      -3.915  13.459  20.983  0.00  0.00    +0.000 A 
ATOM     27  C   UNL     1      -4.423  14.106  22.103  0.00  0.00    +0.000 A 
ATOM     28  C   UNL     1      -3.945  13.771  23.372  0.00  0.00    +0.000 A 
ATOM     29  C   UNL     1      -2.954  12.791  23.520  0.00  0.00    +0.000 A 
ATOM     30  C   UNL     1      -2.373  12.229  22.378  0.00  0.00    +0.000 A 
ATOM     31  C   UNL     1      -1.137  11.399  22.430  0.00  0.00    +0.000 A 
ATOM     32  O   UNL     1      -0.821  10.810  23.465  0.00  0.00    +0.000 OA
ENDBRANCH  21  22
ENDBRANCH  19  21
ENDBRANCH  18  19
ENDBRANCH  17  18
ENDBRANCH  14  17
TORSDOF 5
ENDMDL
MODEL 6
REMARK VINA RESULT:      -8.4      1.894      2.482
REMARK  Name = 
REMARK  7 active torsions:
REMARK  status: ('A' for Active; 'I' for Inactive)
REMARK    1  A    between atoms: C_1  and  C_2
REMARK    2  A    between atoms: C_2  and  C_3
REMARK    3  A    between atoms: C_14  and  C_16
REMARK    4  A    between atoms: C_16  and  O_17
REMARK    5  A    between atoms: O_17  and  C_18
REMARK    6  A    between atoms: C_18  and  C_20
REMARK    7  A    between atoms: C_20  and  N_21
REMARK                            x       y       z     vdW  Elec       q    Type
REMARK                         _______ _______ _______ _____ _____    ______ ____
ROOT
ATOM      1  C   UNL     1       1.716   4.639  20.228  0.00  0.00    +0.000 C 
ATOM      2  C   UNL     1       2.565   4.485  18.954  0.00  0.00    +0.000 C 
ATOM      3  C   UNL     1       1.628   3.835  17.896  0.00  0.00    +0.000 C 
ATOM      4  C   UNL     1       3.639   3.417  19.304  0.00  0.00    +0.000 C 
ATOM      5  O   UNL     1       3.556   2.637  20.253  0.00  0.00    +0.000 OA
ATOM      6  N   UNL     1       4.601   3.210  18.364  0.00  0.00    +0.000 N 
ATOM      7  C   UNL     1       4.840   4.105  17.324  0.00  0.00    +0.000 A 
ATOM      8  C   UNL     1       5.769   3.698  16.353  0.00  0.00    +0.000 A 
ATOM      9  C   UNL     1       6.115   4.560  15.323  0.00  0.00    +0.000 A 
ATOM     10  C   UNL     1       5.537   5.823  15.280  0.00  0.00    +0.000 A 
ATOM     11  C   UNL     1       4.599   6.221  16.252  0.00  0.00    +0.000 A 
ATOM     12  C   UNL     1       4.219   5.376  17.303  0.00  0.00    +0.000 A 
ATOM     13  N   UNL     1       3.232   5.737  18.347  0.00  0.00    +0.000 N 
ATOM     14  C   UNL     1       2.939   7.113  18.598  0.00  0.00    +0.000 C 
ATOM     15  O   UNL     1       3.423   8.051  17.954  0.00  0.00    +0.000 OA
ATOM     16  H   UNL     1       5.187   2.396  18.492  0.00  0.00    +0.000 HD
ENDROOT
BRANCH  14  17
ATOM     17  C   UNL     1       1.979   7.507  19.752  0.00  0.00    +0.000 C 
BRANCH  17  18
ATOM     18  O   UNL     1       1.411   8.825  19.900  0.00  0.00    +0.000 OA
BRANCH  18  19
ATOM     19  C   UNL     1       0.619   9.038  21.002  0.00  0.00    +0.000 C 
ATOM     20  O   UNL     1      -0.082   8.185  21.521  0.00  0.00    +0.000 OA
BRANCH  19  21
ATOM     21  C   UNL     1       0.615  10.535  21.376  0.00  0.00    +0.000 C 
BRANCH  21  22
ATOM     22  N   UNL     1      -0.695  11.157  21.584  0.00  0.00    +0.000 N 
ATOM     23  C   UNL     1      -1.095  11.326  22.882  0.00  0.00    +0.000 A 
ATOM     24  N   UNL     1      -2.116  12.012  23.271  0.00  0.00    +0.000 NA
ATOM     25  C   UNL     1      -2.978  12.482  22.281  0.00  0.00    +0.000 A 
ATOM     26  C   UNL     1      -4.257  12.856  22.693  0.00  0.00    +0.000 A 
ATOM     27  C   UNL     1      -5.270  13.026  21.758  0.00  0.00    +0.000 A 
ATOM     28  C   UNL     1      -4.977  12.939  20.395  0.00  0.00    +0.000 A 
ATOM     29  C   UNL     1      -3.668  12.677  19.967  0.00  0.00    +0.000 A 
ATOM     30  C   UNL     1      -2.681  12.398  20.919  0.00  0.00    +0.000 A 
ATOM     31  C   UNL     1      -1.348  11.841  20.556  0.00  0.00    +0.000 A 
ATOM     32  O   UNL     1      -0.887  12.006  19.426  0.00  0.00    +0.000 OA
ENDBRANCH  21  22
ENDBRANCH  19  21
ENDBRANCH  18  19
ENDBRANCH  17  18
ENDBRANCH  14  17
TORSDOF 5
ENDMDL
MODEL 7
REMARK VINA RESULT:      -8.4      2.243      8.603
REMARK  Name = 
REMARK  7 active torsions:
REMARK  status: ('A' for Active; 'I' for Inactive)
REMARK    1  A    between atoms: C_1  and  C_2
REMARK    2  A    between atoms: C_2  and  C_3
REMARK    3  A    between atoms: C_14  and  C_16
REMARK    4  A    between atoms: C_16  and  O_17
REMARK    5  A    between atoms: O_17  and  C_18
REMARK    6  A    between atoms: C_18  and  C_20
REMARK    7  A    between atoms: C_20  and  N_21
REMARK                            x       y       z     vdW  Elec       q    Type
REMARK                         _______ _______ _______ _____ _____    ______ ____
ROOT
ATOM      1  C   UNL     1       2.053   8.857  17.815  0.00  0.00    +0.000 C 
ATOM      2  C   UNL     1       1.196   9.775  18.701  0.00  0.00    +0.000 C 
ATOM      3  C   UNL     1      -0.188   9.876  17.995  0.00  0.00    +0.000 C 
ATOM      4  C   UNL     1       1.849  11.181  18.586  0.00  0.00    +0.000 C 
ATOM      5  O   UNL     1       2.632  11.511  17.695  0.00  0.00    +0.000 OA
ATOM      6  N   UNL     1       1.338  12.144  19.401  0.00  0.00    +0.000 N 
ATOM      7  C   UNL     1       0.541  11.849  20.504  0.00  0.00    +0.000 A 
ATOM      8  C   UNL     1      -0.027  12.944  21.175  0.00  0.00    +0.000 A 
ATOM      9  C   UNL     1      -0.777  12.739  22.323  0.00  0.00    +0.000 A 
ATOM     10  C   UNL     1      -0.943  11.444  22.796  0.00  0.00    +0.000 A 
ATOM     11  C   UNL     1      -0.378  10.349  22.114  0.00  0.00    +0.000 A 
ATOM     12  C   UNL     1       0.378  10.514  20.947  0.00  0.00    +0.000 A 
ATOM     13  N   UNL     1       0.988   9.400  20.183  0.00  0.00    +0.000 N 
ATOM     14  C   UNL     1       1.210   8.142  20.823  0.00  0.00    +0.000 C 
ATOM     15  O   UNL     1       0.875   7.890  21.986  0.00  0.00    +0.000 OA
ATOM     16  H   UNL     1       1.619  13.095  19.205  0.00  0.00    +0.000 HD
ENDROOT
BRANCH  14  17
ATOM     17  C   UNL     1       1.933   6.999  20.063  0.00  0.00    +0.000 C 
BRANCH  17  18
ATOM     18  O   UNL     1       2.551   5.872  20.720  0.00  0.00    +0.000 OA
BRANCH  18  19
ATOM     19  C   UNL     1       2.025   4.633  20.450  0.00  0.00    +0.000 C 
ATOM     20  O   UNL     1       0.851   4.336  20.600  0.00  0.00    +0.000 OA
BRANCH  19  21
ATOM     21  C   UNL     1       3.151   3.639  20.097  0.00  0.00    +0.000 C 
BRANCH  21  22
ATOM     22  N   UNL     1       3.857   3.865  18.834  0.00  0.00    +0.000 N 
ATOM     23  C   UNL     1       3.117   3.755  17.688  0.00  0.00    +0.000 A 
ATOM     24  N   UNL     1       3.505   4.094  16.506  0.00  0.00    +0.000 NA
ATOM     25  C   UNL     1       4.846   4.445  16.356  0.00  0.00    +0.000 A 
ATOM     26  C   UNL     1       5.358   4.416  15.059  0.00  0.00    +0.000 A 
ATOM     27  C   UNL     1       6.731   4.434  14.850  0.00  0.00    +0.000 A 
ATOM     28  C   UNL     1       7.595   4.603  15.934  0.00  0.00    +0.000 A 
ATOM     29  C   UNL     1       7.084   4.750  17.231  0.00  0.00    +0.000 A 
ATOM     30  C   UNL     1       5.707   4.618  17.442  0.00  0.00    +0.000 A 
ATOM     31  C   UNL     1       5.111   4.481  18.800  0.00  0.00    +0.000 A 
ATOM     32  O   UNL     1       5.706   4.905  19.791  0.00  0.00    +0.000 OA
ENDBRANCH  21  22
ENDBRANCH  19  21
ENDBRANCH  18  19
ENDBRANCH  17  18
ENDBRANCH  14  17
TORSDOF 5
ENDMDL
MODEL 8
REMARK VINA RESULT:      -8.4      0.927      1.123
REMARK  Name = 
REMARK  7 active torsions:
REMARK  status: ('A' for Active; 'I' for Inactive)
REMARK    1  A    between atoms: C_1  and  C_2
REMARK    2  A    between atoms: C_2  and  C_3
REMARK    3  A    between atoms: C_14  and  C_16
REMARK    4  A    between atoms: C_16  and  O_17
REMARK    5  A    between atoms: O_17  and  C_18
REMARK    6  A    between atoms: C_18  and  C_20
REMARK    7  A    between atoms: C_20  and  N_21
REMARK                            x       y       z     vdW  Elec       q    Type
REMARK                         _______ _______ _______ _____ _____    ______ ____
ROOT
ATOM      1  C   UNL     1       2.043   4.027  20.772  0.00  0.00    +0.000 C 
ATOM      2  C   UNL     1       2.772   4.173  19.426  0.00  0.00    +0.000 C 
ATOM      3  C   UNL     1       1.845   3.508  18.367  0.00  0.00    +0.000 C 
ATOM      4  C   UNL     1       4.028   3.265  19.540  0.00  0.00    +0.000 C 
ATOM      5  O   UNL     1       4.165   2.374  20.378  0.00  0.00    +0.000 OA
ATOM      6  N   UNL     1       4.911   3.337  18.507  0.00  0.00    +0.000 N 
ATOM      7  C   UNL     1       4.902   4.378  17.583  0.00  0.00    +0.000 A 
ATOM      8  C   UNL     1       5.780   4.253  16.493  0.00  0.00    +0.000 A 
ATOM      9  C   UNL     1       5.881   5.279  15.565  0.00  0.00    +0.000 A 
ATOM     10  C   UNL     1       5.113   6.423  15.741  0.00  0.00    +0.000 A 
ATOM     11  C   UNL     1       4.228   6.538  16.829  0.00  0.00    +0.000 A 
ATOM     12  C   UNL     1       4.091   5.521  17.783  0.00  0.00    +0.000 A 
ATOM     13  N   UNL     1       3.171   5.583  18.942  0.00  0.00    +0.000 N 
ATOM     14  C   UNL     1       2.694   6.850  19.400  0.00  0.00    +0.000 C 
ATOM     15  O   UNL     1       2.959   7.926  18.853  0.00  0.00    +0.000 OA
ATOM     16  H   UNL     1       5.626   2.623  18.476  0.00  0.00    +0.000 HD
ENDROOT
BRANCH  14  17
ATOM     17  C   UNL     1       1.806   6.935  20.670  0.00  0.00    +0.000 C 
BRANCH  17  18
ATOM     18  O   UNL     1       0.723   7.876  20.822  0.00  0.00    +0.000 OA
BRANCH  18  19
ATOM     19  C   UNL     1       1.047   9.122  21.298  0.00  0.00    +0.000 C 
ATOM     20  O   UNL     1       1.264   9.376  22.472  0.00  0.00    +0.000 OA
BRANCH  19  21
ATOM     21  C   UNL     1       0.929  10.173  20.174  0.00  0.00    +0.000 C 
BRANCH  21  22
ATOM     22  N   UNL     1      -0.408  10.711  19.913  0.00  0.00    +0.000 N 
ATOM     23  C   UNL     1      -0.855  11.683  20.766  0.00  0.00    +0.000 A 
ATOM     24  N   UNL     1      -1.912  12.403  20.598  0.00  0.00    +0.000 NA
ATOM     25  C   UNL     1      -2.758  12.051  19.547  0.00  0.00    +0.000 A 
ATOM     26  C   UNL     1      -4.062  12.543  19.603  0.00  0.00    +0.000 A 
ATOM     27  C   UNL     1      -5.050  11.996  18.794  0.00  0.00    +0.000 A 
ATOM     28  C   UNL     1      -4.710  11.036  17.838  0.00  0.00    +0.000 A 
ATOM     29  C   UNL     1      -3.380  10.619  17.694  0.00  0.00    +0.000 A 
ATOM     30  C   UNL     1      -2.414  11.094  18.590  0.00  0.00    +0.000 A 
ATOM     31  C   UNL     1      -1.051  10.502  18.691  0.00  0.00    +0.000 A 
ATOM     32  O   UNL     1      -0.561   9.893  17.740  0.00  0.00    +0.000 OA
ENDBRANCH  21  22
ENDBRANCH  19  21
ENDBRANCH  18  19
ENDBRANCH  17  18
ENDBRANCH  14  17
TORSDOF 5
ENDMDL
MODEL 9
REMARK VINA RESULT:      -8.3      1.851      4.207
REMARK  Name = 
REMARK  7 active torsions:
REMARK  status: ('A' for Active; 'I' for Inactive)
REMARK    1  A    between atoms: C_1  and  C_2
REMARK    2  A    between atoms: C_2  and  C_3
REMARK    3  A    between atoms: C_14  and  C_16
REMARK    4  A    between atoms: C_16  and  O_17
REMARK    5  A    between atoms: O_17  and  C_18
REMARK    6  A    between atoms: C_18  and  C_20
REMARK    7  A    between atoms: C_20  and  N_21
REMARK                            x       y       z     vdW  Elec       q    Type
REMARK                         _______ _______ _______ _____ _____    ______ ____
ROOT
ATOM      1  C   UNL     1       4.931   6.637  16.680  0.00  0.00    +0.000 C 
ATOM      2  C   UNL     1       4.579   5.637  17.795  0.00  0.00    +0.000 C 
ATOM      3  C   UNL     1       5.867   5.492  18.656  0.00  0.00    +0.000 C 
ATOM      4  C   UNL     1       4.378   4.275  17.074  0.00  0.00    +0.000 C 
ATOM      5  O   UNL     1       4.783   4.025  15.939  0.00  0.00    +0.000 OA
ATOM      6  N   UNL     1       3.921   3.253  17.849  0.00  0.00    +0.000 N 
ATOM      7  C   UNL     1       3.338   3.459  19.096  0.00  0.00    +0.000 A 
ATOM      8  C   UNL     1       3.037   2.308  19.842  0.00  0.00    +0.000 A 
ATOM      9  C   UNL     1       2.392   2.425  21.065  0.00  0.00    +0.000 A 
ATOM     10  C   UNL     1       2.045   3.689  21.524  0.00  0.00    +0.000 A 
ATOM     11  C   UNL     1       2.358   4.840  20.776  0.00  0.00    +0.000 A 
ATOM     12  C   UNL     1       3.016   4.764  19.541  0.00  0.00    +0.000 A 
ATOM     13  N   UNL     1       3.378   5.939  18.716  0.00  0.00    +0.000 N 
ATOM     14  C   UNL     1       2.698   7.180  18.915  0.00  0.00    +0.000 C 
ATOM     15  O   UNL     1       1.840   7.365  19.785  0.00  0.00    +0.000 OA
ATOM     16  H   UNL     1       3.966   2.327  17.445  0.00  0.00    +0.000 HD
ENDROOT
BRANCH  14  17
ATOM     17  C   UNL     1       3.002   8.392  17.993  0.00  0.00    +0.000 C 
BRANCH  17  18
ATOM     18  O   UNL     1       1.983   9.133  17.291  0.00  0.00    +0.000 OA
BRANCH  18  19
ATOM     19  C   UNL     1       1.427  10.200  17.951  0.00  0.00    +0.000 C 
ATOM     20  O   UNL     1       2.047  11.193  18.300  0.00  0.00    +0.000 OA
BRANCH  19  21
ATOM     21  C   UNL     1      -0.035   9.892  18.333  0.00  0.00    +0.000 C 
BRANCH  21  22
ATOM     22  N   UNL     1      -0.695  10.841  19.234  0.00  0.00    +0.000 N 
ATOM     23  C   UNL     1      -1.666  11.633  18.685  0.00  0.00    +0.000 A 
ATOM     24  N   UNL     1      -2.480  12.389  19.342  0.00  0.00    +0.000 NA
ATOM     25  C   UNL     1      -2.242  12.540  20.707  0.00  0.00    +0.000 A 
ATOM     26  C   UNL     1      -2.839  13.637  21.328  0.00  0.00    +0.000 A 
ATOM     27  C   UNL     1      -2.411  14.048  22.584  0.00  0.00    +0.000 A 
ATOM     28  C   UNL     1      -1.464  13.289  23.276  0.00  0.00    +0.000 A 
ATOM     29  C   UNL     1      -0.942  12.118  22.708  0.00  0.00    +0.000 A 
ATOM     30  C   UNL     1      -1.298  11.777  21.398  0.00  0.00    +0.000 A 
ATOM     31  C   UNL     1      -0.589  10.722  20.621  0.00  0.00    +0.000 A 
ATOM     32  O   UNL     1       0.021   9.823  21.199  0.00  0.00    +0.000 OA
ENDBRANCH  21  22
ENDBRANCH  19  21
ENDBRANCH  18  19
ENDBRANCH  17  18
ENDBRANCH  14  17
TORSDOF 5
ENDMDL
