MODEL 1
REMARK VINA RESULT:      -7.4      0.000      0.000
REMARK  Name = 
REMARK  13 active torsions:
REMARK  status: ('A' for Active; 'I' for Inactive)
REMARK    1  A    between atoms: C_2  and  C_3
REMARK    2  A    between atoms: C_3  and  C_4
REMARK    3  A    between atoms: C_4  and  C_5
REMARK    4  A    between atoms: C_5  and  C_6
REMARK    5  A    between atoms: C_6  and  C_7
REMARK    6  A    between atoms: N_9  and  N_10
REMARK    7  A    between atoms: C_11  and  C_12
REMARK    8  A    between atoms: C_15  and  O_16
REMARK    9  A    between atoms: C_18  and  O_19
REMARK   10  A    between atoms: N_20  and  N_21
REMARK   11  A    between atoms: C_22  and  C_23
REMARK   12  A    between atoms: C_26  and  O_27
REMARK   13  A    between atoms: C_29  and  O_30
REMARK                            x       y       z     vdW  Elec       q    Type
REMARK                         _______ _______ _______ _____ _____    ______ ____
ROOT
ATOM      1  C   UNL     1       7.716   4.722  17.724  0.00  0.00    +0.000 C 
ENDROOT
BRANCH   1   2
ATOM      2  C   UNL     1       7.705   5.878  18.733  0.00  0.00    +0.000 C 
BRANCH   2   4
ATOM      3  O   UNL     1       7.874   7.422  16.903  0.00  0.00    +0.000 OA
ATOM      4  C   UNL     1       8.041   7.219  18.096  0.00  0.00    +0.000 C 
ATOM      5  N   UNL     1       8.520   8.161  18.993  0.00  0.00    +0.000 N 
ATOM      6  H   UNL     1       8.656   7.934  19.972  0.00  0.00    +0.000 HD
BRANCH   5   7
ATOM      7  N   UNL     1       8.848   9.423  18.566  0.00  0.00    +0.000 NA
ATOM      8  C   UNL     1       9.398  10.183  19.460  0.00  0.00    +0.000 C 
BRANCH   8   9
ATOM      9  C   UNL     1       9.824  11.565  19.159  0.00  0.00    +0.000 A 
ATOM     10  C   UNL     1       9.784  12.033  17.841  0.00  0.00    +0.000 A 
ATOM     11  C   UNL     1      10.218  13.328  17.547  0.00  0.00    +0.000 A 
ATOM     12  C   UNL     1      10.693  14.144  18.571  0.00  0.00    +0.000 A 
ATOM     13  C   UNL     1      10.737  13.692  19.886  0.00  0.00    +0.000 A 
ATOM     14  C   UNL     1      10.297  12.400  20.181  0.00  0.00    +0.000 A 
BRANCH  12  15
ATOM     15  O   UNL     1      11.137  15.411  18.327  0.00  0.00    +0.000 OA
ATOM     16  H   UNL     1      10.391  15.958  18.030  0.00  0.00    +0.000 HD
ENDBRANCH  12  15
BRANCH  14  17
ATOM     17  O   UNL     1      10.335  11.945  21.470  0.00  0.00    +0.000 OA
ATOM     18  H   UNL     1       9.830  12.546  22.047  0.00  0.00    +0.000 HD
ENDBRANCH  14  17
ENDBRANCH   8   9
ENDBRANCH   5   7
ENDBRANCH   2   4
ENDBRANCH   1   2
BRANCH   1  19
ATOM     19  C   UNL     1       6.306   4.242  17.358  0.00  0.00    +0.000 C 
BRANCH  19  20
ATOM     20  C   UNL     1       5.711   4.908  16.105  0.00  0.00    +0.000 C 
BRANCH  20  21
ATOM     21  C   UNL     1       4.676   5.964  16.483  0.00  0.00    +0.000 C 
ATOM     22  O   UNL     1       4.608   7.040  15.888  0.00  0.00    +0.000 OA
ATOM     23  N   UNL     1       3.829   5.590  17.519  0.00  0.00    +0.000 N 
ATOM     24  H   UNL     1       3.944   4.719  18.024  0.00  0.00    +0.000 HD
BRANCH  23  25
ATOM     25  N   UNL     1       2.867   6.480  17.912  0.00  0.00    +0.000 NA
ATOM     26  C   UNL     1       2.949   6.973  19.109  0.00  0.00    +0.000 C 
BRANCH  26  27
ATOM     27  C   UNL     1       1.955   7.965  19.589  0.00  0.00    +0.000 A 
ATOM     28  C   UNL     1       1.394   7.837  20.869  0.00  0.00    +0.000 A 
ATOM     29  C   UNL     1       0.445   8.758  21.323  0.00  0.00    +0.000 A 
ATOM     30  C   UNL     1       0.054   9.801  20.488  0.00  0.00    +0.000 A 
ATOM     31  C   UNL     1       0.594   9.938  19.211  0.00  0.00    +0.000 A 
ATOM     32  C   UNL     1       1.547   9.019  18.765  0.00  0.00    +0.000 A 
BRANCH  30  33
ATOM     33  O   UNL     1      -0.869  10.722  20.885  0.00  0.00    +0.000 OA
ATOM     34  H   UNL     1      -1.735  10.286  20.966  0.00  0.00    +0.000 HD
ENDBRANCH  30  33
BRANCH  32  35
ATOM     35  O   UNL     1       2.074   9.148  17.509  0.00  0.00    +0.000 OA
ATOM     36  H   UNL     1       1.345   9.304  16.882  0.00  0.00    +0.000 HD
ENDBRANCH  32  35
ENDBRANCH  26  27
ENDBRANCH  23  25
ENDBRANCH  20  21
ENDBRANCH  19  20
ENDBRANCH   1  19
TORSDOF 13
ENDMDL
MODEL 2
REMARK VINA RESULT:      -7.2      1.900      8.825
REMARK  Name = 
REMARK  13 active torsions:
REMARK  status: ('A' for Active; 'I' for Inactive)
REMARK    1  A    between atoms: C_2  and  C_3
REMARK    2  A    between atoms: C_3  and  C_4
REMARK    3  A    between atoms: C_4  and  C_5
REMARK    4  A    between atoms: C_5  and  C_6
REMARK    5  A    between atoms: C_6  and  C_7
REMARK    6  A    between atoms: N_9  and  N_10
REMARK    7  A    between atoms: C_11  and  C_12
REMARK    8  A    between atoms: C_15  and  O_16
REMARK    9  A    between atoms: C_18  and  O_19
REMARK   10  A    between atoms: N_20  and  N_21
REMARK   11  A    between atoms: C_22  and  C_23
REMARK   12  A    between atoms: C_26  and  O_27
REMARK   13  A    between atoms: C_29  and  O_30
REMARK                            x       y       z     vdW  Elec       q    Type
REMARK                         _______ _______ _______ _____ _____    ______ ____
ROOT
ATOM      1  C   UNL     1       5.140   5.515  18.615  0.00  0.00    +0.000 C 
ENDROOT
BRANCH   1   2
ATOM      2  C   UNL     1       4.000   5.284  19.616  0.00  0.00    +0.000 C 
BRANCH   2   4
ATOM      3  O   UNL     1       2.539   6.724  18.368  0.00  0.00    +0.000 OA
ATOM      4  C   UNL     1       2.868   6.291  19.462  0.00  0.00    +0.000 C 
ATOM      5  N   UNL     1       2.257   6.634  20.659  0.00  0.00    +0.000 N 
ATOM      6  H   UNL     1       2.581   6.257  21.542  0.00  0.00    +0.000 HD
BRANCH   5   7
ATOM      7  N   UNL     1       1.209   7.519  20.674  0.00  0.00    +0.000 NA
ATOM      8  C   UNL     1       1.425   8.619  21.325  0.00  0.00    +0.000 C 
BRANCH   8   9
ATOM      9  C   UNL     1       0.405   9.683  21.426  0.00  0.00    +0.000 A 
ATOM     10  C   UNL     1      -0.103  10.270  20.262  0.00  0.00    +0.000 A 
ATOM     11  C   UNL     1      -1.044  11.300  20.353  0.00  0.00    +0.000 A 
ATOM     12  C   UNL     1      -1.465  11.737  21.607  0.00  0.00    +0.000 A 
ATOM     13  C   UNL     1      -0.970  11.161  22.772  0.00  0.00    +0.000 A 
ATOM     14  C   UNL     1      -0.035  10.127  22.680  0.00  0.00    +0.000 A 
BRANCH  12  15
ATOM     15  O   UNL     1      -2.373  12.747  21.742  0.00  0.00    +0.000 OA
ATOM     16  H   UNL     1      -3.038  12.675  21.037  0.00  0.00    +0.000 HD
ENDBRANCH  12  15
BRANCH  14  17
ATOM     17  O   UNL     1       0.459   9.552  23.819  0.00  0.00    +0.000 OA
ATOM     18  H   UNL     1       0.642   8.609  23.659  0.00  0.00    +0.000 HD
ENDBRANCH  14  17
ENDBRANCH   8   9
ENDBRANCH   5   7
ENDBRANCH   2   4
ENDBRANCH   1   2
BRANCH   1  19
ATOM     19  C   UNL     1       6.501   5.692  19.300  0.00  0.00    +0.000 C 
BRANCH  19  20
ATOM     20  C   UNL     1       7.674   5.932  18.334  0.00  0.00    +0.000 C 
BRANCH  20  21
ATOM     21  C   UNL     1       7.773   7.404  17.943  0.00  0.00    +0.000 C 
ATOM     22  O   UNL     1       7.151   7.858  16.983  0.00  0.00    +0.000 OA
ATOM     23  N   UNL     1       8.592   8.162  18.772  0.00  0.00    +0.000 N 
ATOM     24  H   UNL     1       9.132   7.749  19.523  0.00  0.00    +0.000 HD
BRANCH  23  25
ATOM     25  N   UNL     1       8.727   9.494  18.492  0.00  0.00    +0.000 NA
ATOM     26  C   UNL     1       9.387  10.227  19.333  0.00  0.00    +0.000 C 
BRANCH  26  27
ATOM     27  C   UNL     1       9.595  11.674  19.078  0.00  0.00    +0.000 A 
ATOM     28  C   UNL     1       8.949  12.631  19.876  0.00  0.00    +0.000 A 
ATOM     29  C   UNL     1       9.128  13.996  19.631  0.00  0.00    +0.000 A 
ATOM     30  C   UNL     1       9.946  14.398  18.579  0.00  0.00    +0.000 A 
ATOM     31  C   UNL     1      10.586  13.462  17.771  0.00  0.00    +0.000 A 
ATOM     32  C   UNL     1      10.411  12.100  18.024  0.00  0.00    +0.000 A 
BRANCH  30  33
ATOM     33  O   UNL     1      10.148  15.717  18.299  0.00  0.00    +0.000 OA
ATOM     34  H   UNL     1       9.333  16.087  17.918  0.00  0.00    +0.000 HD
ENDBRANCH  30  33
BRANCH  32  35
ATOM     35  O   UNL     1      11.034  11.179  17.227  0.00  0.00    +0.000 OA
ATOM     36  H   UNL     1      10.919  10.297  17.625  0.00  0.00    +0.000 HD
ENDBRANCH  32  35
ENDBRANCH  26  27
ENDBRANCH  23  25
ENDBRANCH  20  21
ENDBRANCH  19  20
ENDBRANCH   1  19
TORSDOF 13
ENDMDL
MODEL 3
REMARK VINA RESULT:      -7.1      5.707      8.762
REMARK  Name = 
REMARK  13 active torsions:
REMARK  status: ('A' for Active; 'I' for Inactive)
REMARK    1  A    between atoms: C_2  and  C_3
REMARK    2  A    between atoms: C_3  and  C_4
REMARK    3  A    between atoms: C_4  and  C_5
REMARK    4  A    between atoms: C_5  and  C_6
REMARK    5  A    between atoms: C_6  and  C_7
REMARK    6  A    between atoms: N_9  and  N_10
REMARK    7  A    between atoms: C_11  and  C_12
REMARK    8  A    between atoms: C_15  and  O_16
REMARK    9  A    between atoms: C_18  and  O_19
REMARK   10  A    between atoms: N_20  and  N_21
REMARK   11  A    between atoms: C_22  and  C_23
REMARK   12  A    between atoms: C_26  and  O_27
REMARK   13  A    between atoms: C_29  and  O_30
REMARK                            x       y       z     vdW  Elec       q    Type
REMARK                         _______ _______ _______ _____ _____    ______ ____
ROOT
ATOM      1  C   UNL     1       1.228   4.078  21.028  0.00  0.00    +0.000 C 
ENDROOT
BRANCH   1   2
ATOM      2  C   UNL     1       2.462   4.856  20.553  0.00  0.00    +0.000 C 
BRANCH   2   4
ATOM      3  O   UNL     1       2.301   6.694  19.017  0.00  0.00    +0.000 OA
ATOM      4  C   UNL     1       2.139   6.291  20.159  0.00  0.00    +0.000 C 
ATOM      5  N   UNL     1       1.636   7.058  21.199  0.00  0.00    +0.000 N 
ATOM      6  H   UNL     1       1.538   6.677  22.133  0.00  0.00    +0.000 HD
BRANCH   5   7
ATOM      7  N   UNL     1       1.283   8.366  20.988  0.00  0.00    +0.000 NA
ATOM      8  C   UNL     1       0.208   8.753  21.601  0.00  0.00    +0.000 C 
BRANCH   8   9
ATOM      9  C   UNL     1      -0.301  10.136  21.492  0.00  0.00    +0.000 A 
ATOM     10  C   UNL     1      -0.635  10.847  22.650  0.00  0.00    +0.000 A 
ATOM     11  C   UNL     1      -1.148  12.143  22.550  0.00  0.00    +0.000 A 
ATOM     12  C   UNL     1      -1.327  12.716  21.293  0.00  0.00    +0.000 A 
ATOM     13  C   UNL     1      -0.998  12.021  20.134  0.00  0.00    +0.000 A 
ATOM     14  C   UNL     1      -0.479  10.729  20.235  0.00  0.00    +0.000 A 
BRANCH  12  15
ATOM     15  O   UNL     1      -1.836  13.974  21.149  0.00  0.00    +0.000 OA
ATOM     16  H   UNL     1      -1.537  14.344  20.301  0.00  0.00    +0.000 HD
ENDBRANCH  12  15
BRANCH  14  17
ATOM     17  O   UNL     1      -0.151  10.036  19.101  0.00  0.00    +0.000 OA
ATOM     18  H   UNL     1       0.783   9.763  19.141  0.00  0.00    +0.000 HD
ENDBRANCH  14  17
ENDBRANCH   8   9
ENDBRANCH   5   7
ENDBRANCH   2   4
ENDBRANCH   1   2
BRANCH   1  19
ATOM     19  C   UNL     1       1.311   2.581  20.704  0.00  0.00    +0.000 C 
BRANCH  19  20
ATOM     20  C   UNL     1       0.810   2.202  19.300  0.00  0.00    +0.000 C 
BRANCH  20  21
ATOM     21  C   UNL     1       1.804   2.634  18.226  0.00  0.00    +0.000 C 
ATOM     22  O   UNL     1       1.461   3.339  17.277  0.00  0.00    +0.000 OA
ATOM     23  N   UNL     1       3.102   2.182  18.435  0.00  0.00    +0.000 N 
ATOM     24  H   UNL     1       3.342   1.560  19.197  0.00  0.00    +0.000 HD
BRANCH  23  25
ATOM     25  N   UNL     1       4.056   2.534  17.518  0.00  0.00    +0.000 NA
ATOM     26  C   UNL     1       4.259   3.797  17.308  0.00  0.00    +0.000 C 
BRANCH  26  27
ATOM     27  C   UNL     1       5.298   4.248  16.349  0.00  0.00    +0.000 A 
ATOM     28  C   UNL     1       4.968   4.461  15.002  0.00  0.00    +0.000 A 
ATOM     29  C   UNL     1       5.945   4.870  14.089  0.00  0.00    +0.000 A 
ATOM     30  C   UNL     1       7.253   5.056  14.527  0.00  0.00    +0.000 A 
ATOM     31  C   UNL     1       7.600   4.839  15.859  0.00  0.00    +0.000 A 
ATOM     32  C   UNL     1       6.619   4.438  16.769  0.00  0.00    +0.000 A 
BRANCH  30  33
ATOM     33  O   UNL     1       8.241   5.451  13.675  0.00  0.00    +0.000 OA
ATOM     34  H   UNL     1       7.837   5.895  12.909  0.00  0.00    +0.000 HD
ENDBRANCH  30  33
BRANCH  32  35
ATOM     35  O   UNL     1       6.958   4.219  18.076  0.00  0.00    +0.000 OA
ATOM     36  H   UNL     1       7.317   5.045  18.445  0.00  0.00    +0.000 HD
ENDBRANCH  32  35
ENDBRANCH  26  27
ENDBRANCH  23  25
ENDBRANCH  20  21
ENDBRANCH  19  20
ENDBRANCH   1  19
TORSDOF 13
ENDMDL
MODEL 4
REMARK VINA RESULT:      -7.1      1.529      1.884
REMARK  Name = 
REMARK  13 active torsions:
REMARK  status: ('A' for Active; 'I' for Inactive)
REMARK    1  A    between atoms: C_2  and  C_3
REMARK    2  A    between atoms: C_3  and  C_4
REMARK    3  A    between atoms: C_4  and  C_5
REMARK    4  A    between atoms: C_5  and  C_6
REMARK    5  A    between atoms: C_6  and  C_7
REMARK    6  A    between atoms: N_9  and  N_10
REMARK    7  A    between atoms: C_11  and  C_12
REMARK    8  A    between atoms: C_15  and  O_16
REMARK    9  A    between atoms: C_18  and  O_19
REMARK   10  A    between atoms: N_20  and  N_21
REMARK   11  A    between atoms: C_22  and  C_23
REMARK   12  A    between atoms: C_26  and  O_27
REMARK   13  A    between atoms: C_29  and  O_30
REMARK                            x       y       z     vdW  Elec       q    Type
REMARK                         _______ _______ _______ _____ _____    ______ ____
ROOT
ATOM      1  C   UNL     1       7.007   5.032  16.844  0.00  0.00    +0.000 C 
ENDROOT
BRANCH   1   2
ATOM      2  C   UNL     1       6.573   6.479  17.112  0.00  0.00    +0.000 C 
BRANCH   2   4
ATOM      3  O   UNL     1       8.163   6.733  18.893  0.00  0.00    +0.000 OA
ATOM      4  C   UNL     1       7.582   7.251  17.951  0.00  0.00    +0.000 C 
ATOM      5  N   UNL     1       7.779   8.557  17.529  0.00  0.00    +0.000 N 
ATOM      6  H   UNL     1       7.257   8.943  16.751  0.00  0.00    +0.000 HD
BRANCH   5   7
ATOM      7  N   UNL     1       8.674   9.368  18.180  0.00  0.00    +0.000 NA
ATOM      8  C   UNL     1       8.552  10.635  17.930  0.00  0.00    +0.000 C 
BRANCH   8   9
ATOM      9  C   UNL     1       9.427  11.645  18.561  0.00  0.00    +0.000 A 
ATOM     10  C   UNL     1      10.237  11.284  19.643  0.00  0.00    +0.000 A 
ATOM     11  C   UNL     1      11.041  12.244  20.263  0.00  0.00    +0.000 A 
ATOM     12  C   UNL     1      11.026  13.558  19.800  0.00  0.00    +0.000 A 
ATOM     13  C   UNL     1      10.226  13.929  18.724  0.00  0.00    +0.000 A 
ATOM     14  C   UNL     1       9.428  12.968  18.100  0.00  0.00    +0.000 A 
BRANCH  12  15
ATOM     15  O   UNL     1      11.786  14.529  20.383  0.00  0.00    +0.000 OA
ATOM     16  H   UNL     1      12.576  14.122  20.777  0.00  0.00    +0.000 HD
ENDBRANCH  12  15
BRANCH  14  17
ATOM     17  O   UNL     1       8.638  13.322  17.040  0.00  0.00    +0.000 OA
ATOM     18  H   UNL     1       8.838  12.754  16.276  0.00  0.00    +0.000 HD
ENDBRANCH  14  17
ENDBRANCH   8   9
ENDBRANCH   5   7
ENDBRANCH   2   4
ENDBRANCH   1   2
BRANCH   1  19
ATOM     19  C   UNL     1       5.954   4.233  16.065  0.00  0.00    +0.000 C 
BRANCH  19  20
ATOM     20  C   UNL     1       5.076   3.318  16.935  0.00  0.00    +0.000 C 
BRANCH  20  21
ATOM     21  C   UNL     1       4.334   4.118  18.001  0.00  0.00    +0.000 C 
ATOM     22  O   UNL     1       4.538   3.936  19.201  0.00  0.00    +0.000 OA
ATOM     23  N   UNL     1       3.448   5.061  17.494  0.00  0.00    +0.000 N 
ATOM     24  H   UNL     1       3.263   5.152  16.502  0.00  0.00    +0.000 HD
BRANCH  23  25
ATOM     25  N   UNL     1       2.748   5.826  18.388  0.00  0.00    +0.000 NA
ATOM     26  C   UNL     1       2.822   7.115  18.272  0.00  0.00    +0.000 C 
BRANCH  26  27
ATOM     27  C   UNL     1       2.066   8.004  19.189  0.00  0.00    +0.000 A 
ATOM     28  C   UNL     1       1.809   7.599  20.508  0.00  0.00    +0.000 A 
ATOM     29  C   UNL     1       1.082   8.424  21.373  0.00  0.00    +0.000 A 
ATOM     30  C   UNL     1       0.609   9.648  20.910  0.00  0.00    +0.000 A 
ATOM     31  C   UNL     1       0.847  10.061  19.601  0.00  0.00    +0.000 A 
ATOM     32  C   UNL     1       1.579   9.237  18.743  0.00  0.00    +0.000 A 
BRANCH  30  33
ATOM     33  O   UNL     1      -0.106  10.485  21.715  0.00  0.00    +0.000 OA
ATOM     34  H   UNL     1       0.026  10.220  22.642  0.00  0.00    +0.000 HD
ENDBRANCH  30  33
BRANCH  32  35
ATOM     35  O   UNL     1       1.809   9.637  17.455  0.00  0.00    +0.000 OA
ATOM     36  H   UNL     1       1.951   8.846  16.906  0.00  0.00    +0.000 HD
ENDBRANCH  32  35
ENDBRANCH  26  27
ENDBRANCH  23  25
ENDBRANCH  20  21
ENDBRANCH  19  20
ENDBRANCH   1  19
TORSDOF 13
ENDMDL
MODEL 5
REMARK VINA RESULT:      -7.0      5.488      8.398
REMARK  Name = 
REMARK  13 active torsions:
REMARK  status: ('A' for Active; 'I' for Inactive)
REMARK    1  A    between atoms: C_2  and  C_3
REMARK    2  A    between atoms: C_3  and  C_4
REMARK    3  A    between atoms: C_4  and  C_5
REMARK    4  A    between atoms: C_5  and  C_6
REMARK    5  A    between atoms: C_6  and  C_7
REMARK    6  A    between atoms: N_9  and  N_10
REMARK    7  A    between atoms: C_11  and  C_12
REMARK    8  A    between atoms: C_15  and  O_16
REMARK    9  A    between atoms: C_18  and  O_19
REMARK   10  A    between atoms: N_20  and  N_21
REMARK   11  A    between atoms: C_22  and  C_23
REMARK   12  A    between atoms: C_26  and  O_27
REMARK   13  A    between atoms: C_29  and  O_30
REMARK                            x       y       z     vdW  Elec       q    Type
REMARK                         _______ _______ _______ _____ _____    ______ ____
ROOT
ATOM      1  C   UNL     1       0.885   4.255  20.645  0.00  0.00    +0.000 C 
ENDROOT
BRANCH   1   2
ATOM      2  C   UNL     1       2.169   5.060  20.888  0.00  0.00    +0.000 C 
BRANCH   2   4
ATOM      3  O   UNL     1       2.669   6.559  19.080  0.00  0.00    +0.000 OA
ATOM      4  C   UNL     1       2.161   6.409  20.181  0.00  0.00    +0.000 C 
ATOM      5  N   UNL     1       1.516   7.410  20.891  0.00  0.00    +0.000 N 
ATOM      6  H   UNL     1       1.126   7.235  21.810  0.00  0.00    +0.000 HD
BRANCH   5   7
ATOM      7  N   UNL     1       1.415   8.675  20.370  0.00  0.00    +0.000 NA
ATOM      8  C   UNL     1       0.222   9.181  20.380  0.00  0.00    +0.000 C 
BRANCH   8   9
ATOM      9  C   UNL     1      -0.057  10.539  19.870  0.00  0.00    +0.000 A 
ATOM     10  C   UNL     1      -0.885  10.706  18.754  0.00  0.00    +0.000 A 
ATOM     11  C   UNL     1      -1.124  11.987  18.248  0.00  0.00    +0.000 A 
ATOM     12  C   UNL     1      -0.531  13.090  18.858  0.00  0.00    +0.000 A 
ATOM     13  C   UNL     1       0.293  12.938  19.969  0.00  0.00    +0.000 A 
ATOM     14  C   UNL     1       0.526  11.659  20.479  0.00  0.00    +0.000 A 
BRANCH  12  15
ATOM     15  O   UNL     1      -0.729  14.356  18.390  0.00  0.00    +0.000 OA
ATOM     16  H   UNL     1      -1.442  14.344  17.730  0.00  0.00    +0.000 HD
ENDBRANCH  12  15
BRANCH  14  17
ATOM     17  O   UNL     1       1.334  11.498  21.571  0.00  0.00    +0.000 OA
ATOM     18  H   UNL     1       2.133  12.047  21.474  0.00  0.00    +0.000 HD
ENDBRANCH  14  17
ENDBRANCH   8   9
ENDBRANCH   5   7
ENDBRANCH   2   4
ENDBRANCH   1   2
BRANCH   1  19
ATOM     19  C   UNL     1       1.156   2.761  20.424  0.00  0.00    +0.000 C 
BRANCH  19  20
ATOM     20  C   UNL     1       1.094   2.312  18.954  0.00  0.00    +0.000 C 
BRANCH  20  21
ATOM     21  C   UNL     1       2.111   3.067  18.104  0.00  0.00    +0.000 C 
ATOM     22  O   UNL     1       1.760   3.820  17.196  0.00  0.00    +0.000 OA
ATOM     23  N   UNL     1       3.435   2.843  18.464  0.00  0.00    +0.000 N 
ATOM     24  H   UNL     1       3.695   2.178  19.182  0.00  0.00    +0.000 HD
BRANCH  23  25
ATOM     25  N   UNL     1       4.409   3.491  17.754  0.00  0.00    +0.000 NA
ATOM     26  C   UNL     1       4.524   3.217  16.492  0.00  0.00    +0.000 C 
BRANCH  26  27
ATOM     27  C   UNL     1       5.541   3.903  15.656  0.00  0.00    +0.000 A 
ATOM     28  C   UNL     1       5.552   3.716  14.265  0.00  0.00    +0.000 A 
ATOM     29  C   UNL     1       6.517   4.346  13.473  0.00  0.00    +0.000 A 
ATOM     30  C   UNL     1       7.473   5.155  14.079  0.00  0.00    +0.000 A 
ATOM     31  C   UNL     1       7.482   5.344  15.459  0.00  0.00    +0.000 A 
ATOM     32  C   UNL     1       6.513   4.718  16.245  0.00  0.00    +0.000 A 
BRANCH  30  33
ATOM     33  O   UNL     1       8.435   5.788  13.349  0.00  0.00    +0.000 OA
ATOM     34  H   UNL     1       8.493   6.715  13.640  0.00  0.00    +0.000 HD
ENDBRANCH  30  33
BRANCH  32  35
ATOM     35  O   UNL     1       6.523   4.898  17.602  0.00  0.00    +0.000 OA
ATOM     36  H   UNL     1       5.607   4.859  17.926  0.00  0.00    +0.000 HD
ENDBRANCH  32  35
ENDBRANCH  26  27
ENDBRANCH  23  25
ENDBRANCH  20  21
ENDBRANCH  19  20
ENDBRANCH   1  19
TORSDOF 13
ENDMDL
MODEL 6
REMARK VINA RESULT:      -6.9      1.495      8.675
REMARK  Name = 
REMARK  13 active torsions:
REMARK  status: ('A' for Active; 'I' for Inactive)
REMARK    1  A    between atoms: C_2  and  C_3
REMARK    2  A    between atoms: C_3  and  C_4
REMARK    3  A    between atoms: C_4  and  C_5
REMARK    4  A    between atoms: C_5  and  C_6
REMARK    5  A    between atoms: C_6  and  C_7
REMARK    6  A    between atoms: N_9  and  N_10
REMARK    7  A    between atoms: C_11  and  C_12
REMARK    8  A    between atoms: C_15  and  O_16
REMARK    9  A    between atoms: C_18  and  O_19
REMARK   10  A    between atoms: N_20  and  N_21
REMARK   11  A    between atoms: C_22  and  C_23
REMARK   12  A    between atoms: C_26  and  O_27
REMARK   13  A    between atoms: C_29  and  O_30
REMARK                            x       y       z     vdW  Elec       q    Type
REMARK                         _______ _______ _______ _____ _____    ______ ____
ROOT
ATOM      1  C   UNL     1       4.843   4.669  17.812  0.00  0.00    +0.000 C 
ENDROOT
BRANCH   1   2
ATOM      2  C   UNL     1       3.352   4.894  18.095  0.00  0.00    +0.000 C 
BRANCH   2   4
ATOM      3  O   UNL     1       3.232   7.288  17.955  0.00  0.00    +0.000 OA
ATOM      4  C   UNL     1       3.058   6.287  18.634  0.00  0.00    +0.000 C 
ATOM      5  N   UNL     1       2.567   6.294  19.931  0.00  0.00    +0.000 N 
ATOM      6  H   UNL     1       2.458   5.435  20.456  0.00  0.00    +0.000 HD
BRANCH   5   7
ATOM      7  N   UNL     1       2.240   7.478  20.542  0.00  0.00    +0.000 NA
ATOM      8  C   UNL     1       0.970   7.689  20.692  0.00  0.00    +0.000 C 
BRANCH   8   9
ATOM      9  C   UNL     1       0.450   8.908  21.345  0.00  0.00    +0.000 A 
ATOM     10  C   UNL     1      -0.155   8.818  22.604  0.00  0.00    +0.000 A 
ATOM     11  C   UNL     1      -0.678   9.964  23.210  0.00  0.00    +0.000 A 
ATOM     12  C   UNL     1      -0.595  11.189  22.552  0.00  0.00    +0.000 A 
ATOM     13  C   UNL     1       0.005  11.293  21.302  0.00  0.00    +0.000 A 
ATOM     14  C   UNL     1       0.534  10.149  20.699  0.00  0.00    +0.000 A 
BRANCH  12  15
ATOM     15  O   UNL     1      -1.102  12.330  23.103  0.00  0.00    +0.000 OA
ATOM     16  H   UNL     1      -1.489  12.879  22.399  0.00  0.00    +0.000 HD
ENDBRANCH  12  15
BRANCH  14  17
ATOM     17  O   UNL     1       1.127  10.239  19.470  0.00  0.00    +0.000 OA
ATOM     18  H   UNL     1       1.219   9.350  19.083  0.00  0.00    +0.000 HD
ENDBRANCH  14  17
ENDBRANCH   8   9
ENDBRANCH   5   7
ENDBRANCH   2   4
ENDBRANCH   1   2
BRANCH   1  19
ATOM     19  C   UNL     1       5.752   5.422  18.791  0.00  0.00    +0.000 C 
BRANCH  19  20
ATOM     20  C   UNL     1       7.213   5.559  18.328  0.00  0.00    +0.000 C 
BRANCH  20  21
ATOM     21  C   UNL     1       7.522   6.991  17.901  0.00  0.00    +0.000 C 
ATOM     22  O   UNL     1       7.001   7.493  16.905  0.00  0.00    +0.000 OA
ATOM     23  N   UNL     1       8.408   7.659  18.739  0.00  0.00    +0.000 N 
ATOM     24  H   UNL     1       8.860   7.202  19.522  0.00  0.00    +0.000 HD
BRANCH  23  25
ATOM     25  N   UNL     1       8.731   8.952  18.428  0.00  0.00    +0.000 NA
ATOM     26  C   UNL     1       9.082   9.739  19.396  0.00  0.00    +0.000 C 
BRANCH  26  27
ATOM     27  C   UNL     1       9.472  11.145  19.127  0.00  0.00    +0.000 A 
ATOM     28  C   UNL     1       9.450  11.643  17.815  0.00  0.00    +0.000 A 
ATOM     29  C   UNL     1       9.833  12.962  17.551  0.00  0.00    +0.000 A 
ATOM     30  C   UNL     1      10.246  13.776  18.602  0.00  0.00    +0.000 A 
ATOM     31  C   UNL     1      10.284  13.294  19.909  0.00  0.00    +0.000 A 
ATOM     32  C   UNL     1       9.894  11.978  20.168  0.00  0.00    +0.000 A 
BRANCH  30  33
ATOM     33  O   UNL     1      10.631  15.067  18.394  0.00  0.00    +0.000 OA
ATOM     34  H   UNL     1       9.975  15.660  18.798  0.00  0.00    +0.000 HD
ENDBRANCH  30  33
BRANCH  32  35
ATOM     35  O   UNL     1       9.936  11.502  21.450  0.00  0.00    +0.000 OA
ATOM     36  H   UNL     1      10.307  12.193  22.026  0.00  0.00    +0.000 HD
ENDBRANCH  32  35
ENDBRANCH  26  27
ENDBRANCH  23  25
ENDBRANCH  20  21
ENDBRANCH  19  20
ENDBRANCH   1  19
TORSDOF 13
ENDMDL
MODEL 7
REMARK VINA RESULT:      -6.9      1.283      8.423
REMARK  Name = 
REMARK  13 active torsions:
REMARK  status: ('A' for Active; 'I' for Inactive)
REMARK    1  A    between atoms: C_2  and  C_3
REMARK    2  A    between atoms: C_3  and  C_4
REMARK    3  A    between atoms: C_4  and  C_5
REMARK    4  A    between atoms: C_5  and  C_6
REMARK    5  A    between atoms: C_6  and  C_7
REMARK    6  A    between atoms: N_9  and  N_10
REMARK    7  A    between atoms: C_11  and  C_12
REMARK    8  A    between atoms: C_15  and  O_16
REMARK    9  A    between atoms: C_18  and  O_19
REMARK   10  A    between atoms: N_20  and  N_21
REMARK   11  A    between atoms: C_22  and  C_23
REMARK   12  A    between atoms: C_26  and  O_27
REMARK   13  A    between atoms: C_29  and  O_30
REMARK                            x       y       z     vdW  Elec       q    Type
REMARK                         _______ _______ _______ _____ _____    ______ ____
ROOT
ATOM      1  C   UNL     1       5.416   5.000  19.469  0.00  0.00    +0.000 C 
ENDROOT
BRANCH   1   2
ATOM      2  C   UNL     1       4.732   5.142  18.103  0.00  0.00    +0.000 C 
BRANCH   2   4
ATOM      3  O   UNL     1       4.062   7.194  17.051  0.00  0.00    +0.000 OA
ATOM      4  C   UNL     1       3.912   6.420  17.985  0.00  0.00    +0.000 C 
ATOM      5  N   UNL     1       2.991   6.591  19.007  0.00  0.00    +0.000 N 
ATOM      6  H   UNL     1       2.920   5.925  19.768  0.00  0.00    +0.000 HD
BRANCH   5   7
ATOM      7  N   UNL     1       2.169   7.689  19.022  0.00  0.00    +0.000 NA
ATOM      8  C   UNL     1       1.773   8.065  20.198  0.00  0.00    +0.000 C 
BRANCH   8   9
ATOM      9  C   UNL     1       0.896   9.238  20.392  0.00  0.00    +0.000 A 
ATOM     10  C   UNL     1       0.196   9.769  19.303  0.00  0.00    +0.000 A 
ATOM     11  C   UNL     1      -0.609  10.898  19.476  0.00  0.00    +0.000 A 
ATOM     12  C   UNL     1      -0.704  11.490  20.733  0.00  0.00    +0.000 A 
ATOM     13  C   UNL     1      -0.015  10.972  21.824  0.00  0.00    +0.000 A 
ATOM     14  C   UNL     1       0.784   9.839  21.653  0.00  0.00    +0.000 A 
BRANCH  12  15
ATOM     15  O   UNL     1      -1.469  12.601  20.943  0.00  0.00    +0.000 OA
ATOM     16  H   UNL     1      -2.128  12.408  21.631  0.00  0.00    +0.000 HD
ENDBRANCH  12  15
BRANCH  14  17
ATOM     17  O   UNL     1       1.467   9.320  22.719  0.00  0.00    +0.000 OA
ATOM     18  H   UNL     1       0.909   8.669  23.182  0.00  0.00    +0.000 HD
ENDBRANCH  14  17
ENDBRANCH   8   9
ENDBRANCH   5   7
ENDBRANCH   2   4
ENDBRANCH   1   2
BRANCH   1  19
ATOM     19  C   UNL     1       6.800   5.660  19.511  0.00  0.00    +0.000 C 
BRANCH  19  20
ATOM     20  C   UNL     1       7.485   5.792  18.141  0.00  0.00    +0.000 C 
BRANCH  20  21
ATOM     21  C   UNL     1       7.704   7.256  17.773  0.00  0.00    +0.000 C 
ATOM     22  O   UNL     1       7.197   7.751  16.766  0.00  0.00    +0.000 OA
ATOM     23  N   UNL     1       8.492   7.961  18.676  0.00  0.00    +0.000 N 
ATOM     24  H   UNL     1       8.938   7.514  19.468  0.00  0.00    +0.000 HD
BRANCH  23  25
ATOM     25  N   UNL     1       8.729   9.284  18.421  0.00  0.00    +0.000 NA
ATOM     26  C   UNL     1       9.210  10.010  19.381  0.00  0.00    +0.000 C 
BRANCH  26  27
ATOM     27  C   UNL     1       9.517  11.446  19.165  0.00  0.00    +0.000 A 
ATOM     28  C   UNL     1       9.349  12.019  17.895  0.00  0.00    +0.000 A 
ATOM     29  C   UNL     1       9.653  13.367  17.680  0.00  0.00    +0.000 A 
ATOM     30  C   UNL     1      10.133  14.135  18.737  0.00  0.00    +0.000 A 
ATOM     31  C   UNL     1      10.316  13.579  20.001  0.00  0.00    +0.000 A 
ATOM     32  C   UNL     1      10.005  12.235  20.213  0.00  0.00    +0.000 A 
BRANCH  30  33
ATOM     33  O   UNL     1      10.446  15.452  18.575  0.00  0.00    +0.000 OA
ATOM     34  H   UNL     1      10.212  15.933  19.387  0.00  0.00    +0.000 HD
ENDBRANCH  30  33
BRANCH  32  35
ATOM     35  O   UNL     1      10.189  11.685  21.452  0.00  0.00    +0.000 OA
ATOM     36  H   UNL     1      10.987  12.077  21.849  0.00  0.00    +0.000 HD
ENDBRANCH  32  35
ENDBRANCH  26  27
ENDBRANCH  23  25
ENDBRANCH  20  21
ENDBRANCH  19  20
ENDBRANCH   1  19
TORSDOF 13
ENDMDL
MODEL 8
REMARK VINA RESULT:      -6.9      1.447      8.551
REMARK  Name = 
REMARK  13 active torsions:
REMARK  status: ('A' for Active; 'I' for Inactive)
REMARK    1  A    between atoms: C_2  and  C_3
REMARK    2  A    between atoms: C_3  and  C_4
REMARK    3  A    between atoms: C_4  and  C_5
REMARK    4  A    between atoms: C_5  and  C_6
REMARK    5  A    between atoms: C_6  and  C_7
REMARK    6  A    between atoms: N_9  and  N_10
REMARK    7  A    between atoms: C_11  and  C_12
REMARK    8  A    between atoms: C_15  and  O_16
REMARK    9  A    between atoms: C_18  and  O_19
REMARK   10  A    between atoms: N_20  and  N_21
REMARK   11  A    between atoms: C_22  and  C_23
REMARK   12  A    between atoms: C_26  and  O_27
REMARK   13  A    between atoms: C_29  and  O_30
REMARK                            x       y       z     vdW  Elec       q    Type
REMARK                         _______ _______ _______ _____ _____    ______ ____
ROOT
ATOM      1  C   UNL     1       5.504   4.271  17.495  0.00  0.00    +0.000 C 
ENDROOT
BRANCH   1   2
ATOM      2  C   UNL     1       4.020   4.556  17.227  0.00  0.00    +0.000 C 
BRANCH   2   4
ATOM      3  O   UNL     1       3.052   4.357  19.414  0.00  0.00    +0.000 OA
ATOM      4  C   UNL     1       3.289   5.077  18.456  0.00  0.00    +0.000 C 
ATOM      5  N   UNL     1       2.953   6.420  18.381  0.00  0.00    +0.000 N 
ATOM      6  H   UNL     1       3.158   6.968  17.553  0.00  0.00    +0.000 HD
BRANCH   5   7
ATOM      7  N   UNL     1       2.305   7.032  19.423  0.00  0.00    +0.000 NA
ATOM      8  C   UNL     1       1.872   8.229  19.177  0.00  0.00    +0.000 C 
BRANCH   8   9
ATOM      9  C   UNL     1       1.141   9.021  20.187  0.00  0.00    +0.000 A 
ATOM     10  C   UNL     1       1.104   8.587  21.517  0.00  0.00    +0.000 A 
ATOM     11  C   UNL     1       0.386   9.316  22.469  0.00  0.00    +0.000 A 
ATOM     12  C   UNL     1      -0.293  10.469  22.084  0.00  0.00    +0.000 A 
ATOM     13  C   UNL     1      -0.264  10.912  20.766  0.00  0.00    +0.000 A 
ATOM     14  C   UNL     1       0.460  10.188  19.816  0.00  0.00    +0.000 A 
BRANCH  12  15
ATOM     15  O   UNL     1      -1.016  11.204  22.978  0.00  0.00    +0.000 OA
ATOM     16  H   UNL     1      -0.578  11.172  23.845  0.00  0.00    +0.000 HD
ENDBRANCH  12  15
BRANCH  14  17
ATOM     17  O   UNL     1       0.496  10.615  18.517  0.00  0.00    +0.000 OA
ATOM     18  H   UNL     1      -0.411  10.694  18.171  0.00  0.00    +0.000 HD
ENDBRANCH  14  17
ENDBRANCH   8   9
ENDBRANCH   5   7
ENDBRANCH   2   4
ENDBRANCH   1   2
BRANCH   1  19
ATOM     19  C   UNL     1       6.123   5.249  18.502  0.00  0.00    +0.000 C 
BRANCH  19  20
ATOM     20  C   UNL     1       7.606   5.571  18.250  0.00  0.00    +0.000 C 
BRANCH  20  21
ATOM     21  C   UNL     1       7.788   7.020  17.811  0.00  0.00    +0.000 C 
ATOM     22  O   UNL     1       7.384   7.418  16.718  0.00  0.00    +0.000 OA
ATOM     23  N   UNL     1       8.416   7.828  18.752  0.00  0.00    +0.000 N 
ATOM     24  H   UNL     1       8.784   7.460  19.621  0.00  0.00    +0.000 HD
BRANCH  23  25
ATOM     25  N   UNL     1       8.610   9.145  18.436  0.00  0.00    +0.000 NA
ATOM     26  C   UNL     1       9.340   9.859  19.235  0.00  0.00    +0.000 C 
BRANCH  26  27
ATOM     27  C   UNL     1       9.614  11.288  18.938  0.00  0.00    +0.000 A 
ATOM     28  C   UNL     1      10.208  11.652  17.719  0.00  0.00    +0.000 A 
ATOM     29  C   UNL     1      10.486  12.994  17.440  0.00  0.00    +0.000 A 
ATOM     30  C   UNL     1      10.175  13.966  18.386  0.00  0.00    +0.000 A 
ATOM     31  C   UNL     1       9.594  13.620  19.604  0.00  0.00    +0.000 A 
ATOM     32  C   UNL     1       9.313  12.280  19.876  0.00  0.00    +0.000 A 
BRANCH  30  33
ATOM     33  O   UNL     1      10.429  15.286  18.160  0.00  0.00    +0.000 OA
ATOM     34  H   UNL     1       9.629  15.703  17.795  0.00  0.00    +0.000 HD
ENDBRANCH  30  33
BRANCH  32  35
ATOM     35  O   UNL     1       8.748  11.938  21.075  0.00  0.00    +0.000 OA
ATOM     36  H   UNL     1       7.910  11.474  20.901  0.00  0.00    +0.000 HD
ENDBRANCH  32  35
ENDBRANCH  26  27
ENDBRANCH  23  25
ENDBRANCH  20  21
ENDBRANCH  19  20
ENDBRANCH   1  19
TORSDOF 13
ENDMDL
MODEL 9
REMARK VINA RESULT:      -6.9      1.456      8.114
REMARK  Name = 
REMARK  13 active torsions:
REMARK  status: ('A' for Active; 'I' for Inactive)
REMARK    1  A    between atoms: C_2  and  C_3
REMARK    2  A    between atoms: C_3  and  C_4
REMARK    3  A    between atoms: C_4  and  C_5
REMARK    4  A    between atoms: C_5  and  C_6
REMARK    5  A    between atoms: C_6  and  C_7
REMARK    6  A    between atoms: N_9  and  N_10
REMARK    7  A    between atoms: C_11  and  C_12
REMARK    8  A    between atoms: C_15  and  O_16
REMARK    9  A    between atoms: C_18  and  O_19
REMARK   10  A    between atoms: N_20  and  N_21
REMARK   11  A    between atoms: C_22  and  C_23
REMARK   12  A    between atoms: C_26  and  O_27
REMARK   13  A    between atoms: C_29  and  O_30
REMARK                            x       y       z     vdW  Elec       q    Type
REMARK                         _______ _______ _______ _____ _____    ______ ____
ROOT
ATOM      1  C   UNL     1       7.145   4.988  15.874  0.00  0.00    +0.000 C 
ENDROOT
BRANCH   1   2
ATOM      2  C   UNL     1       5.665   4.984  15.468  0.00  0.00    +0.000 C 
BRANCH   2   4
ATOM      3  O   UNL     1       4.989   7.238  14.992  0.00  0.00    +0.000 OA
ATOM      4  C   UNL     1       4.966   6.301  15.776  0.00  0.00    +0.000 C 
ATOM      5  N   UNL     1       4.303   6.313  16.994  0.00  0.00    +0.000 N 
ATOM      6  H   UNL     1       4.331   5.513  17.615  0.00  0.00    +0.000 HD
BRANCH   5   7
ATOM      7  N   UNL     1       3.613   7.428  17.397  0.00  0.00    +0.000 NA
ATOM      8  C   UNL     1       2.763   7.233  18.357  0.00  0.00    +0.000 C 
BRANCH   8   9
ATOM      9  C   UNL     1       1.950   8.332  18.918  0.00  0.00    +0.000 A 
ATOM     10  C   UNL     1       1.636   9.440  18.123  0.00  0.00    +0.000 A 
ATOM     11  C   UNL     1       0.895  10.496  18.660  0.00  0.00    +0.000 A 
ATOM     12  C   UNL     1       0.478  10.439  19.987  0.00  0.00    +0.000 A 
ATOM     13  C   UNL     1       0.782   9.343  20.788  0.00  0.00    +0.000 A 
ATOM     14  C   UNL     1       1.516   8.284  20.249  0.00  0.00    +0.000 A 
BRANCH  12  15
ATOM     15  O   UNL     1      -0.237  11.453  20.555  0.00  0.00    +0.000 OA
ATOM     16  H   UNL     1       0.247  11.791  21.327  0.00  0.00    +0.000 HD
ENDBRANCH  12  15
BRANCH  14  17
ATOM     17  O   UNL     1       1.821   7.201  21.027  0.00  0.00    +0.000 OA
ATOM     18  H   UNL     1       2.230   6.507  20.480  0.00  0.00    +0.000 HD
ENDBRANCH  14  17
ENDBRANCH   8   9
ENDBRANCH   5   7
ENDBRANCH   2   4
ENDBRANCH   1   2
BRANCH   1  19
ATOM     19  C   UNL     1       7.383   4.357  17.252  0.00  0.00    +0.000 C 
BRANCH  19  20
ATOM     20  C   UNL     1       6.830   5.174  18.432  0.00  0.00    +0.000 C 
BRANCH  20  21
ATOM     21  C   UNL     1       7.858   6.186  18.930  0.00  0.00    +0.000 C 
ATOM     22  O   UNL     1       8.619   5.926  19.862  0.00  0.00    +0.000 OA
ATOM     23  N   UNL     1       7.864   7.386  18.229  0.00  0.00    +0.000 N 
ATOM     24  H   UNL     1       7.191   7.590  17.501  0.00  0.00    +0.000 HD
BRANCH  23  25
ATOM     25  N   UNL     1       8.764   8.344  18.610  0.00  0.00    +0.000 NA
ATOM     26  C   UNL     1       8.490   9.580  18.330  0.00  0.00    +0.000 C 
BRANCH  26  27
ATOM     27  C   UNL     1       9.408  10.672  18.739  0.00  0.00    +0.000 A 
ATOM     28  C   UNL     1      10.049  11.455  17.766  0.00  0.00    +0.000 A 
ATOM     29  C   UNL     1      10.928  12.474  18.143  0.00  0.00    +0.000 A 
ATOM     30  C   UNL     1      11.169  12.701  19.495  0.00  0.00    +0.000 A 
ATOM     31  C   UNL     1      10.549  11.927  20.473  0.00  0.00    +0.000 A 
ATOM     32  C   UNL     1       9.667  10.914  20.092  0.00  0.00    +0.000 A 
BRANCH  30  33
ATOM     33  O   UNL     1      12.020  13.681  19.912  0.00  0.00    +0.000 OA
ATOM     34  H   UNL     1      11.572  14.541  19.835  0.00  0.00    +0.000 HD
ENDBRANCH  30  33
BRANCH  32  35
ATOM     35  O   UNL     1       9.061  10.148  21.051  0.00  0.00    +0.000 OA
ATOM     36  H   UNL     1       8.483  10.721  21.585  0.00  0.00    +0.000 HD
ENDBRANCH  32  35
ENDBRANCH  26  27
ENDBRANCH  23  25
ENDBRANCH  20  21
ENDBRANCH  19  20
ENDBRANCH   1  19
TORSDOF 13
ENDMDL
