MODEL 1
REMARK VINA RESULT:      -7.5      0.000      0.000
REMARK  Name = 
REMARK  7 active torsions:
REMARK  status: ('A' for Active; 'I' for Inactive)
REMARK    1  A    between atoms: C_3  and  O_4
REMARK    2  A    between atoms: C_5  and  C_6
REMARK    3  A    between atoms: C_6  and  S_7
REMARK    4  A    between atoms: C_6  and  C_15
REMARK    5  A    between atoms: S_7  and  C_8
REMARK    6  A    between atoms: C_11  and  O_12
REMARK    7  A    between atoms: C_18  and  N_19
REMARK                            x       y       z     vdW  Elec       q    Type
REMARK                         _______ _______ _______ _____ _____    ______ ____
ROOT
ATOM      1  C   UNL     1       0.062  11.604  18.683  0.00  0.00    +0.000 C 
ENDROOT
BRANCH   1   5
ATOM      2  O   UNL     1       1.306   8.646  22.358  0.00  0.00    +0.000 OA
ATOM      3  C   UNL     1       1.309   8.797  21.142  0.00  0.00    +0.000 C 
ATOM      4  C   UNL     1       0.691  10.028  20.563  0.00  0.00    +0.000 C 
ATOM      5  C   UNL     1       0.720  10.334  19.248  0.00  0.00    +0.000 C 
ATOM      6  C   UNL     1       1.604   9.451  18.433  0.00  0.00    +0.000 C 
ATOM      7  O   UNL     1       2.263   9.841  17.479  0.00  0.00    +0.000 OA
ATOM      8  C   UNL     1       1.824   8.059  18.859  0.00  0.00    +0.000 A 
ATOM      9  C   UNL     1       2.200   7.076  17.942  0.00  0.00    +0.000 A 
ATOM     10  C   UNL     1       2.589   5.816  18.398  0.00  0.00    +0.000 A 
ATOM     11  C   UNL     1       2.620   5.546  19.768  0.00  0.00    +0.000 A 
ATOM     12  C   UNL     1       2.213   6.522  20.682  0.00  0.00    +0.000 A 
ATOM     13  C   UNL     1       1.794   7.771  20.217  0.00  0.00    +0.000 A 
BRANCH   4  14
ATOM     14  O   UNL     1       0.056  10.846  21.486  0.00  0.00    +0.000 OA
ATOM     15  H   UNL     1      -0.905  10.762  21.293  0.00  0.00    +0.000 HD
ENDBRANCH   4  14
ENDBRANCH   1   5
BRANCH   1  16
ATOM     16  C   UNL     1       0.819  12.951  18.828  0.00  0.00    +0.000 A 
ATOM     17  C   UNL     1       2.214  13.047  18.992  0.00  0.00    +0.000 A 
ATOM     18  C   UNL     1       2.850  14.285  19.123  0.00  0.00    +0.000 A 
ATOM     19  C   UNL     1       2.092  15.460  19.117  0.00  0.00    +0.000 A 
ATOM     20  C   UNL     1       0.704  15.401  18.974  0.00  0.00    +0.000 A 
ATOM     21  C   UNL     1       0.082  14.158  18.816  0.00  0.00    +0.000 A 
BRANCH  19  22
ATOM     22  N   UNL     1       2.759  16.759  19.261  0.00  0.00    +0.000 N 
ATOM     23  O   UNL     1       3.205  17.293  18.235  0.00  0.00    +0.000 OA
ATOM     24  O   UNL     1       2.839  17.245  20.397  0.00  0.00    +0.000 OA
ENDBRANCH  19  22
ENDBRANCH   1  16
BRANCH   1  25
ATOM     25  S   UNL     1      -1.747  11.871  19.076  0.00  0.00    +0.000 S 
BRANCH  25  26
ATOM     26  C   UNL     1      -2.625  11.308  17.627  0.00  0.00    +0.000 A 
ATOM     27  C   UNL     1      -3.932  11.691  17.325  0.00  0.00    +0.000 A 
ATOM     28  C   UNL     1      -4.585  11.195  16.196  0.00  0.00    +0.000 A 
ATOM     29  C   UNL     1      -3.909  10.339  15.338  0.00  0.00    +0.000 A 
ATOM     30  C   UNL     1      -2.593   9.976  15.594  0.00  0.00    +0.000 A 
ATOM     31  C   UNL     1      -1.953  10.462  16.735  0.00  0.00    +0.000 A 
BRANCH  29  32
ATOM     32  O   UNL     1      -4.510   9.841  14.223  0.00  0.00    +0.000 OA
ATOM     33  H   UNL     1      -4.186   8.937  14.076  0.00  0.00    +0.000 HD
ENDBRANCH  29  32
ENDBRANCH  25  26
ENDBRANCH   1  25
TORSDOF 7
ENDMDL
MODEL 2
REMARK VINA RESULT:      -7.4      0.306      1.261
REMARK  Name = 
REMARK  7 active torsions:
REMARK  status: ('A' for Active; 'I' for Inactive)
REMARK    1  A    between atoms: C_3  and  O_4
REMARK    2  A    between atoms: C_5  and  C_6
REMARK    3  A    between atoms: C_6  and  S_7
REMARK    4  A    between atoms: C_6  and  C_15
REMARK    5  A    between atoms: S_7  and  C_8
REMARK    6  A    between atoms: C_11  and  O_12
REMARK    7  A    between atoms: C_18  and  N_19
REMARK                            x       y       z     vdW  Elec       q    Type
REMARK                         _______ _______ _______ _____ _____    ______ ____
ROOT
ATOM      1  C   UNL     1       0.066  11.684  18.745  0.00  0.00    +0.000 C 
ENDROOT
BRANCH   1   5
ATOM      2  O   UNL     1       1.260   8.609  22.339  0.00  0.00    +0.000 OA
ATOM      3  C   UNL     1       1.287   8.803  21.130  0.00  0.00    +0.000 C 
ATOM      4  C   UNL     1       0.670  10.048  20.581  0.00  0.00    +0.000 C 
ATOM      5  C   UNL     1       0.724  10.400  19.279  0.00  0.00    +0.000 C 
ATOM      6  C   UNL     1       1.634   9.554  18.452  0.00  0.00    +0.000 C 
ATOM      7  O   UNL     1       2.309   9.984  17.527  0.00  0.00    +0.000 OA
ATOM      8  C   UNL     1       1.858   8.150  18.834  0.00  0.00    +0.000 A 
ATOM      9  C   UNL     1       2.263   7.204  17.891  0.00  0.00    +0.000 A 
ATOM     10  C   UNL     1       2.654   5.931  18.311  0.00  0.00    +0.000 A 
ATOM     11  C   UNL     1       2.658   5.614  19.671  0.00  0.00    +0.000 A 
ATOM     12  C   UNL     1       2.223   6.553  20.609  0.00  0.00    +0.000 A 
ATOM     13  C   UNL     1       1.802   7.814  20.180  0.00  0.00    +0.000 A 
BRANCH   4  14
ATOM     14  O   UNL     1       0.008  10.827  21.518  0.00  0.00    +0.000 OA
ATOM     15  H   UNL     1      -0.919  10.498  21.525  0.00  0.00    +0.000 HD
ENDBRANCH   4  14
ENDBRANCH   1   5
BRANCH   1  16
ATOM     16  C   UNL     1       0.779  13.038  19.004  0.00  0.00    +0.000 A 
ATOM     17  C   UNL     1       0.126  14.284  18.951  0.00  0.00    +0.000 A 
ATOM     18  C   UNL     1       0.814  15.479  19.188  0.00  0.00    +0.000 A 
ATOM     19  C   UNL     1       2.185  15.449  19.460  0.00  0.00    +0.000 A 
ATOM     20  C   UNL     1       2.868  14.232  19.502  0.00  0.00    +0.000 A 
ATOM     21  C   UNL     1       2.164  13.042  19.291  0.00  0.00    +0.000 A 
BRANCH  19  22
ATOM     22  N   UNL     1       2.908  16.704  19.701  0.00  0.00    +0.000 N 
ATOM     23  O   UNL     1       2.681  17.654  18.939  0.00  0.00    +0.000 OA
ATOM     24  O   UNL     1       3.701  16.740  20.652  0.00  0.00    +0.000 OA
ENDBRANCH  19  22
ENDBRANCH   1  16
BRANCH   1  25
ATOM     25  S   UNL     1      -1.768  11.888  19.047  0.00  0.00    +0.000 S 
BRANCH  25  26
ATOM     26  C   UNL     1      -2.555  11.236  17.583  0.00  0.00    +0.000 A 
ATOM     27  C   UNL     1      -1.948  10.310  16.734  0.00  0.00    +0.000 A 
ATOM     28  C   UNL     1      -2.594   9.858  15.582  0.00  0.00    +0.000 A 
ATOM     29  C   UNL     1      -3.876  10.305  15.300  0.00  0.00    +0.000 A 
ATOM     30  C   UNL     1      -4.519  11.195  16.151  0.00  0.00    +0.000 A 
ATOM     31  C   UNL     1      -3.859  11.657  17.291  0.00  0.00    +0.000 A 
BRANCH  29  32
ATOM     32  O   UNL     1      -4.542   9.880  14.191  0.00  0.00    +0.000 OA
ATOM     33  H   UNL     1      -3.917   9.857  13.447  0.00  0.00    +0.000 HD
ENDBRANCH  29  32
ENDBRANCH  25  26
ENDBRANCH   1  25
TORSDOF 7
ENDMDL
MODEL 3
REMARK VINA RESULT:      -7.4      6.838     10.096
REMARK  Name = 
REMARK  7 active torsions:
REMARK  status: ('A' for Active; 'I' for Inactive)
REMARK    1  A    between atoms: C_3  and  O_4
REMARK    2  A    between atoms: C_5  and  C_6
REMARK    3  A    between atoms: C_6  and  S_7
REMARK    4  A    between atoms: C_6  and  C_15
REMARK    5  A    between atoms: S_7  and  C_8
REMARK    6  A    between atoms: C_11  and  O_12
REMARK    7  A    between atoms: C_18  and  N_19
REMARK                            x       y       z     vdW  Elec       q    Type
REMARK                         _______ _______ _______ _____ _____    ______ ____
ROOT
ATOM      1  C   UNL     1       5.880   6.075  17.312  0.00  0.00    +0.000 C 
ENDROOT
BRANCH   1   5
ATOM      2  O   UNL     1       1.775   7.242  19.675  0.00  0.00    +0.000 OA
ATOM      3  C   UNL     1       2.567   6.344  19.417  0.00  0.00    +0.000 C 
ATOM      4  C   UNL     1       3.729   6.636  18.523  0.00  0.00    +0.000 C 
ATOM      5  C   UNL     1       4.705   5.746  18.248  0.00  0.00    +0.000 C 
ATOM      6  C   UNL     1       4.653   4.504  19.074  0.00  0.00    +0.000 C 
ATOM      7  O   UNL     1       5.645   3.907  19.468  0.00  0.00    +0.000 OA
ATOM      8  C   UNL     1       3.354   4.025  19.575  0.00  0.00    +0.000 A 
ATOM      9  C   UNL     1       3.161   2.682  19.904  0.00  0.00    +0.000 A 
ATOM     10  C   UNL     1       1.990   2.291  20.555  0.00  0.00    +0.000 A 
ATOM     11  C   UNL     1       1.026   3.242  20.894  0.00  0.00    +0.000 A 
ATOM     12  C   UNL     1       1.208   4.581  20.536  0.00  0.00    +0.000 A 
ATOM     13  C   UNL     1       2.368   4.961  19.856  0.00  0.00    +0.000 A 
BRANCH   4  14
ATOM     14  O   UNL     1       3.727   7.908  17.970  0.00  0.00    +0.000 OA
ATOM     15  H   UNL     1       3.035   8.406  18.461  0.00  0.00    +0.000 HD
ENDBRANCH   4  14
ENDBRANCH   1   5
BRANCH   1  16
ATOM     16  C   UNL     1       5.974   5.326  15.957  0.00  0.00    +0.000 A 
ATOM     17  C   UNL     1       5.000   4.417  15.500  0.00  0.00    +0.000 A 
ATOM     18  C   UNL     1       5.131   3.763  14.271  0.00  0.00    +0.000 A 
ATOM     19  C   UNL     1       6.263   3.988  13.481  0.00  0.00    +0.000 A 
ATOM     20  C   UNL     1       7.257   4.869  13.911  0.00  0.00    +0.000 A 
ATOM     21  C   UNL     1       7.101   5.540  15.129  0.00  0.00    +0.000 A 
BRANCH  19  22
ATOM     22  N   UNL     1       6.404   3.296  12.195  0.00  0.00    +0.000 N 
ATOM     23  O   UNL     1       7.461   3.456  11.569  0.00  0.00    +0.000 OA
ATOM     24  O   UNL     1       5.459   2.593  11.810  0.00  0.00    +0.000 OA
ENDBRANCH  19  22
ENDBRANCH   1  16
BRANCH   1  25
ATOM     25  S   UNL     1       7.582   6.164  18.084  0.00  0.00    +0.000 S 
BRANCH  25  26
ATOM     26  C   UNL     1       7.974   7.904  18.145  0.00  0.00    +0.000 A 
ATOM     27  C   UNL     1       7.397   8.851  17.297  0.00  0.00    +0.000 A 
ATOM     28  C   UNL     1       7.765  10.195  17.363  0.00  0.00    +0.000 A 
ATOM     29  C   UNL     1       8.688  10.603  18.315  0.00  0.00    +0.000 A 
ATOM     30  C   UNL     1       9.245   9.688  19.199  0.00  0.00    +0.000 A 
ATOM     31  C   UNL     1       8.886   8.342  19.114  0.00  0.00    +0.000 A 
BRANCH  29  32
ATOM     32  O   UNL     1       9.064  11.908  18.416  0.00  0.00    +0.000 OA
ATOM     33  H   UNL     1       9.879  12.034  17.902  0.00  0.00    +0.000 HD
ENDBRANCH  29  32
ENDBRANCH  25  26
ENDBRANCH   1  25
TORSDOF 7
ENDMDL
MODEL 4
REMARK VINA RESULT:      -7.4      2.761      7.275
REMARK  Name = 
REMARK  7 active torsions:
REMARK  status: ('A' for Active; 'I' for Inactive)
REMARK    1  A    between atoms: C_3  and  O_4
REMARK    2  A    between atoms: C_5  and  C_6
REMARK    3  A    between atoms: C_6  and  S_7
REMARK    4  A    between atoms: C_6  and  C_15
REMARK    5  A    between atoms: S_7  and  C_8
REMARK    6  A    between atoms: C_11  and  O_12
REMARK    7  A    between atoms: C_18  and  N_19
REMARK                            x       y       z     vdW  Elec       q    Type
REMARK                         _______ _______ _______ _____ _____    ______ ____
ROOT
ATOM      1  C   UNL     1       0.549  10.783  19.025  0.00  0.00    +0.000 C 
ENDROOT
BRANCH   1   5
ATOM      2  O   UNL     1       3.888  14.215  18.090  0.00  0.00    +0.000 OA
ATOM      3  C   UNL     1       2.986  13.866  18.843  0.00  0.00    +0.000 C 
ATOM      4  C   UNL     1       2.247  12.600  18.551  0.00  0.00    +0.000 C 
ATOM      5  C   UNL     1       1.300  12.082  19.362  0.00  0.00    +0.000 C 
ATOM      6  C   UNL     1       1.191  12.758  20.687  0.00  0.00    +0.000 C 
ATOM      7  O   UNL     1       0.933  12.174  21.730  0.00  0.00    +0.000 OA
ATOM      8  C   UNL     1       1.542  14.184  20.801  0.00  0.00    +0.000 A 
ATOM      9  C   UNL     1       1.016  14.975  21.824  0.00  0.00    +0.000 A 
ATOM     10  C   UNL     1       1.510  16.265  22.025  0.00  0.00    +0.000 A 
ATOM     11  C   UNL     1       2.541  16.753  21.219  0.00  0.00    +0.000 A 
ATOM     12  C   UNL     1       3.043  15.970  20.176  0.00  0.00    +0.000 A 
ATOM     13  C   UNL     1       2.522  14.692  19.960  0.00  0.00    +0.000 A 
BRANCH   4  14
ATOM     14  O   UNL     1       2.596  11.989  17.356  0.00  0.00    +0.000 OA
ATOM     15  H   UNL     1       2.485  12.682  16.666  0.00  0.00    +0.000 HD
ENDBRANCH   4  14
ENDBRANCH   1   5
BRANCH   1  16
ATOM     16  C   UNL     1      -0.952  10.880  18.643  0.00  0.00    +0.000 A 
ATOM     17  C   UNL     1      -1.541  10.136  17.603  0.00  0.00    +0.000 A 
ATOM     18  C   UNL     1      -2.899  10.262  17.294  0.00  0.00    +0.000 A 
ATOM     19  C   UNL     1      -3.695  11.160  18.011  0.00  0.00    +0.000 A 
ATOM     20  C   UNL     1      -3.140  11.927  19.038  0.00  0.00    +0.000 A 
ATOM     21  C   UNL     1      -1.786  11.772  19.357  0.00  0.00    +0.000 A 
BRANCH  19  22
ATOM     22  N   UNL     1      -5.118  11.296  17.683  0.00  0.00    +0.000 N 
ATOM     23  O   UNL     1      -5.427  12.089  16.781  0.00  0.00    +0.000 OA
ATOM     24  O   UNL     1      -5.928  10.613  18.324  0.00  0.00    +0.000 OA
ENDBRANCH  19  22
ENDBRANCH   1  16
BRANCH   1  25
ATOM     25  S   UNL     1       0.797   9.333  20.180  0.00  0.00    +0.000 S 
BRANCH  25  26
ATOM     26  C   UNL     1       1.882   8.220  19.301  0.00  0.00    +0.000 A 
ATOM     27  C   UNL     1       2.438   8.514  18.056  0.00  0.00    +0.000 A 
ATOM     28  C   UNL     1       3.253   7.594  17.396  0.00  0.00    +0.000 A 
ATOM     29  C   UNL     1       3.549   6.384  18.007  0.00  0.00    +0.000 A 
ATOM     30  C   UNL     1       3.043   6.085  19.265  0.00  0.00    +0.000 A 
ATOM     31  C   UNL     1       2.213   7.003  19.910  0.00  0.00    +0.000 A 
BRANCH  29  32
ATOM     32  O   UNL     1       4.348   5.466  17.398  0.00  0.00    +0.000 OA
ATOM     33  H   UNL     1       3.896   5.145  16.600  0.00  0.00    +0.000 HD
ENDBRANCH  29  32
ENDBRANCH  25  26
ENDBRANCH   1  25
TORSDOF 7
ENDMDL
MODEL 5
REMARK VINA RESULT:      -7.4      2.716      7.356
REMARK  Name = 
REMARK  7 active torsions:
REMARK  status: ('A' for Active; 'I' for Inactive)
REMARK    1  A    between atoms: C_3  and  O_4
REMARK    2  A    between atoms: C_5  and  C_6
REMARK    3  A    between atoms: C_6  and  S_7
REMARK    4  A    between atoms: C_6  and  C_15
REMARK    5  A    between atoms: S_7  and  C_8
REMARK    6  A    between atoms: C_11  and  O_12
REMARK    7  A    between atoms: C_18  and  N_19
REMARK                            x       y       z     vdW  Elec       q    Type
REMARK                         _______ _______ _______ _____ _____    ______ ____
ROOT
ATOM      1  C   UNL     1       0.462  11.126  19.203  0.00  0.00    +0.000 C 
ENDROOT
BRANCH   1   5
ATOM      2  O   UNL     1       3.939  14.322  17.980  0.00  0.00    +0.000 OA
ATOM      3  C   UNL     1       2.994  14.100  18.727  0.00  0.00    +0.000 C 
ATOM      4  C   UNL     1       2.232  12.823  18.573  0.00  0.00    +0.000 C 
ATOM      5  C   UNL     1       1.235  12.441  19.399  0.00  0.00    +0.000 C 
ATOM      6  C   UNL     1       1.085  13.293  20.614  0.00  0.00    +0.000 C 
ATOM      7  O   UNL     1       0.764  12.861  21.713  0.00  0.00    +0.000 OA
ATOM      8  C   UNL     1       1.472  14.713  20.553  0.00  0.00    +0.000 A 
ATOM      9  C   UNL     1       0.924  15.647  21.433  0.00  0.00    +0.000 A 
ATOM     10  C   UNL     1       1.446  16.940  21.483  0.00  0.00    +0.000 A 
ATOM     11  C   UNL     1       2.525  17.291  20.670  0.00  0.00    +0.000 A 
ATOM     12  C   UNL     1       3.052  16.363  19.767  0.00  0.00    +0.000 A 
ATOM     13  C   UNL     1       2.504  15.080  19.699  0.00  0.00    +0.000 A 
BRANCH   4  14
ATOM     14  O   UNL     1       2.616  12.048  17.489  0.00  0.00    +0.000 OA
ATOM     15  H   UNL     1       3.363  11.496  17.814  0.00  0.00    +0.000 HD
ENDBRANCH   4  14
ENDBRANCH   1   5
BRANCH   1  16
ATOM     16  C   UNL     1      -1.047  11.205  18.853  0.00  0.00    +0.000 A 
ATOM     17  C   UNL     1      -1.949  12.083  19.485  0.00  0.00    +0.000 A 
ATOM     18  C   UNL     1      -3.303  12.114  19.136  0.00  0.00    +0.000 A 
ATOM     19  C   UNL     1      -3.789  11.241  18.159  0.00  0.00    +0.000 A 
ATOM     20  C   UNL     1      -2.927  10.345  17.524  0.00  0.00    +0.000 A 
ATOM     21  C   UNL     1      -1.569  10.342  17.860  0.00  0.00    +0.000 A 
BRANCH  19  22
ATOM     22  N   UNL     1      -5.211  11.269  17.798  0.00  0.00    +0.000 N 
ATOM     23  O   UNL     1      -5.562  12.051  16.903  0.00  0.00    +0.000 OA
ATOM     24  O   UNL     1      -5.977  10.512  18.409  0.00  0.00    +0.000 OA
ENDBRANCH  19  22
ENDBRANCH   1  16
BRANCH   1  25
ATOM     25  S   UNL     1       0.727   9.786  20.481  0.00  0.00    +0.000 S 
BRANCH  25  26
ATOM     26  C   UNL     1       1.639   8.508  19.632  0.00  0.00    +0.000 A 
ATOM     27  C   UNL     1       1.950   7.276  20.208  0.00  0.00    +0.000 A 
ATOM     28  C   UNL     1       2.696   6.324  19.512  0.00  0.00    +0.000 A 
ATOM     29  C   UNL     1       3.098   6.590  18.211  0.00  0.00    +0.000 A 
ATOM     30  C   UNL     1       2.765   7.792  17.600  0.00  0.00    +0.000 A 
ATOM     31  C   UNL     1       2.034   8.747  18.310  0.00  0.00    +0.000 A 
BRANCH  29  32
ATOM     32  O   UNL     1       3.819   5.682  17.498  0.00  0.00    +0.000 OA
ATOM     33  H   UNL     1       4.617   6.121  17.158  0.00  0.00    +0.000 HD
ENDBRANCH  29  32
ENDBRANCH  25  26
ENDBRANCH   1  25
TORSDOF 7
ENDMDL
MODEL 6
REMARK VINA RESULT:      -7.4      6.831     10.080
REMARK  Name = 
REMARK  7 active torsions:
REMARK  status: ('A' for Active; 'I' for Inactive)
REMARK    1  A    between atoms: C_3  and  O_4
REMARK    2  A    between atoms: C_5  and  C_6
REMARK    3  A    between atoms: C_6  and  S_7
REMARK    4  A    between atoms: C_6  and  C_15
REMARK    5  A    between atoms: S_7  and  C_8
REMARK    6  A    between atoms: C_11  and  O_12
REMARK    7  A    between atoms: C_18  and  N_19
REMARK                            x       y       z     vdW  Elec       q    Type
REMARK                         _______ _______ _______ _____ _____    ______ ____
ROOT
ATOM      1  C   UNL     1       5.923   6.102  17.304  0.00  0.00    +0.000 C 
ENDROOT
BRANCH   1   5
ATOM      2  O   UNL     1       1.778   7.244  19.609  0.00  0.00    +0.000 OA
ATOM      3  C   UNL     1       2.585   6.353  19.371  0.00  0.00    +0.000 C 
ATOM      4  C   UNL     1       3.751   6.649  18.485  0.00  0.00    +0.000 C 
ATOM      5  C   UNL     1       4.743   5.769  18.232  0.00  0.00    +0.000 C 
ATOM      6  C   UNL     1       4.701   4.539  19.076  0.00  0.00    +0.000 C 
ATOM      7  O   UNL     1       5.697   3.962  19.487  0.00  0.00    +0.000 OA
ATOM      8  C   UNL     1       3.404   4.048  19.571  0.00  0.00    +0.000 A 
ATOM      9  C   UNL     1       3.226   2.708  19.917  0.00  0.00    +0.000 A 
ATOM     10  C   UNL     1       2.055   2.309  20.562  0.00  0.00    +0.000 A 
ATOM     11  C   UNL     1       1.074   3.251  20.879  0.00  0.00    +0.000 A 
ATOM     12  C   UNL     1       1.241   4.587  20.503  0.00  0.00    +0.000 A 
ATOM     13  C   UNL     1       2.402   4.974  19.829  0.00  0.00    +0.000 A 
BRANCH   4  14
ATOM     14  O   UNL     1       3.737   7.913  17.913  0.00  0.00    +0.000 OA
ATOM     15  H   UNL     1       3.323   7.795  17.029  0.00  0.00    +0.000 HD
ENDBRANCH   4  14
ENDBRANCH   1   5
BRANCH   1  16
ATOM     16  C   UNL     1       6.029   5.350  15.950  0.00  0.00    +0.000 A 
ATOM     17  C   UNL     1       7.106   5.502  15.057  0.00  0.00    +0.000 A 
ATOM     18  C   UNL     1       7.154   4.804  13.846  0.00  0.00    +0.000 A 
ATOM     19  C   UNL     1       6.103   3.954  13.492  0.00  0.00    +0.000 A 
ATOM     20  C   UNL     1       5.009   3.793  14.345  0.00  0.00    +0.000 A 
ATOM     21  C   UNL     1       4.986   4.474  15.567  0.00  0.00    +0.000 A 
BRANCH  19  22
ATOM     22  N   UNL     1       6.150   3.227  12.217  0.00  0.00    +0.000 N 
ATOM     23  O   UNL     1       5.071   2.921  11.691  0.00  0.00    +0.000 OA
ATOM     24  O   UNL     1       7.263   2.963  11.744  0.00  0.00    +0.000 OA
ENDBRANCH  19  22
ENDBRANCH   1  16
BRANCH   1  25
ATOM     25  S   UNL     1       7.619   6.201  18.086  0.00  0.00    +0.000 S 
BRANCH  25  26
ATOM     26  C   UNL     1       8.000   7.943  18.149  0.00  0.00    +0.000 A 
ATOM     27  C   UNL     1       7.417   8.888  17.304  0.00  0.00    +0.000 A 
ATOM     28  C   UNL     1       7.776  10.234  17.372  0.00  0.00    +0.000 A 
ATOM     29  C   UNL     1       8.698  10.647  18.323  0.00  0.00    +0.000 A 
ATOM     30  C   UNL     1       9.262   9.734  19.204  0.00  0.00    +0.000 A 
ATOM     31  C   UNL     1       8.911   8.385  19.117  0.00  0.00    +0.000 A 
BRANCH  29  32
ATOM     32  O   UNL     1       9.066  11.953  18.426  0.00  0.00    +0.000 OA
ATOM     33  H   UNL     1       9.982  12.041  18.113  0.00  0.00    +0.000 HD
ENDBRANCH  29  32
ENDBRANCH  25  26
ENDBRANCH   1  25
TORSDOF 7
ENDMDL
MODEL 7
REMARK VINA RESULT:      -7.4      4.423      8.330
REMARK  Name = 
REMARK  7 active torsions:
REMARK  status: ('A' for Active; 'I' for Inactive)
REMARK    1  A    between atoms: C_3  and  O_4
REMARK    2  A    between atoms: C_5  and  C_6
REMARK    3  A    between atoms: C_6  and  S_7
REMARK    4  A    between atoms: C_6  and  C_15
REMARK    5  A    between atoms: S_7  and  C_8
REMARK    6  A    between atoms: C_11  and  O_12
REMARK    7  A    between atoms: C_18  and  N_19
REMARK                            x       y       z     vdW  Elec       q    Type
REMARK                         _______ _______ _______ _____ _____    ______ ____
ROOT
ATOM      1  C   UNL     1       2.405   6.683  19.762  0.00  0.00    +0.000 C 
ENDROOT
BRANCH   1   5
ATOM      2  O   UNL     1       0.449  10.450  22.165  0.00  0.00    +0.000 OA
ATOM      3  C   UNL     1       0.965  10.084  21.116  0.00  0.00    +0.000 C 
ATOM      4  C   UNL     1       1.428   8.669  20.991  0.00  0.00    +0.000 C 
ATOM      5  C   UNL     1       1.925   8.141  19.852  0.00  0.00    +0.000 C 
ATOM      6  C   UNL     1       1.783   9.021  18.655  0.00  0.00    +0.000 C 
ATOM      7  O   UNL     1       1.558   8.605  17.527  0.00  0.00    +0.000 OA
ATOM      8  C   UNL     1       1.770  10.483  18.832  0.00  0.00    +0.000 A 
ATOM      9  C   UNL     1       2.133  11.337  17.789  0.00  0.00    +0.000 A 
ATOM     10  C   UNL     1       1.928  12.712  17.918  0.00  0.00    +0.000 A 
ATOM     11  C   UNL     1       1.345  13.227  19.077  0.00  0.00    +0.000 A 
ATOM     12  C   UNL     1       1.012  12.373  20.132  0.00  0.00    +0.000 A 
ATOM     13  C   UNL     1       1.249  11.001  20.010  0.00  0.00    +0.000 A 
BRANCH   4  14
ATOM     14  O   UNL     1       1.325   7.922  22.155  0.00  0.00    +0.000 OA
ATOM     15  H   UNL     1       1.244   6.987  21.860  0.00  0.00    +0.000 HD
ENDBRANCH   4  14
ENDBRANCH   1   5
BRANCH   1  16
ATOM     16  C   UNL     1       3.674   6.377  18.923  0.00  0.00    +0.000 A 
ATOM     17  C   UNL     1       3.831   6.763  17.578  0.00  0.00    +0.000 A 
ATOM     18  C   UNL     1       4.994   6.460  16.862  0.00  0.00    +0.000 A 
ATOM     19  C   UNL     1       6.020   5.737  17.478  0.00  0.00    +0.000 A 
ATOM     20  C   UNL     1       5.891   5.323  18.805  0.00  0.00    +0.000 A 
ATOM     21  C   UNL     1       4.735   5.656  19.520  0.00  0.00    +0.000 A 
BRANCH  19  22
ATOM     22  N   UNL     1       7.237   5.414  16.724  0.00  0.00    +0.000 N 
ATOM     23  O   UNL     1       7.931   4.471  17.131  0.00  0.00    +0.000 OA
ATOM     24  O   UNL     1       7.500   6.101  15.728  0.00  0.00    +0.000 OA
ENDBRANCH  19  22
ENDBRANCH   1  16
BRANCH   1  25
ATOM     25  S   UNL     1       1.109   5.381  19.410  0.00  0.00    +0.000 S 
BRANCH  25  26
ATOM     26  C   UNL     1       2.027   3.874  19.137  0.00  0.00    +0.000 A 
ATOM     27  C   UNL     1       2.588   3.121  20.169  0.00  0.00    +0.000 A 
ATOM     28  C   UNL     1       3.327   1.968  19.899  0.00  0.00    +0.000 A 
ATOM     29  C   UNL     1       3.468   1.541  18.586  0.00  0.00    +0.000 A 
ATOM     30  C   UNL     1       2.883   2.249  17.545  0.00  0.00    +0.000 A 
ATOM     31  C   UNL     1       2.162   3.412  17.822  0.00  0.00    +0.000 A 
BRANCH  29  32
ATOM     32  O   UNL     1       4.173   0.416  18.284  0.00  0.00    +0.000 OA
ATOM     33  H   UNL     1       3.939   0.138  17.383  0.00  0.00    +0.000 HD
ENDBRANCH  29  32
ENDBRANCH  25  26
ENDBRANCH   1  25
TORSDOF 7
ENDMDL
MODEL 8
REMARK VINA RESULT:      -7.3      2.734      7.358
REMARK  Name = 
REMARK  7 active torsions:
REMARK  status: ('A' for Active; 'I' for Inactive)
REMARK    1  A    between atoms: C_3  and  O_4
REMARK    2  A    between atoms: C_5  and  C_6
REMARK    3  A    between atoms: C_6  and  S_7
REMARK    4  A    between atoms: C_6  and  C_15
REMARK    5  A    between atoms: S_7  and  C_8
REMARK    6  A    between atoms: C_11  and  O_12
REMARK    7  A    between atoms: C_18  and  N_19
REMARK                            x       y       z     vdW  Elec       q    Type
REMARK                         _______ _______ _______ _____ _____    ______ ____
ROOT
ATOM      1  C   UNL     1       0.478  11.070  19.152  0.00  0.00    +0.000 C 
ENDROOT
BRANCH   1   5
ATOM      2  O   UNL     1       3.959  14.298  18.030  0.00  0.00    +0.000 OA
ATOM      3  C   UNL     1       3.021  14.048  18.778  0.00  0.00    +0.000 C 
ATOM      4  C   UNL     1       2.250  12.784  18.576  0.00  0.00    +0.000 C 
ATOM      5  C   UNL     1       1.261  12.371  19.397  0.00  0.00    +0.000 C 
ATOM      6  C   UNL     1       1.130  13.170  20.650  0.00  0.00    +0.000 C 
ATOM      7  O   UNL     1       0.820  12.691  21.733  0.00  0.00    +0.000 OA
ATOM      8  C   UNL     1       1.525  14.588  20.647  0.00  0.00    +0.000 A 
ATOM      9  C   UNL     1       0.993  15.486  21.574  0.00  0.00    +0.000 A 
ATOM     10  C   UNL     1       1.524  16.773  21.675  0.00  0.00    +0.000 A 
ATOM     11  C   UNL     1       2.596  17.153  20.865  0.00  0.00    +0.000 A 
ATOM     12  C   UNL     1       3.106  16.263  19.916  0.00  0.00    +0.000 A 
ATOM     13  C   UNL     1       2.549  14.987  19.798  0.00  0.00    +0.000 A 
BRANCH   4  14
ATOM     14  O   UNL     1       2.617  12.055  17.455  0.00  0.00    +0.000 OA
ATOM     15  H   UNL     1       2.710  12.716  16.732  0.00  0.00    +0.000 HD
ENDBRANCH   4  14
ENDBRANCH   1   5
BRANCH   1  16
ATOM     16  C   UNL     1      -1.033  11.174  18.811  0.00  0.00    +0.000 A 
ATOM     17  C   UNL     1      -1.927  12.027  19.486  0.00  0.00    +0.000 A 
ATOM     18  C   UNL     1      -3.282  12.082  19.143  0.00  0.00    +0.000 A 
ATOM     19  C   UNL     1      -3.776  11.258  18.127  0.00  0.00    +0.000 A 
ATOM     20  C   UNL     1      -2.921  10.387  17.449  0.00  0.00    +0.000 A 
ATOM     21  C   UNL     1      -1.562  10.362  17.781  0.00  0.00    +0.000 A 
BRANCH  19  22
ATOM     22  N   UNL     1      -5.199  11.311  17.773  0.00  0.00    +0.000 N 
ATOM     23  O   UNL     1      -5.977  10.588  18.412  0.00  0.00    +0.000 OA
ATOM     24  O   UNL     1      -5.539  12.073  16.858  0.00  0.00    +0.000 OA
ENDBRANCH  19  22
ENDBRANCH   1  16
BRANCH   1  25
ATOM     25  S   UNL     1       0.736   9.679  20.376  0.00  0.00    +0.000 S 
BRANCH  25  26
ATOM     26  C   UNL     1       1.710   8.467  19.501  0.00  0.00    +0.000 A 
ATOM     27  C   UNL     1       2.223   8.673  18.220  0.00  0.00    +0.000 A 
ATOM     28  C   UNL     1       2.950   7.678  17.566  0.00  0.00    +0.000 A 
ATOM     29  C   UNL     1       3.203   6.479  18.217  0.00  0.00    +0.000 A 
ATOM     30  C   UNL     1       2.740   6.264  19.509  0.00  0.00    +0.000 A 
ATOM     31  C   UNL     1       1.997   7.258  20.149  0.00  0.00    +0.000 A 
BRANCH  29  32
ATOM     32  O   UNL     1       3.917   5.488  17.615  0.00  0.00    +0.000 OA
ATOM     33  H   UNL     1       4.857   5.618  17.821  0.00  0.00    +0.000 HD
ENDBRANCH  29  32
ENDBRANCH  25  26
ENDBRANCH   1  25
TORSDOF 7
ENDMDL
MODEL 9
REMARK VINA RESULT:      -7.2      4.444      8.380
REMARK  Name = 
REMARK  7 active torsions:
REMARK  status: ('A' for Active; 'I' for Inactive)
REMARK    1  A    between atoms: C_3  and  O_4
REMARK    2  A    between atoms: C_5  and  C_6
REMARK    3  A    between atoms: C_6  and  S_7
REMARK    4  A    between atoms: C_6  and  C_15
REMARK    5  A    between atoms: S_7  and  C_8
REMARK    6  A    between atoms: C_11  and  O_12
REMARK    7  A    between atoms: C_18  and  N_19
REMARK                            x       y       z     vdW  Elec       q    Type
REMARK                         _______ _______ _______ _____ _____    ______ ____
ROOT
ATOM      1  C   UNL     1       2.456   6.629  19.690  0.00  0.00    +0.000 C 
ENDROOT
BRANCH   1   5
ATOM      2  O   UNL     1       0.203  10.331  21.930  0.00  0.00    +0.000 OA
ATOM      3  C   UNL     1       0.828   9.988  20.934  0.00  0.00    +0.000 C 
ATOM      4  C   UNL     1       1.326   8.582  20.839  0.00  0.00    +0.000 C 
ATOM      5  C   UNL     1       1.944   8.078  19.750  0.00  0.00    +0.000 C 
ATOM      6  C   UNL     1       1.909   8.973  18.556  0.00  0.00    +0.000 C 
ATOM      7  O   UNL     1       1.807   8.569  17.406  0.00  0.00    +0.000 OA
ATOM      8  C   UNL     1       1.854  10.431  18.749  0.00  0.00    +0.000 A 
ATOM      9  C   UNL     1       2.304  11.306  17.758  0.00  0.00    +0.000 A 
ATOM     10  C   UNL     1       2.064  12.675  17.883  0.00  0.00    +0.000 A 
ATOM     11  C   UNL     1       1.358  13.165  18.983  0.00  0.00    +0.000 A 
ATOM     12  C   UNL     1       0.936  12.291  19.988  0.00  0.00    +0.000 A 
ATOM     13  C   UNL     1       1.207  10.925  19.874  0.00  0.00    +0.000 A 
BRANCH   4  14
ATOM     14  O   UNL     1       1.119   7.817  21.977  0.00  0.00    +0.000 OA
ATOM     15  H   UNL     1       0.220   8.059  22.295  0.00  0.00    +0.000 HD
ENDBRANCH   4  14
ENDBRANCH   1   5
BRANCH   1  16
ATOM     16  C   UNL     1       3.728   6.333  18.852  0.00  0.00    +0.000 A 
ATOM     17  C   UNL     1       3.826   6.580  17.470  0.00  0.00    +0.000 A 
ATOM     18  C   UNL     1       4.994   6.291  16.757  0.00  0.00    +0.000 A 
ATOM     19  C   UNL     1       6.087   5.721  17.416  0.00  0.00    +0.000 A 
ATOM     20  C   UNL     1       6.019   5.446  18.783  0.00  0.00    +0.000 A 
ATOM     21  C   UNL     1       4.856   5.766  19.492  0.00  0.00    +0.000 A 
BRANCH  19  22
ATOM     22  N   UNL     1       7.310   5.412  16.666  0.00  0.00    +0.000 N 
ATOM     23  O   UNL     1       7.628   6.176  15.744  0.00  0.00    +0.000 OA
ATOM     24  O   UNL     1       7.952   4.406  16.998  0.00  0.00    +0.000 OA
ENDBRANCH  19  22
ENDBRANCH   1  16
BRANCH   1  25
ATOM     25  S   UNL     1       1.188   5.291  19.375  0.00  0.00    +0.000 S 
BRANCH  25  26
ATOM     26  C   UNL     1       2.140   3.819  19.041  0.00  0.00    +0.000 A 
ATOM     27  C   UNL     1       2.268   3.260  17.769  0.00  0.00    +0.000 A 
ATOM     28  C   UNL     1       2.996   2.087  17.568  0.00  0.00    +0.000 A 
ATOM     29  C   UNL     1       3.638   1.490  18.643  0.00  0.00    +0.000 A 
ATOM     30  C   UNL     1       3.561   2.049  19.912  0.00  0.00    +0.000 A 
ATOM     31  C   UNL     1       2.815   3.213  20.108  0.00  0.00    +0.000 A 
BRANCH  29  32
ATOM     32  O   UNL     1       4.365   0.350  18.484  0.00  0.00    +0.000 OA
ATOM     33  H   UNL     1       4.459   0.175  17.533  0.00  0.00    +0.000 HD
ENDBRANCH  29  32
ENDBRANCH  25  26
ENDBRANCH   1  25
TORSDOF 7
ENDMDL
