MODEL 1
REMARK VINA RESULT:      -5.4      0.000      0.000
REMARK  Name = 
REMARK  2 active torsions:
REMARK  status: ('A' for Active; 'I' for Inactive)
REMARK    1  A    between atoms: C_1  and  C_2
REMARK    2  A    between atoms: C_2  and  C_3
REMARK                            x       y       z     vdW  Elec       q    Type
REMARK                         _______ _______ _______ _____ _____    ______ ____
ROOT
ATOM      1  C   UNL     1       2.366   7.029  19.721  0.00  0.00    +0.000 C 
ATOM      2  C   UNL     1       2.820   5.606  19.339  0.00  0.00    +0.000 C 
ATOM      3  C   UNL     1       4.360   5.581  19.287  0.00  0.00    +0.000 C 
ATOM      4  C   UNL     1       2.389   4.676  20.440  0.00  0.00    +0.000 C 
ATOM      5  C   UNL     1       1.620   3.591  20.304  0.00  0.00    +0.000 C 
ATOM      6 CL   UNL     1       1.228   2.622  21.675  0.00  0.00    +0.000 Cl
ATOM      7  C   UNL     1       1.091   3.180  18.984  0.00  0.00    +0.000 C 
ATOM      8  O   UNL     1       0.376   2.182  18.868  0.00  0.00    +0.000 OA
ATOM      9  C   UNL     1       1.450   3.985  17.762  0.00  0.00    +0.000 C 
ATOM     10  C   UNL     1       2.256   5.267  17.938  0.00  0.00    +0.000 C 
ENDROOT
TORSDOF 0
ENDMDL
MODEL 2
REMARK VINA RESULT:      -5.3      4.697      5.632
REMARK  Name = 
REMARK  2 active torsions:
REMARK  status: ('A' for Active; 'I' for Inactive)
REMARK    1  A    between atoms: C_1  and  C_2
REMARK    2  A    between atoms: C_2  and  C_3
REMARK                            x       y       z     vdW  Elec       q    Type
REMARK                         _______ _______ _______ _____ _____    ______ ____
ROOT
ATOM      1  C   UNL     1       4.534   3.918  19.153  0.00  0.00    +0.000 C 
ATOM      2  C   UNL     1       4.472   4.795  17.887  0.00  0.00    +0.000 C 
ATOM      3  C   UNL     1       3.098   5.492  17.840  0.00  0.00    +0.000 C 
ATOM      4  C   UNL     1       5.519   5.868  18.022  0.00  0.00    +0.000 C 
ATOM      5  C   UNL     1       6.512   6.118  17.162  0.00  0.00    +0.000 C 
ATOM      6 CL   UNL     1       7.624   7.399  17.462  0.00  0.00    +0.000 Cl
ATOM      7  C   UNL     1       6.683   5.318  15.928  0.00  0.00    +0.000 C 
ATOM      8  O   UNL     1       7.606   5.550  15.143  0.00  0.00    +0.000 OA
ATOM      9  C   UNL     1       5.702   4.217  15.619  0.00  0.00    +0.000 C 
ATOM     10  C   UNL     1       4.625   3.885  16.646  0.00  0.00    +0.000 C 
ENDROOT
TORSDOF 0
ENDMDL
MODEL 3
REMARK VINA RESULT:      -5.3      4.458      5.512
REMARK  Name = 
REMARK  2 active torsions:
REMARK  status: ('A' for Active; 'I' for Inactive)
REMARK    1  A    between atoms: C_1  and  C_2
REMARK    2  A    between atoms: C_2  and  C_3
REMARK                            x       y       z     vdW  Elec       q    Type
REMARK                         _______ _______ _______ _____ _____    ______ ____
ROOT
ATOM      1  C   UNL     1       3.695   7.134  17.647  0.00  0.00    +0.000 C 
ATOM      2  C   UNL     1       4.169   5.668  17.673  0.00  0.00    +0.000 C 
ATOM      3  C   UNL     1       2.930   4.752  17.728  0.00  0.00    +0.000 C 
ATOM      4  C   UNL     1       4.878   5.392  16.374  0.00  0.00    +0.000 C 
ATOM      5  C   UNL     1       6.130   4.945  16.235  0.00  0.00    +0.000 C 
ATOM      6 CL   UNL     1       6.788   4.668  14.667  0.00  0.00    +0.000 Cl
ATOM      7  C   UNL     1       6.984   4.662  17.411  0.00  0.00    +0.000 C 
ATOM      8  O   UNL     1       8.140   4.256  17.274  0.00  0.00    +0.000 OA
ATOM      9  C   UNL     1       6.421   4.855  18.796  0.00  0.00    +0.000 C 
ATOM     10  C   UNL     1       5.024   5.446  18.944  0.00  0.00    +0.000 C 
ENDROOT
TORSDOF 0
ENDMDL
MODEL 4
REMARK VINA RESULT:      -5.2      4.126      4.993
REMARK  Name = 
REMARK  2 active torsions:
REMARK  status: ('A' for Active; 'I' for Inactive)
REMARK    1  A    between atoms: C_1  and  C_2
REMARK    2  A    between atoms: C_2  and  C_3
REMARK                            x       y       z     vdW  Elec       q    Type
REMARK                         _______ _______ _______ _____ _____    ______ ____
ROOT
ATOM      1  C   UNL     1       3.312   4.087  19.280  0.00  0.00    +0.000 C 
ATOM      2  C   UNL     1       4.065   5.009  18.301  0.00  0.00    +0.000 C 
ATOM      3  C   UNL     1       3.227   6.285  18.087  0.00  0.00    +0.000 C 
ATOM      4  C   UNL     1       5.355   5.419  18.959  0.00  0.00    +0.000 C 
ATOM      5  C   UNL     1       6.585   5.244  18.466  0.00  0.00    +0.000 C 
ATOM      6 CL   UNL     1       7.963   5.787  19.347  0.00  0.00    +0.000 Cl
ATOM      7  C   UNL     1       6.806   4.594  17.155  0.00  0.00    +0.000 C 
ATOM      8  O   UNL     1       7.945   4.429  16.711  0.00  0.00    +0.000 OA
ATOM      9  C   UNL     1       5.618   4.145  16.343  0.00  0.00    +0.000 C 
ATOM     10  C   UNL     1       4.226   4.272  16.950  0.00  0.00    +0.000 C 
ENDROOT
TORSDOF 0
ENDMDL
MODEL 5
REMARK VINA RESULT:      -5.2      3.055      4.084
REMARK  Name = 
REMARK  2 active torsions:
REMARK  status: ('A' for Active; 'I' for Inactive)
REMARK    1  A    between atoms: C_1  and  C_2
REMARK    2  A    between atoms: C_2  and  C_3
REMARK                            x       y       z     vdW  Elec       q    Type
REMARK                         _______ _______ _______ _____ _____    ______ ____
ROOT
ATOM      1  C   UNL     1       0.975   4.138  20.557  0.00  0.00    +0.000 C 
ATOM      2  C   UNL     1       1.850   3.439  19.498  0.00  0.00    +0.000 C 
ATOM      3  C   UNL     1       0.949   2.524  18.645  0.00  0.00    +0.000 C 
ATOM      4  C   UNL     1       2.406   4.502  18.590  0.00  0.00    +0.000 C 
ATOM      5  C   UNL     1       3.699   4.726  18.332  0.00  0.00    +0.000 C 
ATOM      6 CL   UNL     1       4.168   5.983  17.251  0.00  0.00    +0.000 Cl
ATOM      7  C   UNL     1       4.763   3.904  18.952  0.00  0.00    +0.000 C 
ATOM      8  O   UNL     1       5.954   4.122  18.715  0.00  0.00    +0.000 OA
ATOM      9  C   UNL     1       4.381   2.772  19.870  0.00  0.00    +0.000 C 
ATOM     10  C   UNL     1       2.912   2.578  20.224  0.00  0.00    +0.000 C 
ENDROOT
TORSDOF 0
ENDMDL
MODEL 6
REMARK VINA RESULT:      -5.2      3.970      4.807
REMARK  Name = 
REMARK  2 active torsions:
REMARK  status: ('A' for Active; 'I' for Inactive)
REMARK    1  A    between atoms: C_1  and  C_2
REMARK    2  A    between atoms: C_2  and  C_3
REMARK                            x       y       z     vdW  Elec       q    Type
REMARK                         _______ _______ _______ _____ _____    ______ ____
ROOT
ATOM      1  C   UNL     1       1.609   4.241  17.719  0.00  0.00    +0.000 C 
ATOM      2  C   UNL     1       3.027   4.690  18.123  0.00  0.00    +0.000 C 
ATOM      3  C   UNL     1       3.328   4.153  19.536  0.00  0.00    +0.000 C 
ATOM      4  C   UNL     1       4.000   4.042  17.176  0.00  0.00    +0.000 C 
ATOM      5  C   UNL     1       4.898   4.671  16.410  0.00  0.00    +0.000 C 
ATOM      6 CL   UNL     1       5.952   3.772  15.385  0.00  0.00    +0.000 Cl
ATOM      7  C   UNL     1       5.026   6.146  16.425  0.00  0.00    +0.000 C 
ATOM      8  O   UNL     1       5.852   6.719  15.709  0.00  0.00    +0.000 OA
ATOM      9  C   UNL     1       4.146   6.955  17.341  0.00  0.00    +0.000 C 
ATOM     10  C   UNL     1       3.069   6.237  18.146  0.00  0.00    +0.000 C 
ENDROOT
TORSDOF 0
ENDMDL
MODEL 7
REMARK VINA RESULT:      -5.2      2.690      3.918
REMARK  Name = 
REMARK  2 active torsions:
REMARK  status: ('A' for Active; 'I' for Inactive)
REMARK    1  A    between atoms: C_1  and  C_2
REMARK    2  A    between atoms: C_2  and  C_3
REMARK                            x       y       z     vdW  Elec       q    Type
REMARK                         _______ _______ _______ _____ _____    ______ ____
ROOT
ATOM      1  C   UNL     1       1.398   2.669  21.570  0.00  0.00    +0.000 C 
ATOM      2  C   UNL     1       1.814   3.097  20.149  0.00  0.00    +0.000 C 
ATOM      3  C   UNL     1       0.802   2.511  19.145  0.00  0.00    +0.000 C 
ATOM      4  C   UNL     1       1.709   4.597  20.074  0.00  0.00    +0.000 C 
ATOM      5  C   UNL     1       2.688   5.443  19.738  0.00  0.00    +0.000 C 
ATOM      6 CL   UNL     1       2.395   7.140  19.688  0.00  0.00    +0.000 Cl
ATOM      7  C   UNL     1       4.042   4.956  19.389  0.00  0.00    +0.000 C 
ATOM      8  O   UNL     1       4.942   5.744  19.088  0.00  0.00    +0.000 OA
ATOM      9  C   UNL     1       4.316   3.475  19.384  0.00  0.00    +0.000 C 
ATOM     10  C   UNL     1       3.219   2.525  19.850  0.00  0.00    +0.000 C 
ENDROOT
TORSDOF 0
ENDMDL
MODEL 8
REMARK VINA RESULT:      -5.1      4.385      5.380
REMARK  Name = 
REMARK  2 active torsions:
REMARK  status: ('A' for Active; 'I' for Inactive)
REMARK    1  A    between atoms: C_1  and  C_2
REMARK    2  A    between atoms: C_2  and  C_3
REMARK                            x       y       z     vdW  Elec       q    Type
REMARK                         _______ _______ _______ _____ _____    ______ ____
ROOT
ATOM      1  C   UNL     1       2.601   4.928  17.873  0.00  0.00    +0.000 C 
ATOM      2  C   UNL     1       3.818   3.985  17.937  0.00  0.00    +0.000 C 
ATOM      3  C   UNL     1       3.336   2.593  18.392  0.00  0.00    +0.000 C 
ATOM      4  C   UNL     1       4.362   3.842  16.541  0.00  0.00    +0.000 C 
ATOM      5  C   UNL     1       5.612   4.106  16.148  0.00  0.00    +0.000 C 
ATOM      6 CL   UNL     1       6.076   3.876  14.504  0.00  0.00    +0.000 Cl
ATOM      7  C   UNL     1       6.635   4.591  17.102  0.00  0.00    +0.000 C 
ATOM      8  O   UNL     1       7.784   4.840  16.729  0.00  0.00    +0.000 OA
ATOM      9  C   UNL     1       6.269   4.763  18.553  0.00  0.00    +0.000 C 
ATOM     10  C   UNL     1       4.822   4.541  18.976  0.00  0.00    +0.000 C 
ENDROOT
TORSDOF 0
ENDMDL
MODEL 9
REMARK VINA RESULT:      -5.1      2.867      3.680
REMARK  Name = 
REMARK  2 active torsions:
REMARK  status: ('A' for Active; 'I' for Inactive)
REMARK    1  A    between atoms: C_1  and  C_2
REMARK    2  A    between atoms: C_2  and  C_3
REMARK                            x       y       z     vdW  Elec       q    Type
REMARK                         _______ _______ _______ _____ _____    ______ ____
ROOT
ATOM      1  C   UNL     1       2.308   2.572  21.540  0.00  0.00    +0.000 C 
ATOM      2  C   UNL     1       2.093   3.326  20.213  0.00  0.00    +0.000 C 
ATOM      3  C   UNL     1       0.823   4.191  20.341  0.00  0.00    +0.000 C 
ATOM      4  C   UNL     1       3.259   4.259  20.022  0.00  0.00    +0.000 C 
ATOM      5  C   UNL     1       4.081   4.293  18.969  0.00  0.00    +0.000 C 
ATOM      6 CL   UNL     1       5.366   5.439  18.902  0.00  0.00    +0.000 Cl
ATOM      7  C   UNL     1       3.913   3.365  17.828  0.00  0.00    +0.000 C 
ATOM      8  O   UNL     1       4.681   3.397  16.863  0.00  0.00    +0.000 OA
ATOM      9  C   UNL     1       2.773   2.379  17.840  0.00  0.00    +0.000 C 
ATOM     10  C   UNL     1       1.893   2.290  19.081  0.00  0.00    +0.000 C 
ENDROOT
TORSDOF 0
ENDMDL
