MODEL 1
REMARK VINA RESULT:      -8.2      0.000      0.000
REMARK  Name = 
REMARK  6 active torsions:
REMARK  status: ('A' for Active; 'I' for Inactive)
REMARK    1  A    between atoms: C_1  and  C_2
REMARK    2  A    between atoms: C_3  and  C_4
REMARK    3  A    between atoms: C_5  and  C_6
REMARK    4  A    between atoms: C_9  and  C_10
REMARK    5  A    between atoms: N_12  and  C_13
REMARK    6  A    between atoms: C_23  and  C_24
REMARK                            x       y       z     vdW  Elec       q    Type
REMARK                         _______ _______ _______ _____ _____    ______ ____
ROOT
ATOM      1  C   UNL     1       4.628   3.872  16.818  0.00  0.00    +0.000 C 
ATOM      2  C   UNL     1       3.763   4.358  17.962  0.00  0.00    +0.000 A 
ATOM      3  C   UNL     1       3.132   3.475  18.888  0.00  0.00    +0.000 A 
ATOM      4  C   UNL     1       3.252   1.970  18.779  0.00  0.00    +0.000 C 
ATOM      5  C   UNL     1       2.353   3.983  19.969  0.00  0.00    +0.000 A 
ATOM      6  C   UNL     1       1.623   3.125  20.964  0.00  0.00    +0.000 C 
ATOM      7  C   UNL     1       2.260   5.376  20.056  0.00  0.00    +0.000 A 
ATOM      8  N   UNL     1       1.622   6.187  20.963  0.00  0.00    +0.000 N 
ATOM      9  C   UNL     1       1.761   7.479  20.550  0.00  0.00    +0.000 A 
ATOM     10  N   UNL     1       2.524   7.556  19.480  0.00  0.00    +0.000 NA
ATOM     11  C   UNL     1       2.835   6.258  19.156  0.00  0.00    +0.000 A 
ATOM     12  C   UNL     1       3.603   5.775  18.082  0.00  0.00    +0.000 A 
ATOM     13  C   UNL     1       4.231   6.726  17.098  0.00  0.00    +0.000 C 
ATOM     14  H   UNL     1       1.120   5.893  21.788  0.00  0.00    +0.000 HD
ENDROOT
BRANCH   9  15
ATOM     15  C   UNL     1       1.146   8.636  21.221  0.00  0.00    +0.000 A 
ATOM     16  C   UNL     1       0.073   9.330  20.725  0.00  0.00    +0.000 A 
ATOM     17  N   UNL     1      -0.090  10.357  21.604  0.00  0.00    +0.000 N 
ATOM     18  N   UNL     1       0.741  10.213  22.661  0.00  0.00    +0.000 NA
ATOM     19  N   UNL     1       1.539   9.180  22.409  0.00  0.00    +0.000 NA
BRANCH  17  20
ATOM     20  C   UNL     1      -1.019  11.473  21.504  0.00  0.00    +0.000 C 
ATOM     21  C   UNL     1      -1.482  11.741  20.062  0.00  0.00    +0.000 C 
ATOM     22  C   UNL     1      -0.342  12.287  19.204  0.00  0.00    +0.000 C 
ATOM     23  N   UNL     1       0.252  13.493  19.774  0.00  0.00    +0.000 NA
ATOM     24  C   UNL     1       0.651  13.348  21.174  0.00  0.00    +0.000 C 
ATOM     25  C   UNL     1      -0.460  12.787  22.064  0.00  0.00    +0.000 C 
ATOM     26  H   UNL     1      -0.393  14.276  19.676  0.00  0.00    +0.000 HD
ENDBRANCH  17  20
ENDBRANCH   9  15
TORSDOF 2
ENDMDL
MODEL 2
REMARK VINA RESULT:      -8.1      1.066      1.216
REMARK  Name = 
REMARK  6 active torsions:
REMARK  status: ('A' for Active; 'I' for Inactive)
REMARK    1  A    between atoms: C_1  and  C_2
REMARK    2  A    between atoms: C_3  and  C_4
REMARK    3  A    between atoms: C_5  and  C_6
REMARK    4  A    between atoms: C_9  and  C_10
REMARK    5  A    between atoms: N_12  and  C_13
REMARK    6  A    between atoms: C_23  and  C_24
REMARK                            x       y       z     vdW  Elec       q    Type
REMARK                         _______ _______ _______ _____ _____    ______ ____
ROOT
ATOM      1  C   UNL     1       4.711   4.218  16.983  0.00  0.00    +0.000 C 
ATOM      2  C   UNL     1       3.829   4.816  18.058  0.00  0.00    +0.000 A 
ATOM      3  C   UNL     1       3.301   4.052  19.142  0.00  0.00    +0.000 A 
ATOM      4  C   UNL     1       3.556   2.567  19.284  0.00  0.00    +0.000 C 
ATOM      5  C   UNL     1       2.500   4.668  20.149  0.00  0.00    +0.000 A 
ATOM      6  C   UNL     1       1.873   3.933  21.300  0.00  0.00    +0.000 C 
ATOM      7  C   UNL     1       2.281   6.042  20.003  0.00  0.00    +0.000 A 
ATOM      8  N   UNL     1       1.589   6.937  20.782  0.00  0.00    +0.000 N 
ATOM      9  C   UNL     1       1.600   8.147  20.151  0.00  0.00    +0.000 A 
ATOM     10  N   UNL     1       2.332   8.106  19.058  0.00  0.00    +0.000 NA
ATOM     11  C   UNL     1       2.754   6.803  18.947  0.00  0.00    +0.000 A 
ATOM     12  C   UNL     1       3.541   6.212  17.943  0.00  0.00    +0.000 A 
ATOM     13  C   UNL     1       4.059   7.032  16.790  0.00  0.00    +0.000 C 
ATOM     14  H   UNL     1       1.133   6.746  21.662  0.00  0.00    +0.000 HD
ENDROOT
BRANCH   9  15
ATOM     15  C   UNL     1       0.895   9.344  20.640  0.00  0.00    +0.000 A 
ATOM     16  C   UNL     1      -0.173   9.918  20.001  0.00  0.00    +0.000 A 
ATOM     17  N   UNL     1      -0.435  11.033  20.737  0.00  0.00    +0.000 N 
ATOM     18  N   UNL     1       0.334  11.060  21.849  0.00  0.00    +0.000 NA
ATOM     19  N   UNL     1       1.189  10.045  21.772  0.00  0.00    +0.000 NA
BRANCH  17  20
ATOM     20  C   UNL     1      -1.403  12.082  20.447  0.00  0.00    +0.000 C 
ATOM     21  C   UNL     1      -2.363  11.713  19.303  0.00  0.00    +0.000 C 
ATOM     22  C   UNL     1      -1.636  11.667  17.960  0.00  0.00    +0.000 C 
ATOM     23  N   UNL     1      -0.950  12.919  17.658  0.00  0.00    +0.000 NA
ATOM     24  C   UNL     1      -0.072  13.385  18.732  0.00  0.00    +0.000 C 
ATOM     25  C   UNL     1      -0.759  13.430  20.097  0.00  0.00    +0.000 C 
ATOM     26  H   UNL     1      -1.633  13.641  17.430  0.00  0.00    +0.000 HD
ENDBRANCH  17  20
ENDBRANCH   9  15
TORSDOF 2
ENDMDL
MODEL 3
REMARK VINA RESULT:      -8.0      1.057      2.555
REMARK  Name = 
REMARK  6 active torsions:
REMARK  status: ('A' for Active; 'I' for Inactive)
REMARK    1  A    between atoms: C_1  and  C_2
REMARK    2  A    between atoms: C_3  and  C_4
REMARK    3  A    between atoms: C_5  and  C_6
REMARK    4  A    between atoms: C_9  and  C_10
REMARK    5  A    between atoms: N_12  and  C_13
REMARK    6  A    between atoms: C_23  and  C_24
REMARK                            x       y       z     vdW  Elec       q    Type
REMARK                         _______ _______ _______ _____ _____    ______ ____
ROOT
ATOM      1  C   UNL     1       3.631   2.564  19.537  0.00  0.00    +0.000 C 
ATOM      2  C   UNL     1       3.376   4.038  19.302  0.00  0.00    +0.000 A 
ATOM      3  C   UNL     1       3.949   4.761  18.214  0.00  0.00    +0.000 A 
ATOM      4  C   UNL     1       4.891   4.114  17.221  0.00  0.00    +0.000 C 
ATOM      5  C   UNL     1       3.653   6.142  18.017  0.00  0.00    +0.000 A 
ATOM      6  C   UNL     1       4.243   6.987  16.923  0.00  0.00    +0.000 C 
ATOM      7  C   UNL     1       2.776   6.719  18.941  0.00  0.00    +0.000 A 
ATOM      8  N   UNL     1       2.270   7.993  19.037  0.00  0.00    +0.000 N 
ATOM      9  C   UNL     1       1.525   8.069  20.177  0.00  0.00    +0.000 A 
ATOM     10  N   UNL     1       1.449   6.899  20.774  0.00  0.00    +0.000 NA
ATOM     11  C   UNL     1       2.228   6.052  20.024  0.00  0.00    +0.000 A 
ATOM     12  C   UNL     1       2.513   4.692  20.237  0.00  0.00    +0.000 A 
ATOM     13  C   UNL     1       1.922   3.958  21.413  0.00  0.00    +0.000 C 
ATOM     14  H   UNL     1       2.425   8.755  18.393  0.00  0.00    +0.000 HD
ENDROOT
BRANCH   9  15
ATOM     15  C   UNL     1       0.881   9.300  20.667  0.00  0.00    +0.000 A 
ATOM     16  C   UNL     1      -0.145   9.937  20.020  0.00  0.00    +0.000 A 
ATOM     17  N   UNL     1      -0.355  11.060  20.762  0.00  0.00    +0.000 N 
ATOM     18  N   UNL     1       0.399  11.034  21.885  0.00  0.00    +0.000 NA
ATOM     19  N   UNL     1       1.198   9.974  21.809  0.00  0.00    +0.000 NA
BRANCH  17  20
ATOM     20  C   UNL     1      -1.259  12.163  20.469  0.00  0.00    +0.000 C 
ATOM     21  C   UNL     1      -2.300  11.815  19.392  0.00  0.00    +0.000 C 
ATOM     22  C   UNL     1      -1.648  11.657  18.019  0.00  0.00    +0.000 C 
ATOM     23  N   UNL     1      -0.891  12.840  17.625  0.00  0.00    +0.000 NA
ATOM     24  C   UNL     1       0.072  13.287  18.632  0.00  0.00    +0.000 C 
ATOM     25  C   UNL     1      -0.539  13.443  20.025  0.00  0.00    +0.000 C 
ATOM     26  H   UNL     1      -1.531  13.600  17.396  0.00  0.00    +0.000 HD
ENDBRANCH  17  20
ENDBRANCH   9  15
TORSDOF 2
ENDMDL
MODEL 4
REMARK VINA RESULT:      -8.0      0.159      2.265
REMARK  Name = 
REMARK  6 active torsions:
REMARK  status: ('A' for Active; 'I' for Inactive)
REMARK    1  A    between atoms: C_1  and  C_2
REMARK    2  A    between atoms: C_3  and  C_4
REMARK    3  A    between atoms: C_5  and  C_6
REMARK    4  A    between atoms: C_9  and  C_10
REMARK    5  A    between atoms: N_12  and  C_13
REMARK    6  A    between atoms: C_23  and  C_24
REMARK                            x       y       z     vdW  Elec       q    Type
REMARK                         _______ _______ _______ _____ _____    ______ ____
ROOT
ATOM      1  C   UNL     1       3.387   2.076  18.999  0.00  0.00    +0.000 C 
ATOM      2  C   UNL     1       3.220   3.580  19.022  0.00  0.00    +0.000 A 
ATOM      3  C   UNL     1       3.854   4.445  18.080  0.00  0.00    +0.000 A 
ATOM      4  C   UNL     1       4.775   3.925  16.997  0.00  0.00    +0.000 C 
ATOM      5  C   UNL     1       3.641   5.855  18.123  0.00  0.00    +0.000 A 
ATOM      6  C   UNL     1       4.298   6.839  17.196  0.00  0.00    +0.000 C 
ATOM      7  C   UNL     1       2.781   6.315  19.126  0.00  0.00    +0.000 A 
ATOM      8  N   UNL     1       2.347   7.580  19.437  0.00  0.00    +0.000 N 
ATOM      9  C   UNL     1       1.587   7.503  20.568  0.00  0.00    +0.000 A 
ATOM     10  N   UNL     1       1.434   6.254  20.952  0.00  0.00    +0.000 NA
ATOM     11  C   UNL     1       2.176   5.504  20.073  0.00  0.00    +0.000 A 
ATOM     12  C   UNL     1       2.379   4.113  20.049  0.00  0.00    +0.000 A 
ATOM     13  C   UNL     1       1.726   3.224  21.075  0.00  0.00    +0.000 C 
ATOM     14  H   UNL     1       2.557   8.432  18.937  0.00  0.00    +0.000 HD
ENDROOT
BRANCH   9  15
ATOM     15  C   UNL     1       1.006   8.666  21.258  0.00  0.00    +0.000 A 
ATOM     16  C   UNL     1      -0.046   9.398  20.773  0.00  0.00    +0.000 A 
ATOM     17  N   UNL     1      -0.180  10.415  21.669  0.00  0.00    +0.000 N 
ATOM     18  N   UNL     1       0.646  10.230  22.724  0.00  0.00    +0.000 NA
ATOM     19  N   UNL     1       1.414   9.178  22.455  0.00  0.00    +0.000 NA
BRANCH  17  20
ATOM     20  C   UNL     1      -1.076  11.560  21.587  0.00  0.00    +0.000 C 
ATOM     21  C   UNL     1      -1.549  11.849  20.153  0.00  0.00    +0.000 C 
ATOM     22  C   UNL     1      -0.405  12.366  19.283  0.00  0.00    +0.000 C 
ATOM     23  N   UNL     1       0.232  13.550  19.852  0.00  0.00    +0.000 NA
ATOM     24  C   UNL     1       0.645  13.385  21.246  0.00  0.00    +0.000 C 
ATOM     25  C   UNL     1      -0.470  12.853  22.147  0.00  0.00    +0.000 C 
ATOM     26  H   UNL     1      -0.390  14.353  19.767  0.00  0.00    +0.000 HD
ENDBRANCH  17  20
ENDBRANCH   9  15
TORSDOF 2
ENDMDL
MODEL 5
REMARK VINA RESULT:      -8.0      0.842      1.325
REMARK  Name = 
REMARK  6 active torsions:
REMARK  status: ('A' for Active; 'I' for Inactive)
REMARK    1  A    between atoms: C_1  and  C_2
REMARK    2  A    between atoms: C_3  and  C_4
REMARK    3  A    between atoms: C_5  and  C_6
REMARK    4  A    between atoms: C_9  and  C_10
REMARK    5  A    between atoms: N_12  and  C_13
REMARK    6  A    between atoms: C_23  and  C_24
REMARK                            x       y       z     vdW  Elec       q    Type
REMARK                         _______ _______ _______ _____ _____    ______ ____
ROOT
ATOM      1  C   UNL     1       4.575   3.709  16.955  0.00  0.00    +0.000 C 
ATOM      2  C   UNL     1       3.707   4.333  18.027  0.00  0.00    +0.000 A 
ATOM      3  C   UNL     1       3.022   3.564  19.015  0.00  0.00    +0.000 A 
ATOM      4  C   UNL     1       3.084   2.052  19.049  0.00  0.00    +0.000 C 
ATOM      5  C   UNL     1       2.240   4.200  20.024  0.00  0.00    +0.000 A 
ATOM      6  C   UNL     1       1.457   3.467  21.077  0.00  0.00    +0.000 C 
ATOM      7  C   UNL     1       2.201   5.598  19.980  0.00  0.00    +0.000 A 
ATOM      8  N   UNL     1       1.576   6.513  20.792  0.00  0.00    +0.000 N 
ATOM      9  C   UNL     1       1.775   7.755  20.263  0.00  0.00    +0.000 A 
ATOM     10  N   UNL     1       2.563   7.703  19.210  0.00  0.00    +0.000 NA
ATOM     11  C   UNL     1       2.829   6.369  19.016  0.00  0.00    +0.000 A 
ATOM     12  C   UNL     1       3.599   5.759  18.011  0.00  0.00    +0.000 A 
ATOM     13  C   UNL     1       4.285   6.590  16.958  0.00  0.00    +0.000 C 
ATOM     14  H   UNL     1       1.046   6.317  21.628  0.00  0.00    +0.000 HD
ENDROOT
BRANCH   9  15
ATOM     15  C   UNL     1       1.192   8.992  20.809  0.00  0.00    +0.000 A 
ATOM     16  C   UNL     1       1.004  10.137  20.080  0.00  0.00    +0.000 A 
ATOM     17  N   UNL     1       0.542  11.036  20.993  0.00  0.00    +0.000 N 
ATOM     18  N   UNL     1       0.320  10.433  22.182  0.00  0.00    +0.000 NA
ATOM     19  N   UNL     1       0.762   9.182  22.089  0.00  0.00    +0.000 NA
BRANCH  17  20
ATOM     20  C   UNL     1       0.281  12.454  20.790  0.00  0.00    +0.000 C 
ATOM     21  C   UNL     1      -1.098  12.891  21.313  0.00  0.00    +0.000 C 
ATOM     22  C   UNL     1      -2.225  12.306  20.463  0.00  0.00    +0.000 C 
ATOM     23  N   UNL     1      -2.090  12.649  19.051  0.00  0.00    +0.000 NA
ATOM     24  C   UNL     1      -0.775  12.337  18.492  0.00  0.00    +0.000 C 
ATOM     25  C   UNL     1       0.383  12.892  19.323  0.00  0.00    +0.000 C 
ATOM     26  H   UNL     1      -2.300  13.637  18.913  0.00  0.00    +0.000 HD
ENDBRANCH  17  20
ENDBRANCH   9  15
TORSDOF 2
ENDMDL
MODEL 6
REMARK VINA RESULT:      -7.9      1.826      8.198
REMARK  Name = 
REMARK  6 active torsions:
REMARK  status: ('A' for Active; 'I' for Inactive)
REMARK    1  A    between atoms: C_1  and  C_2
REMARK    2  A    between atoms: C_3  and  C_4
REMARK    3  A    between atoms: C_5  and  C_6
REMARK    4  A    between atoms: C_9  and  C_10
REMARK    5  A    between atoms: N_12  and  C_13
REMARK    6  A    between atoms: C_23  and  C_24
REMARK                            x       y       z     vdW  Elec       q    Type
REMARK                         _______ _______ _______ _____ _____    ______ ____
ROOT
ATOM      1  C   UNL     1      -1.457  11.931  23.149  0.00  0.00    +0.000 C 
ATOM      2  C   UNL     1      -0.796  11.272  21.957  0.00  0.00    +0.000 A 
ATOM      3  C   UNL     1      -0.850  11.819  20.640  0.00  0.00    +0.000 A 
ATOM      4  C   UNL     1      -1.606  13.092  20.323  0.00  0.00    +0.000 C 
ATOM      5  C   UNL     1      -0.185  11.177  19.554  0.00  0.00    +0.000 A 
ATOM      6  C   UNL     1      -0.224  11.661  18.131  0.00  0.00    +0.000 C 
ATOM      7  C   UNL     1       0.513  10.006  19.868  0.00  0.00    +0.000 A 
ATOM      8  N   UNL     1       1.266   9.162  19.087  0.00  0.00    +0.000 N 
ATOM      9  C   UNL     1       1.658   8.108  19.858  0.00  0.00    +0.000 A 
ATOM     10  N   UNL     1       1.279   8.265  21.108  0.00  0.00    +0.000 NA
ATOM     11  C   UNL     1       0.558   9.435  21.129  0.00  0.00    +0.000 A 
ATOM     12  C   UNL     1      -0.096  10.051  22.210  0.00  0.00    +0.000 A 
ATOM     13  C   UNL     1      -0.053   9.437  23.585  0.00  0.00    +0.000 C 
ATOM     14  H   UNL     1       1.486   9.280  18.109  0.00  0.00    +0.000 HD
ENDROOT
BRANCH   9  15
ATOM     15  C   UNL     1       2.419   6.951  19.357  0.00  0.00    +0.000 A 
ATOM     16  C   UNL     1       2.421   5.718  19.954  0.00  0.00    +0.000 A 
ATOM     17  N   UNL     1       3.320   5.000  19.224  0.00  0.00    +0.000 N 
ATOM     18  N   UNL     1       3.732   5.709  18.149  0.00  0.00    +0.000 NA
ATOM     19  N   UNL     1       3.216   6.930  18.250  0.00  0.00    +0.000 NA
BRANCH  17  20
ATOM     20  C   UNL     1       3.802   3.651  19.485  0.00  0.00    +0.000 C 
ATOM     21  C   UNL     1       3.879   2.786  18.217  0.00  0.00    +0.000 C 
ATOM     22  C   UNL     1       2.486   2.453  17.684  0.00  0.00    +0.000 C 
ATOM     23  N   UNL     1       1.650   1.802  18.688  0.00  0.00    +0.000 NA
ATOM     24  C   UNL     1       1.584   2.524  19.959  0.00  0.00    +0.000 C 
ATOM     25  C   UNL     1       2.960   2.890  20.518  0.00  0.00    +0.000 C 
ATOM     26  H   UNL     1       1.977   0.849  18.846  0.00  0.00    +0.000 HD
ENDBRANCH  17  20
ENDBRANCH   9  15
TORSDOF 2
ENDMDL
MODEL 7
REMARK VINA RESULT:      -7.9      0.983      2.720
REMARK  Name = 
REMARK  6 active torsions:
REMARK  status: ('A' for Active; 'I' for Inactive)
REMARK    1  A    between atoms: C_1  and  C_2
REMARK    2  A    between atoms: C_3  and  C_4
REMARK    3  A    between atoms: C_5  and  C_6
REMARK    4  A    between atoms: C_9  and  C_10
REMARK    5  A    between atoms: N_12  and  C_13
REMARK    6  A    between atoms: C_23  and  C_24
REMARK                            x       y       z     vdW  Elec       q    Type
REMARK                         _______ _______ _______ _____ _____    ______ ____
ROOT
ATOM      1  C   UNL     1       3.246   2.242  19.140  0.00  0.00    +0.000 C 
ATOM      2  C   UNL     1       3.100   3.749  19.115  0.00  0.00    +0.000 A 
ATOM      3  C   UNL     1       3.715   4.572  18.125  0.00  0.00    +0.000 A 
ATOM      4  C   UNL     1       4.595   4.003  17.034  0.00  0.00    +0.000 C 
ATOM      5  C   UNL     1       3.522   5.985  18.126  0.00  0.00    +0.000 A 
ATOM      6  C   UNL     1       4.163   6.928  17.146  0.00  0.00    +0.000 C 
ATOM      7  C   UNL     1       2.700   6.491  19.138  0.00  0.00    +0.000 A 
ATOM      8  N   UNL     1       2.292   7.773  19.419  0.00  0.00    +0.000 N 
ATOM      9  C   UNL     1       1.567   7.745  20.574  0.00  0.00    +0.000 A 
ATOM     10  N   UNL     1       1.409   6.512  21.006  0.00  0.00    +0.000 NA
ATOM     11  C   UNL     1       2.115   5.722  20.131  0.00  0.00    +0.000 A 
ATOM     12  C   UNL     1       2.298   4.329  20.148  0.00  0.00    +0.000 A 
ATOM     13  C   UNL     1       1.666   3.485  21.224  0.00  0.00    +0.000 C 
ATOM     14  H   UNL     1       2.497   8.604  18.883  0.00  0.00    +0.000 HD
ENDROOT
BRANCH   9  15
ATOM     15  C   UNL     1       1.022   8.939  21.241  0.00  0.00    +0.000 A 
ATOM     16  C   UNL     1       0.697  10.100  20.589  0.00  0.00    +0.000 A 
ATOM     17  N   UNL     1       0.334  10.949  21.591  0.00  0.00    +0.000 N 
ATOM     18  N   UNL     1       0.297  10.297  22.775  0.00  0.00    +0.000 NA
ATOM     19  N   UNL     1       0.765   9.069  22.574  0.00  0.00    +0.000 NA
BRANCH  17  20
ATOM     20  C   UNL     1      -0.000  12.362  21.480  0.00  0.00    +0.000 C 
ATOM     21  C   UNL     1      -0.927  12.848  22.607  0.00  0.00    +0.000 C 
ATOM     22  C   UNL     1      -2.326  12.250  22.474  0.00  0.00    +0.000 C 
ATOM     23  N   UNL     1      -2.926  12.528  21.173  0.00  0.00    +0.000 NA
ATOM     24  C   UNL     1      -2.074  12.165  20.040  0.00  0.00    +0.000 C 
ATOM     25  C   UNL     1      -0.657  12.733  20.145  0.00  0.00    +0.000 C 
ATOM     26  H   UNL     1      -3.182  13.513  21.113  0.00  0.00    +0.000 HD
ENDBRANCH  17  20
ENDBRANCH   9  15
TORSDOF 2
ENDMDL
MODEL 8
REMARK VINA RESULT:      -7.8      1.852      7.917
REMARK  Name = 
REMARK  6 active torsions:
REMARK  status: ('A' for Active; 'I' for Inactive)
REMARK    1  A    between atoms: C_1  and  C_2
REMARK    2  A    between atoms: C_3  and  C_4
REMARK    3  A    between atoms: C_5  and  C_6
REMARK    4  A    between atoms: C_9  and  C_10
REMARK    5  A    between atoms: N_12  and  C_13
REMARK    6  A    between atoms: C_23  and  C_24
REMARK                            x       y       z     vdW  Elec       q    Type
REMARK                         _______ _______ _______ _____ _____    ______ ____
ROOT
ATOM      1  C   UNL     1      -0.949  13.286  20.242  0.00  0.00    +0.000 C 
ATOM      2  C   UNL     1      -0.398  11.927  20.616  0.00  0.00    +0.000 A 
ATOM      3  C   UNL     1      -0.539  11.365  21.921  0.00  0.00    +0.000 A 
ATOM      4  C   UNL     1      -1.226  12.104  23.049  0.00  0.00    +0.000 C 
ATOM      5  C   UNL     1      -0.029  10.066  22.216  0.00  0.00    +0.000 A 
ATOM      6  C   UNL     1      -0.099   9.417  23.570  0.00  0.00    +0.000 C 
ATOM      7  C   UNL     1       0.596   9.398  21.159  0.00  0.00    +0.000 A 
ATOM      8  N   UNL     1       1.170   8.151  21.088  0.00  0.00    +0.000 N 
ATOM      9  C   UNL     1       1.725   8.009  19.850  0.00  0.00    +0.000 A 
ATOM     10  N   UNL     1       1.467   9.053  19.091  0.00  0.00    +0.000 NA
ATOM     11  C   UNL     1       0.775   9.928  19.892  0.00  0.00    +0.000 A 
ATOM     12  C   UNL     1       0.284  11.209  19.584  0.00  0.00    +0.000 A 
ATOM     13  C   UNL     1       0.474  11.794  18.209  0.00  0.00    +0.000 C 
ATOM     14  H   UNL     1       1.198   7.456  21.819  0.00  0.00    +0.000 HD
ENDROOT
BRANCH   9  15
ATOM     15  C   UNL     1       2.500   6.834  19.418  0.00  0.00    +0.000 A 
ATOM     16  C   UNL     1       2.387   5.591  19.983  0.00  0.00    +0.000 A 
ATOM     17  N   UNL     1       3.342   4.854  19.351  0.00  0.00    +0.000 N 
ATOM     18  N   UNL     1       3.905   5.566  18.349  0.00  0.00    +0.000 NA
ATOM     19  N   UNL     1       3.424   6.804  18.414  0.00  0.00    +0.000 NA
BRANCH  17  20
ATOM     20  C   UNL     1       3.742   3.483  19.638  0.00  0.00    +0.000 C 
ATOM     21  C   UNL     1       3.822   2.605  18.378  0.00  0.00    +0.000 C 
ATOM     22  C   UNL     1       2.434   2.342  17.794  0.00  0.00    +0.000 C 
ATOM     23  N   UNL     1       1.527   1.744  18.769  0.00  0.00    +0.000 NA
ATOM     24  C   UNL     1       1.451   2.478  20.032  0.00  0.00    +0.000 C 
ATOM     25  C   UNL     1       2.823   2.775  20.641  0.00  0.00    +0.000 C 
ATOM     26  H   UNL     1       1.798   0.777  18.945  0.00  0.00    +0.000 HD
ENDBRANCH  17  20
ENDBRANCH   9  15
TORSDOF 2
ENDMDL
MODEL 9
REMARK VINA RESULT:      -7.7      1.993      8.230
REMARK  Name = 
REMARK  6 active torsions:
REMARK  status: ('A' for Active; 'I' for Inactive)
REMARK    1  A    between atoms: C_1  and  C_2
REMARK    2  A    between atoms: C_3  and  C_4
REMARK    3  A    between atoms: C_5  and  C_6
REMARK    4  A    between atoms: C_9  and  C_10
REMARK    5  A    between atoms: N_12  and  C_13
REMARK    6  A    between atoms: C_23  and  C_24
REMARK                            x       y       z     vdW  Elec       q    Type
REMARK                         _______ _______ _______ _____ _____    ______ ____
ROOT
ATOM      1  C   UNL     1      -1.481  11.621  23.080  0.00  0.00    +0.000 C 
ATOM      2  C   UNL     1      -0.936  11.162  21.745  0.00  0.00    +0.000 A 
ATOM      3  C   UNL     1      -1.313  11.761  20.505  0.00  0.00    +0.000 A 
ATOM      4  C   UNL     1      -2.319  12.888  20.426  0.00  0.00    +0.000 C 
ATOM      5  C   UNL     1      -0.748  11.313  19.275  0.00  0.00    +0.000 A 
ATOM      6  C   UNL     1      -1.117  11.859  17.924  0.00  0.00    +0.000 C 
ATOM      7  C   UNL     1       0.185  10.274  19.370  0.00  0.00    +0.000 A 
ATOM      8  N   UNL     1       0.923   9.628  18.409  0.00  0.00    +0.000 N 
ATOM      9  C   UNL     1       1.620   8.622  19.013  0.00  0.00    +0.000 A 
ATOM     10  N   UNL     1       1.443   8.638  20.316  0.00  0.00    +0.000 NA
ATOM     11  C   UNL     1       0.547   9.653  20.554  0.00  0.00    +0.000 A 
ATOM     12  C   UNL     1      -0.003  10.078  21.775  0.00  0.00    +0.000 A 
ATOM     13  C   UNL     1       0.385   9.407  23.068  0.00  0.00    +0.000 C 
ATOM     14  H   UNL     1       0.945   9.837  17.421  0.00  0.00    +0.000 HD
ENDROOT
BRANCH   9  15
ATOM     15  C   UNL     1       2.468   7.654  18.297  0.00  0.00    +0.000 A 
ATOM     16  C   UNL     1       2.230   6.305  18.263  0.00  0.00    +0.000 A 
ATOM     17  N   UNL     1       3.298   5.800  17.586  0.00  0.00    +0.000 N 
ATOM     18  N   UNL     1       4.070   6.799  17.103  0.00  0.00    +0.000 NA
ATOM     19  N   UNL     1       3.589   7.945  17.577  0.00  0.00    +0.000 NA
BRANCH  17  20
ATOM     20  C   UNL     1       3.621   4.399  17.354  0.00  0.00    +0.000 C 
ATOM     21  C   UNL     1       3.805   3.602  18.657  0.00  0.00    +0.000 C 
ATOM     22  C   UNL     1       5.071   4.030  19.397  0.00  0.00    +0.000 C 
ATOM     23  N   UNL     1       6.264   3.917  18.565  0.00  0.00    +0.000 NA
ATOM     24  C   UNL     1       6.145   4.584  17.269  0.00  0.00    +0.000 C 
ATOM     25  C   UNL     1       4.880   4.194  16.502  0.00  0.00    +0.000 C 
ATOM     26  H   UNL     1       6.500   2.934  18.429  0.00  0.00    +0.000 HD
ENDBRANCH  17  20
ENDBRANCH   9  15
TORSDOF 2
ENDMDL
