MODEL 1
REMARK VINA RESULT:      -6.8      0.000      0.000
REMARK  Name = 
REMARK  7 active torsions:
REMARK  status: ('A' for Active; 'I' for Inactive)
REMARK    1  A    between atoms: C_1  and  N_2
REMARK    2  A    between atoms: N_2  and  C_3
REMARK    3  A    between atoms: N_2  and  C_4
REMARK    4  A    between atoms: C_4  and  C_5
REMARK    5  A    between atoms: C_5  and  N_6
REMARK    6  A    between atoms: N_14  and  C_15
REMARK    7  A    between atoms: C_15  and  C_16
REMARK                            x       y       z     vdW  Elec       q    Type
REMARK                         _______ _______ _______ _____ _____    ______ ____
ROOT
ATOM      1  N   UNL     1       3.209   5.596  18.759  0.00  0.00    +0.000 NA
ATOM      2  C   UNL     1       2.562   6.909  18.584  0.00  0.00    +0.000 C 
ATOM      3  C   UNL     1       3.294   7.571  17.442  0.00  0.00    +0.000 C 
ATOM      4  C   UNL     1       4.720   7.142  17.695  0.00  0.00    +0.000 C 
ATOM      5  C   UNL     1       4.600   5.683  18.200  0.00  0.00    +0.000 C 
ATOM      6  C   UNL     1       5.756   5.353  19.172  0.00  0.00    +0.000 C 
ATOM      7  C   UNL     1       7.105   5.382  18.460  0.00  0.00    +0.000 C 
ATOM      8  C   UNL     1       7.124   4.411  17.279  0.00  0.00    +0.000 C 
ATOM      9  N   UNL     1       6.052   4.703  16.315  0.00  0.00    +0.000 NA
ATOM     10  C   UNL     1       4.722   4.693  16.982  0.00  0.00    +0.000 C 
ENDROOT
BRANCH   1  11
ATOM     11  C   UNL     1       3.065   5.116  20.153  0.00  0.00    +0.000 C 
BRANCH  11  12
ATOM     12  C   UNL     1       2.334   3.745  20.268  0.00  0.00    +0.000 C 
BRANCH  12  14
ATOM     13  C   UNL     1       3.200   1.915  18.960  0.00  0.00    +0.000 C 
ATOM     14  N   UNL     1       2.196   2.986  19.003  0.00  0.00    +0.000 NA
ATOM     15  C   UNL     1       0.862   2.407  18.844  0.00  0.00    +0.000 C 
ENDBRANCH  12  14
ENDBRANCH  11  12
ENDBRANCH   1  11
BRANCH   9  16
ATOM     16  C   UNL     1       6.059   3.716  15.208  0.00  0.00    +0.000 C 
BRANCH  16  17
ATOM     17  C   UNL     1       6.676   4.226  13.944  0.00  0.00    +0.000 A 
ATOM     18  C   UNL     1       6.564   3.873  12.614  0.00  0.00    +0.000 A 
ATOM     19  C   UNL     1       7.431   4.730  11.894  0.00  0.00    +0.000 A 
ATOM     20  C   UNL     1       8.013   5.554  12.827  0.00  0.00    +0.000 A 
ATOM     21  O   UNL     1       7.563   5.259  14.073  0.00  0.00    +0.000 OA
ENDBRANCH  16  17
ENDBRANCH   9  16
TORSDOF 5
ENDMDL
MODEL 2
REMARK VINA RESULT:      -6.5      1.036      1.347
REMARK  Name = 
REMARK  7 active torsions:
REMARK  status: ('A' for Active; 'I' for Inactive)
REMARK    1  A    between atoms: C_1  and  N_2
REMARK    2  A    between atoms: N_2  and  C_3
REMARK    3  A    between atoms: N_2  and  C_4
REMARK    4  A    between atoms: C_4  and  C_5
REMARK    5  A    between atoms: C_5  and  N_6
REMARK    6  A    between atoms: N_14  and  C_15
REMARK    7  A    between atoms: C_15  and  C_16
REMARK                            x       y       z     vdW  Elec       q    Type
REMARK                         _______ _______ _______ _____ _____    ______ ____
ROOT
ATOM      1  N   UNL     1       3.037   5.695  18.855  0.00  0.00    +0.000 NA
ATOM      2  C   UNL     1       2.414   7.014  18.640  0.00  0.00    +0.000 C 
ATOM      3  C   UNL     1       3.166   7.631  17.485  0.00  0.00    +0.000 C 
ATOM      4  C   UNL     1       4.582   7.184  17.760  0.00  0.00    +0.000 C 
ATOM      5  C   UNL     1       4.433   5.742  18.304  0.00  0.00    +0.000 C 
ATOM      6  C   UNL     1       5.576   5.418  19.292  0.00  0.00    +0.000 C 
ATOM      7  C   UNL     1       6.930   5.403  18.589  0.00  0.00    +0.000 C 
ATOM      8  C   UNL     1       6.940   4.400  17.434  0.00  0.00    +0.000 C 
ATOM      9  N   UNL     1       5.878   4.685  16.455  0.00  0.00    +0.000 NA
ATOM     10  C   UNL     1       4.544   4.717  17.114  0.00  0.00    +0.000 C 
ENDROOT
BRANCH   1  11
ATOM     11  C   UNL     1       2.875   5.256  20.260  0.00  0.00    +0.000 C 
BRANCH  11  12
ATOM     12  C   UNL     1       1.412   4.868  20.628  0.00  0.00    +0.000 C 
BRANCH  12  14
ATOM     13  C   UNL     1       0.877   2.770  19.568  0.00  0.00    +0.000 C 
ATOM     14  N   UNL     1       1.170   3.423  20.851  0.00  0.00    +0.000 NA
ATOM     15  C   UNL     1       2.310   2.758  21.484  0.00  0.00    +0.000 C 
ENDBRANCH  12  14
ENDBRANCH  11  12
ENDBRANCH   1  11
BRANCH   9  16
ATOM     16  C   UNL     1       5.875   3.669  15.376  0.00  0.00    +0.000 C 
BRANCH  16  17
ATOM     17  C   UNL     1       6.536   4.122  14.113  0.00  0.00    +0.000 A 
ATOM     18  C   UNL     1       7.414   5.144  13.806  0.00  0.00    +0.000 A 
ATOM     19  C   UNL     1       7.655   5.063  12.413  0.00  0.00    +0.000 A 
ATOM     20  C   UNL     1       6.916   3.998  11.959  0.00  0.00    +0.000 A 
ATOM     21  O   UNL     1       6.235   3.419  12.981  0.00  0.00    +0.000 OA
ENDBRANCH  16  17
ENDBRANCH   9  16
TORSDOF 5
ENDMDL
MODEL 3
REMARK VINA RESULT:      -6.3      2.123      6.393
REMARK  Name = 
REMARK  7 active torsions:
REMARK  status: ('A' for Active; 'I' for Inactive)
REMARK    1  A    between atoms: C_1  and  N_2
REMARK    2  A    between atoms: N_2  and  C_3
REMARK    3  A    between atoms: N_2  and  C_4
REMARK    4  A    between atoms: C_4  and  C_5
REMARK    5  A    between atoms: C_5  and  N_6
REMARK    6  A    between atoms: N_14  and  C_15
REMARK    7  A    between atoms: C_15  and  C_16
REMARK                            x       y       z     vdW  Elec       q    Type
REMARK                         _______ _______ _______ _____ _____    ______ ____
ROOT
ATOM      1  N   UNL     1       5.831   4.471  16.514  0.00  0.00    +0.000 NA
ATOM      2  C   UNL     1       7.294   4.507  16.690  0.00  0.00    +0.000 C 
ATOM      3  C   UNL     1       7.523   5.139  18.041  0.00  0.00    +0.000 C 
ATOM      4  C   UNL     1       6.446   6.199  18.075  0.00  0.00    +0.000 C 
ATOM      5  C   UNL     1       5.230   5.535  17.385  0.00  0.00    +0.000 C 
ATOM      6  C   UNL     1       4.366   6.602  16.676  0.00  0.00    +0.000 C 
ATOM      7  C   UNL     1       3.735   7.564  17.679  0.00  0.00    +0.000 C 
ATOM      8  C   UNL     1       2.892   6.810  18.708  0.00  0.00    +0.000 C 
ATOM      9  N   UNL     1       3.682   5.796  19.425  0.00  0.00    +0.000 NA
ATOM     10  C   UNL     1       4.319   4.848  18.471  0.00  0.00    +0.000 C 
ENDROOT
BRANCH   1  11
ATOM     11  C   UNL     1       5.470   4.485  15.077  0.00  0.00    +0.000 C 
BRANCH  11  12
ATOM     12  C   UNL     1       6.702   4.527  14.124  0.00  0.00    +0.000 C 
BRANCH  12  14
ATOM     13  C   UNL     1       5.175   3.532  12.548  0.00  0.00    +0.000 C 
ATOM     14  N   UNL     1       6.591   3.702  12.898  0.00  0.00    +0.000 NA
ATOM     15  C   UNL     1       7.303   4.291  11.764  0.00  0.00    +0.000 C 
ENDBRANCH  12  14
ENDBRANCH  11  12
ENDBRANCH   1  11
BRANCH   9  16
ATOM     16  C   UNL     1       2.830   5.044  20.377  0.00  0.00    +0.000 C 
BRANCH  16  17
ATOM     17  C   UNL     1       2.133   3.868  19.769  0.00  0.00    +0.000 A 
ATOM     18  C   UNL     1       1.053   3.730  18.919  0.00  0.00    +0.000 A 
ATOM     19  C   UNL     1       0.866   2.339  18.727  0.00  0.00    +0.000 A 
ATOM     20  C   UNL     1       1.844   1.718  19.465  0.00  0.00    +0.000 A 
ATOM     21  O   UNL     1       2.619   2.634  20.100  0.00  0.00    +0.000 OA
ENDBRANCH  16  17
ENDBRANCH   9  16
TORSDOF 5
ENDMDL
MODEL 4
REMARK VINA RESULT:      -6.3      1.459      2.644
REMARK  Name = 
REMARK  7 active torsions:
REMARK  status: ('A' for Active; 'I' for Inactive)
REMARK    1  A    between atoms: C_1  and  N_2
REMARK    2  A    between atoms: N_2  and  C_3
REMARK    3  A    between atoms: N_2  and  C_4
REMARK    4  A    between atoms: C_4  and  C_5
REMARK    5  A    between atoms: C_5  and  N_6
REMARK    6  A    between atoms: N_14  and  C_15
REMARK    7  A    between atoms: C_15  and  C_16
REMARK                            x       y       z     vdW  Elec       q    Type
REMARK                         _______ _______ _______ _____ _____    ______ ____
ROOT
ATOM      1  N   UNL     1       4.087   2.850  19.111  0.00  0.00    +0.000 NA
ATOM      2  C   UNL     1       3.078   1.861  18.689  0.00  0.00    +0.000 C 
ATOM      3  C   UNL     1       2.891   2.083  17.208  0.00  0.00    +0.000 C 
ATOM      4  C   UNL     1       2.977   3.588  17.105  0.00  0.00    +0.000 C 
ATOM      5  C   UNL     1       4.072   3.982  18.125  0.00  0.00    +0.000 C 
ATOM      6  C   UNL     1       3.793   5.391  18.697  0.00  0.00    +0.000 C 
ATOM      7  C   UNL     1       3.901   6.461  17.615  0.00  0.00    +0.000 C 
ATOM      8  C   UNL     1       5.278   6.433  16.949  0.00  0.00    +0.000 C 
ATOM      9  N   UNL     1       5.577   5.113  16.370  0.00  0.00    +0.000 NA
ATOM     10  C   UNL     1       5.469   4.045  17.401  0.00  0.00    +0.000 C 
ENDROOT
BRANCH   1  11
ATOM     11  C   UNL     1       3.926   3.193  20.543  0.00  0.00    +0.000 C 
BRANCH  11  12
ATOM     12  C   UNL     1       2.612   2.642  21.173  0.00  0.00    +0.000 C 
BRANCH  12  14
ATOM     13  C   UNL     1       1.997   4.972  21.220  0.00  0.00    +0.000 C 
ATOM     14  N   UNL     1       1.480   3.596  21.227  0.00  0.00    +0.000 NA
ATOM     15  C   UNL     1       0.550   3.422  20.112  0.00  0.00    +0.000 C 
ENDBRANCH  12  14
ENDBRANCH  11  12
ENDBRANCH   1  11
BRANCH   9  16
ATOM     16  C   UNL     1       6.937   5.096  15.780  0.00  0.00    +0.000 C 
BRANCH  16  17
ATOM     17  C   UNL     1       6.960   4.772  14.320  0.00  0.00    +0.000 A 
ATOM     18  C   UNL     1       6.304   3.844  13.534  0.00  0.00    +0.000 A 
ATOM     19  C   UNL     1       6.779   4.026  12.213  0.00  0.00    +0.000 A 
ATOM     20  C   UNL     1       7.689   5.054  12.273  0.00  0.00    +0.000 A 
ATOM     21  O   UNL     1       7.806   5.515  13.544  0.00  0.00    +0.000 OA
ENDBRANCH  16  17
ENDBRANCH   9  16
TORSDOF 5
ENDMDL
MODEL 5
REMARK VINA RESULT:      -6.2      2.195      6.673
REMARK  Name = 
REMARK  7 active torsions:
REMARK  status: ('A' for Active; 'I' for Inactive)
REMARK    1  A    between atoms: C_1  and  N_2
REMARK    2  A    between atoms: N_2  and  C_3
REMARK    3  A    between atoms: N_2  and  C_4
REMARK    4  A    between atoms: C_4  and  C_5
REMARK    5  A    between atoms: C_5  and  N_6
REMARK    6  A    between atoms: N_14  and  C_15
REMARK    7  A    between atoms: C_15  and  C_16
REMARK                            x       y       z     vdW  Elec       q    Type
REMARK                         _______ _______ _______ _____ _____    ______ ____
ROOT
ATOM      1  N   UNL     1       6.194   4.613  16.335  0.00  0.00    +0.000 NA
ATOM      2  C   UNL     1       7.440   4.442  17.105  0.00  0.00    +0.000 C 
ATOM      3  C   UNL     1       7.050   4.634  18.550  0.00  0.00    +0.000 C 
ATOM      4  C   UNL     1       6.033   5.747  18.454  0.00  0.00    +0.000 C 
ATOM      5  C   UNL     1       5.247   5.440  17.156  0.00  0.00    +0.000 C 
ATOM      6  C   UNL     1       4.740   6.750  16.512  0.00  0.00    +0.000 C 
ATOM      7  C   UNL     1       3.714   7.446  17.402  0.00  0.00    +0.000 C 
ATOM      8  C   UNL     1       2.533   6.522  17.706  0.00  0.00    +0.000 C 
ATOM      9  N   UNL     1       2.969   5.269  18.341  0.00  0.00    +0.000 NA
ATOM     10  C   UNL     1       3.980   4.572  17.500  0.00  0.00    +0.000 C 
ENDROOT
BRANCH   1  11
ATOM     11  C   UNL     1       6.481   5.075  14.957  0.00  0.00    +0.000 C 
BRANCH  11  12
ATOM     12  C   UNL     1       5.630   4.357  13.868  0.00  0.00    +0.000 C 
BRANCH  12  14
ATOM     13  C   UNL     1       5.471   2.973  11.901  0.00  0.00    +0.000 C 
ATOM     14  N   UNL     1       6.399   3.625  12.834  0.00  0.00    +0.000 NA
ATOM     15  C   UNL     1       7.302   4.502  12.087  0.00  0.00    +0.000 C 
ENDBRANCH  12  14
ENDBRANCH  11  12
ENDBRANCH   1  11
BRANCH   9  16
ATOM     16  C   UNL     1       1.814   4.370  18.575  0.00  0.00    +0.000 C 
BRANCH  16  17
ATOM     17  C   UNL     1       1.883   3.617  19.866  0.00  0.00    +0.000 A 
ATOM     18  C   UNL     1       0.957   3.306  20.844  0.00  0.00    +0.000 A 
ATOM     19  C   UNL     1       1.653   2.582  21.842  0.00  0.00    +0.000 A 
ATOM     20  C   UNL     1       2.954   2.492  21.411  0.00  0.00    +0.000 A 
ATOM     21  O   UNL     1       3.106   3.115  20.214  0.00  0.00    +0.000 OA
ENDBRANCH  16  17
ENDBRANCH   9  16
TORSDOF 5
ENDMDL
MODEL 6
REMARK VINA RESULT:      -6.1      2.090      6.449
REMARK  Name = 
REMARK  7 active torsions:
REMARK  status: ('A' for Active; 'I' for Inactive)
REMARK    1  A    between atoms: C_1  and  N_2
REMARK    2  A    between atoms: N_2  and  C_3
REMARK    3  A    between atoms: N_2  and  C_4
REMARK    4  A    between atoms: C_4  and  C_5
REMARK    5  A    between atoms: C_5  and  N_6
REMARK    6  A    between atoms: N_14  and  C_15
REMARK    7  A    between atoms: C_15  and  C_16
REMARK                            x       y       z     vdW  Elec       q    Type
REMARK                         _______ _______ _______ _____ _____    ______ ____
ROOT
ATOM      1  N   UNL     1       6.012   4.380  17.018  0.00  0.00    +0.000 NA
ATOM      2  C   UNL     1       7.447   4.526  17.324  0.00  0.00    +0.000 C 
ATOM      3  C   UNL     1       7.507   5.333  18.598  0.00  0.00    +0.000 C 
ATOM      4  C   UNL     1       6.382   6.322  18.393  0.00  0.00    +0.000 C 
ATOM      5  C   UNL     1       5.275   5.505  17.684  0.00  0.00    +0.000 C 
ATOM      6  C   UNL     1       4.436   6.421  16.765  0.00  0.00    +0.000 C 
ATOM      7  C   UNL     1       3.662   7.459  17.572  0.00  0.00    +0.000 C 
ATOM      8  C   UNL     1       2.757   6.789  18.606  0.00  0.00    +0.000 C 
ATOM      9  N   UNL     1       3.519   5.922  19.519  0.00  0.00    +0.000 NA
ATOM     10  C   UNL     1       4.294   4.904  18.760  0.00  0.00    +0.000 C 
ENDROOT
BRANCH   1  11
ATOM     11  C   UNL     1       5.797   4.193  15.564  0.00  0.00    +0.000 C 
BRANCH  11  12
ATOM     12  C   UNL     1       7.057   4.504  14.702  0.00  0.00    +0.000 C 
BRANCH  12  14
ATOM     13  C   UNL     1       7.997   5.353  12.652  0.00  0.00    +0.000 C 
ATOM     14  N   UNL     1       6.801   4.760  13.265  0.00  0.00    +0.000 NA
ATOM     15  C   UNL     1       6.437   3.543  12.539  0.00  0.00    +0.000 C 
ENDBRANCH  12  14
ENDBRANCH  11  12
ENDBRANCH   1  11
BRANCH   9  16
ATOM     16  C   UNL     1       2.613   5.244  20.476  0.00  0.00    +0.000 C 
BRANCH  16  17
ATOM     17  C   UNL     1       2.111   3.917  20.000  0.00  0.00    +0.000 A 
ATOM     18  C   UNL     1       2.425   2.608  20.308  0.00  0.00    +0.000 A 
ATOM     19  C   UNL     1       1.606   1.793  19.490  0.00  0.00    +0.000 A 
ATOM     20  C   UNL     1       0.841   2.652  18.739  0.00  0.00    +0.000 A 
ATOM     21  O   UNL     1       1.137   3.943  19.040  0.00  0.00    +0.000 OA
ENDBRANCH  16  17
ENDBRANCH   9  16
TORSDOF 5
ENDMDL
MODEL 7
REMARK VINA RESULT:      -6.0      3.312      6.800
REMARK  Name = 
REMARK  7 active torsions:
REMARK  status: ('A' for Active; 'I' for Inactive)
REMARK    1  A    between atoms: C_1  and  N_2
REMARK    2  A    between atoms: N_2  and  C_3
REMARK    3  A    between atoms: N_2  and  C_4
REMARK    4  A    between atoms: C_4  and  C_5
REMARK    5  A    between atoms: C_5  and  N_6
REMARK    6  A    between atoms: N_14  and  C_15
REMARK    7  A    between atoms: C_15  and  C_16
REMARK                            x       y       z     vdW  Elec       q    Type
REMARK                         _______ _______ _______ _____ _____    ______ ____
ROOT
ATOM      1  N   UNL     1       4.131   4.508  18.176  0.00  0.00    +0.000 NA
ATOM      2  C   UNL     1       3.578   3.350  17.450  0.00  0.00    +0.000 C 
ATOM      3  C   UNL     1       2.177   3.753  17.057  0.00  0.00    +0.000 C 
ATOM      4  C   UNL     1       1.724   4.531  18.271  0.00  0.00    +0.000 C 
ATOM      5  C   UNL     1       2.985   5.308  18.722  0.00  0.00    +0.000 C 
ATOM      6  C   UNL     1       2.962   5.527  20.252  0.00  0.00    +0.000 C 
ATOM      7  C   UNL     1       1.807   6.434  20.667  0.00  0.00    +0.000 C 
ATOM      8  C   UNL     1       1.881   7.782  19.949  0.00  0.00    +0.000 C 
ATOM      9  N   UNL     1       1.882   7.622  18.486  0.00  0.00    +0.000 NA
ATOM     10  C   UNL     1       2.993   6.733  18.050  0.00  0.00    +0.000 C 
ENDROOT
BRANCH   1  11
ATOM     11  C   UNL     1       5.179   4.082  19.132  0.00  0.00    +0.000 C 
BRANCH  11  12
ATOM     12  C   UNL     1       6.325   5.123  19.306  0.00  0.00    +0.000 C 
BRANCH  12  14
ATOM     13  C   UNL     1       7.853   6.728  18.359  0.00  0.00    +0.000 C 
ATOM     14  N   UNL     1       6.918   5.639  18.050  0.00  0.00    +0.000 NA
ATOM     15  C   UNL     1       7.616   4.598  17.296  0.00  0.00    +0.000 C 
ENDBRANCH  12  14
ENDBRANCH  11  12
ENDBRANCH   1  11
BRANCH   9  16
ATOM     16  C   UNL     1       2.008   8.938  17.815  0.00  0.00    +0.000 C 
BRANCH  16  17
ATOM     17  C   UNL     1       0.938   9.914  18.189  0.00  0.00    +0.000 A 
ATOM     18  C   UNL     1      -0.436   9.929  18.048  0.00  0.00    +0.000 A 
ATOM     19  C   UNL     1      -0.884  11.159  18.588  0.00  0.00    +0.000 A 
ATOM     20  C   UNL     1       0.241  11.814  19.028  0.00  0.00    +0.000 A 
ATOM     21  O   UNL     1       1.351  11.069  18.793  0.00  0.00    +0.000 OA
ENDBRANCH  16  17
ENDBRANCH   9  16
TORSDOF 5
ENDMDL
MODEL 8
REMARK VINA RESULT:      -5.9      3.379      6.822
REMARK  Name = 
REMARK  7 active torsions:
REMARK  status: ('A' for Active; 'I' for Inactive)
REMARK    1  A    between atoms: C_1  and  N_2
REMARK    2  A    between atoms: N_2  and  C_3
REMARK    3  A    between atoms: N_2  and  C_4
REMARK    4  A    between atoms: C_4  and  C_5
REMARK    5  A    between atoms: C_5  and  N_6
REMARK    6  A    between atoms: N_14  and  C_15
REMARK    7  A    between atoms: C_15  and  C_16
REMARK                            x       y       z     vdW  Elec       q    Type
REMARK                         _______ _______ _______ _____ _____    ______ ____
ROOT
ATOM      1  N   UNL     1       4.444   4.656  18.032  0.00  0.00    +0.000 NA
ATOM      2  C   UNL     1       3.987   3.496  17.245  0.00  0.00    +0.000 C 
ATOM      3  C   UNL     1       2.569   3.817  16.840  0.00  0.00    +0.000 C 
ATOM      4  C   UNL     1       2.040   4.507  18.076  0.00  0.00    +0.000 C 
ATOM      5  C   UNL     1       3.234   5.350  18.587  0.00  0.00    +0.000 C 
ATOM      6  C   UNL     1       3.168   5.499  20.124  0.00  0.00    +0.000 C 
ATOM      7  C   UNL     1       1.945   6.304  20.552  0.00  0.00    +0.000 C 
ATOM      8  C   UNL     1       1.937   7.684  19.894  0.00  0.00    +0.000 C 
ATOM      9  N   UNL     1       1.976   7.589  18.426  0.00  0.00    +0.000 NA
ATOM     10  C   UNL     1       3.154   6.799  17.977  0.00  0.00    +0.000 C 
ENDROOT
BRANCH   1  11
ATOM     11  C   UNL     1       5.502   4.262  18.991  0.00  0.00    +0.000 C 
BRANCH  11  12
ATOM     12  C   UNL     1       6.502   5.409  19.322  0.00  0.00    +0.000 C 
BRANCH  12  14
ATOM     13  C   UNL     1       7.717   4.453  17.473  0.00  0.00    +0.000 C 
ATOM     14  N   UNL     1       7.557   5.650  18.309  0.00  0.00    +0.000 NA
ATOM     15  C   UNL     1       7.258   6.801  17.457  0.00  0.00    +0.000 C 
ENDBRANCH  12  14
ENDBRANCH  11  12
ENDBRANCH   1  11
BRANCH   9  16
ATOM     16  C   UNL     1       2.022   8.939  17.815  0.00  0.00    +0.000 C 
BRANCH  16  17
ATOM     17  C   UNL     1       0.907   9.839  18.248  0.00  0.00    +0.000 A 
ATOM     18  C   UNL     1       0.820  10.898  19.130  0.00  0.00    +0.000 A 
ATOM     19  C   UNL     1      -0.530  11.324  19.117  0.00  0.00    +0.000 A 
ATOM     20  C   UNL     1      -1.180  10.503  18.227  0.00  0.00    +0.000 A 
ATOM     21  O   UNL     1      -0.319   9.600  17.693  0.00  0.00    +0.000 OA
ENDBRANCH  16  17
ENDBRANCH   9  16
TORSDOF 5
ENDMDL
MODEL 9
REMARK VINA RESULT:      -5.7      2.694      4.575
REMARK  Name = 
REMARK  7 active torsions:
REMARK  status: ('A' for Active; 'I' for Inactive)
REMARK    1  A    between atoms: C_1  and  N_2
REMARK    2  A    between atoms: N_2  and  C_3
REMARK    3  A    between atoms: N_2  and  C_4
REMARK    4  A    between atoms: C_4  and  C_5
REMARK    5  A    between atoms: C_5  and  N_6
REMARK    6  A    between atoms: N_14  and  C_15
REMARK    7  A    between atoms: C_15  and  C_16
REMARK                            x       y       z     vdW  Elec       q    Type
REMARK                         _______ _______ _______ _____ _____    ______ ____
ROOT
ATOM      1  N   UNL     1       2.818   5.134  20.238  0.00  0.00    +0.000 NA
ATOM      2  C   UNL     1       2.273   4.149  21.190  0.00  0.00    +0.000 C 
ATOM      3  C   UNL     1       3.146   2.926  21.049  0.00  0.00    +0.000 C 
ATOM      4  C   UNL     1       3.405   2.899  19.560  0.00  0.00    +0.000 C 
ATOM      5  C   UNL     1       3.562   4.389  19.169  0.00  0.00    +0.000 C 
ATOM      6  C   UNL     1       3.092   4.615  17.715  0.00  0.00    +0.000 C 
ATOM      7  C   UNL     1       3.987   3.881  16.720  0.00  0.00    +0.000 C 
ATOM      8  C   UNL     1       5.446   4.315  16.870  0.00  0.00    +0.000 C 
ATOM      9  N   UNL     1       5.944   4.096  18.237  0.00  0.00    +0.000 NA
ATOM     10  C   UNL     1       5.083   4.792  19.232  0.00  0.00    +0.000 C 
ENDROOT
BRANCH   1  11
ATOM     11  C   UNL     1       1.769   6.084  19.800  0.00  0.00    +0.000 C 
BRANCH  11  12
ATOM     12  C   UNL     1       2.306   7.520  19.518  0.00  0.00    +0.000 C 
BRANCH  12  14
ATOM     13  C   UNL     1       0.947   9.508  19.423  0.00  0.00    +0.000 C 
ATOM     14  N   UNL     1       1.683   8.603  20.315  0.00  0.00    +0.000 NA
ATOM     15  C   UNL     1       0.776   8.089  21.341  0.00  0.00    +0.000 C 
ENDBRANCH  12  14
ENDBRANCH  11  12
ENDBRANCH   1  11
BRANCH   9  16
ATOM     16  C   UNL     1       7.341   4.574  18.369  0.00  0.00    +0.000 C 
BRANCH  16  17
ATOM     17  C   UNL     1       7.510   6.036  18.101  0.00  0.00    +0.000 A 
ATOM     18  C   UNL     1       7.068   6.883  17.104  0.00  0.00    +0.000 A 
ATOM     19  C   UNL     1       7.589   8.165  17.404  0.00  0.00    +0.000 A 
ATOM     20  C   UNL     1       8.310   8.022  18.565  0.00  0.00    +0.000 A 
ATOM     21  O   UNL     1       8.268   6.736  18.998  0.00  0.00    +0.000 OA
ENDBRANCH  16  17
ENDBRANCH   9  16
TORSDOF 5
ENDMDL
