MODEL 1
REMARK VINA RESULT:      -8.5      0.000      0.000
REMARK  Name = 
REMARK  6 active torsions:
REMARK  status: ('A' for Active; 'I' for Inactive)
REMARK    1  A    between atoms: C_1  and  C_2
REMARK    2  A    between atoms: C_4  and  C_5
REMARK    3  A    between atoms: N_6  and  C_7
REMARK    4  A    between atoms: C_7  and  O_8
REMARK    5  A    between atoms: O_8  and  C_9
REMARK    6  A    between atoms: C_12  and  C_13
REMARK                            x       y       z     vdW  Elec       q    Type
REMARK                         _______ _______ _______ _____ _____    ______ ____
ROOT
ATOM      1  C   UNL     1       3.105   6.186  17.759  0.00  0.00    +0.000 A 
ATOM      2  N   UNL     1       4.172   6.141  17.034  0.00  0.00    +0.000 NA
ATOM      3  N   UNL     1       5.110   5.266  17.585  0.00  0.00    +0.000 N 
ATOM      4  C   UNL     1       6.190   4.671  16.954  0.00  0.00    +0.000 A 
ATOM      5  N   UNL     1       6.877   3.982  17.855  0.00  0.00    +0.000 NA
ATOM      6  N   UNL     1       6.195   4.009  19.052  0.00  0.00    +0.000 NA
ATOM      7  C   UNL     1       5.092   4.695  18.862  0.00  0.00    +0.000 A 
ATOM      8  C   UNL     1       3.849   4.702  19.558  0.00  0.00    +0.000 A 
ATOM      9  C   UNL     1       2.834   5.296  18.897  0.00  0.00    +0.000 A 
ATOM     10  C   UNL     1       1.502   4.612  19.058  0.00  0.00    +0.000 C 
ATOM     11  C   UNL     1       1.109   4.889  20.507  0.00  0.00    +0.000 C 
ATOM     12  C   UNL     1       2.194   4.322  21.450  0.00  0.00    +0.000 C 
ATOM     13  C   UNL     1       3.373   3.715  20.630  0.00  0.00    +0.000 C 
ATOM     14  C   UNL     1       2.763   2.527  19.869  0.00  0.00    +0.000 C 
ATOM     15  C   UNL     1       1.786   3.087  18.809  0.00  0.00    +0.000 C 
ENDROOT
BRANCH   4  16
ATOM     16  C   UNL     1       6.418   4.663  15.508  0.00  0.00    +0.000 A 
ATOM     17  C   UNL     1       5.634   3.904  14.631  0.00  0.00    +0.000 A 
ATOM     18  C   UNL     1       5.912   3.871  13.261  0.00  0.00    +0.000 A 
ATOM     19  C   UNL     1       6.982   4.603  12.752  0.00  0.00    +0.000 A 
ATOM     20  C   UNL     1       7.770   5.368  13.607  0.00  0.00    +0.000 A 
ATOM     21  C   UNL     1       7.492   5.397  14.976  0.00  0.00    +0.000 A 
ENDBRANCH   4  16
BRANCH   1  22
ATOM     22  O   UNL     1       2.091   7.071  17.592  0.00  0.00    +0.000 OA
BRANCH  22  23
ATOM     23  C   UNL     1       2.294   8.460  17.930  0.00  0.00    +0.000 C 
BRANCH  23  29
ATOM     24  C   UNL     1      -1.525  11.453  18.379  0.00  0.00    +0.000 C 
ATOM     25  C   UNL     1      -0.486  10.464  18.768  0.00  0.00    +0.000 A 
ATOM     26  C   UNL     1      -0.185  10.024  20.075  0.00  0.00    +0.000 A 
ATOM     27  C   UNL     1       0.852   9.127  19.936  0.00  0.00    +0.000 A 
ATOM     28  C   UNL     1       1.570   8.357  20.976  0.00  0.00    +0.000 C 
ATOM     29  N   UNL     1       1.127   9.062  18.589  0.00  0.00    +0.000 N 
ATOM     30  N   UNL     1       0.306   9.877  17.860  0.00  0.00    +0.000 NA
ENDBRANCH  23  29
ENDBRANCH  22  23
ENDBRANCH   1  22
TORSDOF 4
ENDMDL
MODEL 2
REMARK VINA RESULT:      -8.1      0.587      1.492
REMARK  Name = 
REMARK  6 active torsions:
REMARK  status: ('A' for Active; 'I' for Inactive)
REMARK    1  A    between atoms: C_1  and  C_2
REMARK    2  A    between atoms: C_4  and  C_5
REMARK    3  A    between atoms: N_6  and  C_7
REMARK    4  A    between atoms: C_7  and  O_8
REMARK    5  A    between atoms: O_8  and  C_9
REMARK    6  A    between atoms: C_12  and  C_13
REMARK                            x       y       z     vdW  Elec       q    Type
REMARK                         _______ _______ _______ _____ _____    ______ ____
ROOT
ATOM      1  C   UNL     1       2.981   6.153  17.788  0.00  0.00    +0.000 A 
ATOM      2  N   UNL     1       4.049   6.127  17.063  0.00  0.00    +0.000 NA
ATOM      3  N   UNL     1       5.012   5.290  17.630  0.00  0.00    +0.000 N 
ATOM      4  C   UNL     1       6.110   4.718  17.009  0.00  0.00    +0.000 A 
ATOM      5  N   UNL     1       6.817   4.066  17.922  0.00  0.00    +0.000 NA
ATOM      6  N   UNL     1       6.134   4.094  19.118  0.00  0.00    +0.000 NA
ATOM      7  C   UNL     1       5.011   4.742  18.917  0.00  0.00    +0.000 A 
ATOM      8  C   UNL     1       3.768   4.724  19.613  0.00  0.00    +0.000 A 
ATOM      9  C   UNL     1       2.736   5.275  18.941  0.00  0.00    +0.000 A 
ATOM     10  C   UNL     1       1.425   4.554  19.115  0.00  0.00    +0.000 C 
ATOM     11  C   UNL     1       1.023   4.845  20.559  0.00  0.00    +0.000 C 
ATOM     12  C   UNL     1       2.124   4.328  21.511  0.00  0.00    +0.000 C 
ATOM     13  C   UNL     1       3.322   3.743  20.703  0.00  0.00    +0.000 C 
ATOM     14  C   UNL     1       2.749   2.523  19.963  0.00  0.00    +0.000 C 
ATOM     15  C   UNL     1       1.755   3.034  18.893  0.00  0.00    +0.000 C 
ENDROOT
BRANCH   4  16
ATOM     16  C   UNL     1       6.339   4.691  15.563  0.00  0.00    +0.000 A 
ATOM     17  C   UNL     1       5.540   3.939  14.693  0.00  0.00    +0.000 A 
ATOM     18  C   UNL     1       5.817   3.887  13.324  0.00  0.00    +0.000 A 
ATOM     19  C   UNL     1       6.903   4.591  12.809  0.00  0.00    +0.000 A 
ATOM     20  C   UNL     1       7.708   5.347  13.657  0.00  0.00    +0.000 A 
ATOM     21  C   UNL     1       7.429   5.396  15.026  0.00  0.00    +0.000 A 
ENDBRANCH   4  16
BRANCH   1  22
ATOM     22  O   UNL     1       1.940   7.003  17.604  0.00  0.00    +0.000 OA
BRANCH  22  23
ATOM     23  C   UNL     1       2.151   8.425  17.733  0.00  0.00    +0.000 C 
BRANCH  23  29
ATOM     24  C   UNL     1       0.954   8.961  22.426  0.00  0.00    +0.000 C 
ATOM     25  C   UNL     1       0.890   9.133  20.951  0.00  0.00    +0.000 A 
ATOM     26  C   UNL     1      -0.144   9.751  20.217  0.00  0.00    +0.000 A 
ATOM     27  C   UNL     1       0.230   9.656  18.894  0.00  0.00    +0.000 A 
ATOM     28  C   UNL     1      -0.475  10.133  17.684  0.00  0.00    +0.000 C 
ATOM     29  N   UNL     1       1.442   9.004  18.883  0.00  0.00    +0.000 N 
ATOM     30  N   UNL     1       1.860   8.682  20.145  0.00  0.00    +0.000 NA
ENDBRANCH  23  29
ENDBRANCH  22  23
ENDBRANCH   1  22
TORSDOF 4
ENDMDL
MODEL 3
REMARK VINA RESULT:      -8.0      0.816      1.636
REMARK  Name = 
REMARK  6 active torsions:
REMARK  status: ('A' for Active; 'I' for Inactive)
REMARK    1  A    between atoms: C_1  and  C_2
REMARK    2  A    between atoms: C_4  and  C_5
REMARK    3  A    between atoms: N_6  and  C_7
REMARK    4  A    between atoms: C_7  and  O_8
REMARK    5  A    between atoms: O_8  and  C_9
REMARK    6  A    between atoms: C_12  and  C_13
REMARK                            x       y       z     vdW  Elec       q    Type
REMARK                         _______ _______ _______ _____ _____    ______ ____
ROOT
ATOM      1  C   UNL     1       3.158   6.192  17.779  0.00  0.00    +0.000 A 
ATOM      2  N   UNL     1       4.241   6.137  17.079  0.00  0.00    +0.000 NA
ATOM      3  N   UNL     1       5.163   5.264  17.658  0.00  0.00    +0.000 N 
ATOM      4  C   UNL     1       6.256   4.661  17.057  0.00  0.00    +0.000 A 
ATOM      5  N   UNL     1       6.920   3.978  17.980  0.00  0.00    +0.000 NA
ATOM      6  N   UNL     1       6.210   4.017  19.160  0.00  0.00    +0.000 NA
ATOM      7  C   UNL     1       5.114   4.704  18.940  0.00  0.00    +0.000 A 
ATOM      8  C   UNL     1       3.855   4.720  19.606  0.00  0.00    +0.000 A 
ATOM      9  C   UNL     1       2.857   5.312  18.916  0.00  0.00    +0.000 A 
ATOM     10  C   UNL     1       1.520   4.632  19.052  0.00  0.00    +0.000 C 
ATOM     11  C   UNL     1       1.094   4.923  20.489  0.00  0.00    +0.000 C 
ATOM     12  C   UNL     1       2.155   4.360  21.462  0.00  0.00    +0.000 C 
ATOM     13  C   UNL     1       3.352   3.744  20.675  0.00  0.00    +0.000 C 
ATOM     14  C   UNL     1       2.756   2.551  19.909  0.00  0.00    +0.000 C 
ATOM     15  C   UNL     1       1.805   3.105  18.822  0.00  0.00    +0.000 C 
ENDROOT
BRANCH   4  16
ATOM     16  C   UNL     1       6.518   4.641  15.617  0.00  0.00    +0.000 A 
ATOM     17  C   UNL     1       7.521   5.421  15.028  0.00  0.00    +0.000 A 
ATOM     18  C   UNL     1       7.711   5.425  13.644  0.00  0.00    +0.000 A 
ATOM     19  C   UNL     1       6.895   4.643  12.829  0.00  0.00    +0.000 A 
ATOM     20  C   UNL     1       5.894   3.859  13.395  0.00  0.00    +0.000 A 
ATOM     21  C   UNL     1       5.706   3.858  14.780  0.00  0.00    +0.000 A 
ENDBRANCH   4  16
BRANCH   1  22
ATOM     22  O   UNL     1       2.150   7.078  17.580  0.00  0.00    +0.000 OA
BRANCH  22  23
ATOM     23  C   UNL     1       2.425   8.494  17.640  0.00  0.00    +0.000 C 
BRANCH  23  29
ATOM     24  C   UNL     1      -0.192   8.748  21.742  0.00  0.00    +0.000 C 
ATOM     25  C   UNL     1       0.583   9.212  20.562  0.00  0.00    +0.000 A 
ATOM     26  C   UNL     1       0.708  10.540  20.101  0.00  0.00    +0.000 A 
ATOM     27  C   UNL     1       1.504  10.471  18.978  0.00  0.00    +0.000 A 
ATOM     28  C   UNL     1       1.962  11.560  18.087  0.00  0.00    +0.000 C 
ATOM     29  N   UNL     1       1.820   9.142  18.812  0.00  0.00    +0.000 N 
ATOM     30  N   UNL     1       1.263   8.359  19.784  0.00  0.00    +0.000 NA
ENDBRANCH  23  29
ENDBRANCH  22  23
ENDBRANCH   1  22
TORSDOF 4
ENDMDL
MODEL 4
REMARK VINA RESULT:      -7.3      5.412      8.979
REMARK  Name = 
REMARK  6 active torsions:
REMARK  status: ('A' for Active; 'I' for Inactive)
REMARK    1  A    between atoms: C_1  and  C_2
REMARK    2  A    between atoms: C_4  and  C_5
REMARK    3  A    between atoms: N_6  and  C_7
REMARK    4  A    between atoms: C_7  and  O_8
REMARK    5  A    between atoms: O_8  and  C_9
REMARK    6  A    between atoms: C_12  and  C_13
REMARK                            x       y       z     vdW  Elec       q    Type
REMARK                         _______ _______ _______ _____ _____    ______ ____
ROOT
ATOM      1  C   UNL     1       0.399  13.300  21.485  0.00  0.00    +0.000 A 
ATOM      2  N   UNL     1       0.968  12.174  21.212  0.00  0.00    +0.000 NA
ATOM      3  N   UNL     1       0.277  11.114  21.802  0.00  0.00    +0.000 N 
ATOM      4  C   UNL     1       0.336   9.771  21.468  0.00  0.00    +0.000 A 
ATOM      5  N   UNL     1      -0.405   9.090  22.331  0.00  0.00    +0.000 NA
ATOM      6  N   UNL     1      -1.057   9.979  23.158  0.00  0.00    +0.000 NA
ATOM      7  C   UNL     1      -0.723  11.189  22.778  0.00  0.00    +0.000 A 
ATOM      8  C   UNL     1      -1.367  12.448  22.950  0.00  0.00    +0.000 A 
ATOM      9  C   UNL     1      -0.900  13.435  22.157  0.00  0.00    +0.000 A 
ATOM     10  C   UNL     1      -1.964  14.364  21.631  0.00  0.00    +0.000 C 
ATOM     11  C   UNL     1      -2.408  15.160  22.856  0.00  0.00    +0.000 C 
ATOM     12  C   UNL     1      -2.939  14.188  23.934  0.00  0.00    +0.000 C 
ATOM     13  C   UNL     1      -2.787  12.708  23.464  0.00  0.00    +0.000 C 
ATOM     14  C   UNL     1      -3.708  12.580  22.239  0.00  0.00    +0.000 C 
ATOM     15  C   UNL     1      -3.105  13.428  21.094  0.00  0.00    +0.000 C 
ENDROOT
BRANCH   4  16
ATOM     16  C   UNL     1       0.963   9.233  20.259  0.00  0.00    +0.000 A 
ATOM     17  C   UNL     1       0.770   9.806  18.997  0.00  0.00    +0.000 A 
ATOM     18  C   UNL     1       1.335   9.237  17.853  0.00  0.00    +0.000 A 
ATOM     19  C   UNL     1       2.105   8.081  17.961  0.00  0.00    +0.000 A 
ATOM     20  C   UNL     1       2.312   7.498  19.207  0.00  0.00    +0.000 A 
ATOM     21  C   UNL     1       1.745   8.069  20.350  0.00  0.00    +0.000 A 
ENDBRANCH   4  16
BRANCH   1  22
ATOM     22  O   UNL     1       0.925  14.520  21.211  0.00  0.00    +0.000 OA
BRANCH  22  23
ATOM     23  C   UNL     1       1.094  14.931  19.838  0.00  0.00    +0.000 C 
BRANCH  23  29
ATOM     24  C   UNL     1       5.460  16.919  18.984  0.00  0.00    +0.000 C 
ATOM     25  C   UNL     1       4.375  15.903  18.979  0.00  0.00    +0.000 A 
ATOM     26  C   UNL     1       4.357  14.689  18.261  0.00  0.00    +0.000 A 
ATOM     27  C   UNL     1       3.148  14.098  18.558  0.00  0.00    +0.000 A 
ATOM     28  C   UNL     1       2.593  12.811  18.083  0.00  0.00    +0.000 C 
ATOM     29  N   UNL     1       2.503  14.955  19.420  0.00  0.00    +0.000 N 
ATOM     30  N   UNL     1       3.252  16.068  19.690  0.00  0.00    +0.000 NA
ENDBRANCH  23  29
ENDBRANCH  22  23
ENDBRANCH   1  22
TORSDOF 4
ENDMDL
MODEL 5
REMARK VINA RESULT:      -7.2      7.790     11.147
REMARK  Name = 
REMARK  6 active torsions:
REMARK  status: ('A' for Active; 'I' for Inactive)
REMARK    1  A    between atoms: C_1  and  C_2
REMARK    2  A    between atoms: C_4  and  C_5
REMARK    3  A    between atoms: N_6  and  C_7
REMARK    4  A    between atoms: C_7  and  O_8
REMARK    5  A    between atoms: O_8  and  C_9
REMARK    6  A    between atoms: C_12  and  C_13
REMARK                            x       y       z     vdW  Elec       q    Type
REMARK                         _______ _______ _______ _____ _____    ______ ____
ROOT
ATOM      1  C   UNL     1      -4.353  12.729  19.921  0.00  0.00    +0.000 A 
ATOM      2  N   UNL     1      -3.135  12.483  20.269  0.00  0.00    +0.000 NA
ATOM      3  N   UNL     1      -2.821  13.129  21.466  0.00  0.00    +0.000 N 
ATOM      4  C   UNL     1      -1.785  12.842  22.340  0.00  0.00    +0.000 A 
ATOM      5  N   UNL     1      -1.788  13.748  23.308  0.00  0.00    +0.000 NA
ATOM      6  N   UNL     1      -2.891  14.559  23.156  0.00  0.00    +0.000 NA
ATOM      7  C   UNL     1      -3.559  14.127  22.113  0.00  0.00    +0.000 A 
ATOM      8  C   UNL     1      -4.925  14.270  21.735  0.00  0.00    +0.000 A 
ATOM      9  C   UNL     1      -5.334  13.429  20.762  0.00  0.00    +0.000 A 
ATOM     10  C   UNL     1      -6.732  12.898  20.947  0.00  0.00    +0.000 C 
ATOM     11  C   UNL     1      -7.630  14.105  20.687  0.00  0.00    +0.000 C 
ATOM     12  C   UNL     1      -7.279  15.230  21.686  0.00  0.00    +0.000 C 
ATOM     13  C   UNL     1      -6.078  14.810  22.588  0.00  0.00    +0.000 C 
ATOM     14  C   UNL     1      -6.591  13.615  23.409  0.00  0.00    +0.000 C 
ATOM     15  C   UNL     1      -6.801  12.425  22.443  0.00  0.00    +0.000 C 
ENDROOT
BRANCH   4  16
ATOM     16  C   UNL     1      -0.953  11.638  22.291  0.00  0.00    +0.000 A 
ATOM     17  C   UNL     1      -1.087  10.598  23.219  0.00  0.00    +0.000 A 
ATOM     18  C   UNL     1      -0.240   9.486  23.182  0.00  0.00    +0.000 A 
ATOM     19  C   UNL     1       0.754   9.403  22.209  0.00  0.00    +0.000 A 
ATOM     20  C   UNL     1       0.900  10.425  21.275  0.00  0.00    +0.000 A 
ATOM     21  C   UNL     1       0.053  11.536  21.316  0.00  0.00    +0.000 A 
ENDBRANCH   4  16
BRANCH   1  22
ATOM     22  O   UNL     1      -4.900  12.397  18.724  0.00  0.00    +0.000 OA
BRANCH  22  23
ATOM     23  C   UNL     1      -4.899  11.018  18.299  0.00  0.00    +0.000 C 
BRANCH  23  29
ATOM     24  C   UNL     1      -3.529  10.086  13.716  0.00  0.00    +0.000 C 
ATOM     25  C   UNL     1      -3.416  10.262  15.188  0.00  0.00    +0.000 A 
ATOM     26  C   UNL     1      -2.309   9.931  15.996  0.00  0.00    +0.000 A 
ATOM     27  C   UNL     1      -2.676  10.258  17.284  0.00  0.00    +0.000 A 
ATOM     28  C   UNL     1      -1.906  10.122  18.540  0.00  0.00    +0.000 C 
ATOM     29  N   UNL     1      -3.954  10.761  17.203  0.00  0.00    +0.000 N 
ATOM     30  N   UNL     1      -4.418  10.773  15.916  0.00  0.00    +0.000 NA
ENDBRANCH  23  29
ENDBRANCH  22  23
ENDBRANCH   1  22
TORSDOF 4
ENDMDL
MODEL 6
REMARK VINA RESULT:      -7.2      5.391      9.089
REMARK  Name = 
REMARK  6 active torsions:
REMARK  status: ('A' for Active; 'I' for Inactive)
REMARK    1  A    between atoms: C_1  and  C_2
REMARK    2  A    between atoms: C_4  and  C_5
REMARK    3  A    between atoms: N_6  and  C_7
REMARK    4  A    between atoms: C_7  and  O_8
REMARK    5  A    between atoms: O_8  and  C_9
REMARK    6  A    between atoms: C_12  and  C_13
REMARK                            x       y       z     vdW  Elec       q    Type
REMARK                         _______ _______ _______ _____ _____    ______ ____
ROOT
ATOM      1  C   UNL     1       0.373  13.288  21.232  0.00  0.00    +0.000 A 
ATOM      2  N   UNL     1       0.947  12.148  21.038  0.00  0.00    +0.000 NA
ATOM      3  N   UNL     1       0.282  11.134  21.729  0.00  0.00    +0.000 N 
ATOM      4  C   UNL     1       0.347   9.769  21.503  0.00  0.00    +0.000 A 
ATOM      5  N   UNL     1      -0.366   9.154  22.436  0.00  0.00    +0.000 NA
ATOM      6  N   UNL     1      -1.007  10.101  23.204  0.00  0.00    +0.000 NA
ATOM      7  C   UNL     1      -0.696  11.280  22.719  0.00  0.00    +0.000 A 
ATOM      8  C   UNL     1      -1.349  12.543  22.804  0.00  0.00    +0.000 A 
ATOM      9  C   UNL     1      -0.912  13.466  21.922  0.00  0.00    +0.000 A 
ATOM     10  C   UNL     1      -1.997  14.340  21.349  0.00  0.00    +0.000 C 
ATOM     11  C   UNL     1      -2.420  15.229  22.516  0.00  0.00    +0.000 C 
ATOM     12  C   UNL     1      -2.916  14.343  23.681  0.00  0.00    +0.000 C 
ATOM     13  C   UNL     1      -2.759  12.832  23.329  0.00  0.00    +0.000 C 
ATOM     14  C   UNL     1      -3.707  12.596  22.142  0.00  0.00    +0.000 C 
ATOM     15  C   UNL     1      -3.140  13.353  20.918  0.00  0.00    +0.000 C 
ENDROOT
BRANCH   4  16
ATOM     16  C   UNL     1       0.952   9.139  20.328  0.00  0.00    +0.000 A 
ATOM     17  C   UNL     1       1.720   7.972  20.416  0.00  0.00    +0.000 A 
ATOM     18  C   UNL     1       2.333   7.426  19.286  0.00  0.00    +0.000 A 
ATOM     19  C   UNL     1       2.181   8.044  18.047  0.00  0.00    +0.000 A 
ATOM     20  C   UNL     1       1.418   9.203  17.937  0.00  0.00    +0.000 A 
ATOM     21  C   UNL     1       0.807   9.748  19.070  0.00  0.00    +0.000 A 
ENDBRANCH   4  16
BRANCH   1  22
ATOM     22  O   UNL     1       0.880  14.487  20.847  0.00  0.00    +0.000 OA
BRANCH  22  23
ATOM     23  C   UNL     1       1.412  14.640  19.515  0.00  0.00    +0.000 C 
BRANCH  23  29
ATOM     24  C   UNL     1      -1.278  18.327  17.806  0.00  0.00    +0.000 C 
ATOM     25  C   UNL     1      -0.066  17.527  18.126  0.00  0.00    +0.000 A 
ATOM     26  C   UNL     1       1.250  17.770  17.679  0.00  0.00    +0.000 A 
ATOM     27  C   UNL     1       2.019  16.762  18.219  0.00  0.00    +0.000 A 
ATOM     28  C   UNL     1       3.471  16.517  18.081  0.00  0.00    +0.000 C 
ATOM     29  N   UNL     1       1.161  15.974  18.952  0.00  0.00    +0.000 N 
ATOM     30  N   UNL     1      -0.125  16.439  18.905  0.00  0.00    +0.000 NA
ENDBRANCH  23  29
ENDBRANCH  22  23
ENDBRANCH   1  22
TORSDOF 4
ENDMDL
MODEL 7
REMARK VINA RESULT:      -7.1      6.491     12.166
REMARK  Name = 
REMARK  6 active torsions:
REMARK  status: ('A' for Active; 'I' for Inactive)
REMARK    1  A    between atoms: C_1  and  C_2
REMARK    2  A    between atoms: C_4  and  C_5
REMARK    3  A    between atoms: N_6  and  C_7
REMARK    4  A    between atoms: C_7  and  O_8
REMARK    5  A    between atoms: O_8  and  C_9
REMARK    6  A    between atoms: C_12  and  C_13
REMARK                            x       y       z     vdW  Elec       q    Type
REMARK                         _______ _______ _______ _____ _____    ______ ____
ROOT
ATOM      1  C   UNL     1      -2.337  13.541  21.637  0.00  0.00    +0.000 A 
ATOM      2  N   UNL     1      -3.304  12.875  21.101  0.00  0.00    +0.000 NA
ATOM      3  N   UNL     1      -4.372  12.748  21.990  0.00  0.00    +0.000 N 
ATOM      4  C   UNL     1      -5.690  12.441  21.696  0.00  0.00    +0.000 A 
ATOM      5  N   UNL     1      -6.361  12.331  22.834  0.00  0.00    +0.000 NA
ATOM      6  N   UNL     1      -5.532  12.687  23.876  0.00  0.00    +0.000 NA
ATOM      7  C   UNL     1      -4.375  13.028  23.361  0.00  0.00    +0.000 A 
ATOM      8  C   UNL     1      -3.322  13.850  23.856  0.00  0.00    +0.000 A 
ATOM      9  C   UNL     1      -2.422  14.237  22.928  0.00  0.00    +0.000 A 
ATOM     10  C   UNL     1      -1.928  15.651  23.093  0.00  0.00    +0.000 C 
ATOM     11  C   UNL     1      -1.055  15.601  24.345  0.00  0.00    +0.000 C 
ATOM     12  C   UNL     1      -1.903  15.118  25.543  0.00  0.00    +0.000 C 
ATOM     13  C   UNL     1      -3.352  14.766  25.086  0.00  0.00    +0.000 C 
ATOM     14  C   UNL     1      -3.955  16.096  24.606  0.00  0.00    +0.000 C 
ATOM     15  C   UNL     1      -3.219  16.518  23.312  0.00  0.00    +0.000 C 
ENDROOT
BRANCH   4  16
ATOM     16  C   UNL     1      -6.269  12.423  20.351  0.00  0.00    +0.000 A 
ATOM     17  C   UNL     1      -6.152  11.316  19.501  0.00  0.00    +0.000 A 
ATOM     18  C   UNL     1      -6.665  11.349  18.202  0.00  0.00    +0.000 A 
ATOM     19  C   UNL     1      -7.305  12.495  17.737  0.00  0.00    +0.000 A 
ATOM     20  C   UNL     1      -7.436  13.604  18.568  0.00  0.00    +0.000 A 
ATOM     21  C   UNL     1      -6.920  13.569  19.867  0.00  0.00    +0.000 A 
ENDBRANCH   4  16
BRANCH   1  22
ATOM     22  O   UNL     1      -1.099  13.680  21.100  0.00  0.00    +0.000 OA
BRANCH  22  23
ATOM     23  C   UNL     1       0.023  13.013  21.715  0.00  0.00    +0.000 C 
BRANCH  23  29
ATOM     24  C   UNL     1       0.977   9.686  18.285  0.00  0.00    +0.000 C 
ATOM     25  C   UNL     1       0.586  10.241  19.608  0.00  0.00    +0.000 A 
ATOM     26  C   UNL     1       0.029   9.528  20.692  0.00  0.00    +0.000 A 
ATOM     27  C   UNL     1      -0.178  10.462  21.684  0.00  0.00    +0.000 A 
ATOM     28  C   UNL     1      -0.741  10.278  23.039  0.00  0.00    +0.000 C 
ATOM     29  N   UNL     1       0.252  11.666  21.174  0.00  0.00    +0.000 N 
ATOM     30  N   UNL     1       0.729  11.540  19.899  0.00  0.00    +0.000 NA
ENDBRANCH  23  29
ENDBRANCH  22  23
ENDBRANCH   1  22
TORSDOF 4
ENDMDL
MODEL 8
REMARK VINA RESULT:      -7.1      5.320      8.965
REMARK  Name = 
REMARK  6 active torsions:
REMARK  status: ('A' for Active; 'I' for Inactive)
REMARK    1  A    between atoms: C_1  and  C_2
REMARK    2  A    between atoms: C_4  and  C_5
REMARK    3  A    between atoms: N_6  and  C_7
REMARK    4  A    between atoms: C_7  and  O_8
REMARK    5  A    between atoms: O_8  and  C_9
REMARK    6  A    between atoms: C_12  and  C_13
REMARK                            x       y       z     vdW  Elec       q    Type
REMARK                         _______ _______ _______ _____ _____    ______ ____
ROOT
ATOM      1  C   UNL     1       0.596  13.217  21.451  0.00  0.00    +0.000 A 
ATOM      2  N   UNL     1       1.134  12.074  21.185  0.00  0.00    +0.000 NA
ATOM      3  N   UNL     1       0.396  11.034  21.753  0.00  0.00    +0.000 N 
ATOM      4  C   UNL     1       0.419   9.692  21.411  0.00  0.00    +0.000 A 
ATOM      5  N   UNL     1      -0.364   9.031  22.253  0.00  0.00    +0.000 NA
ATOM      6  N   UNL     1      -1.005   9.936  23.070  0.00  0.00    +0.000 NA
ATOM      7  C   UNL     1      -0.623  11.137  22.705  0.00  0.00    +0.000 A 
ATOM      8  C   UNL     1      -1.230  12.416  22.870  0.00  0.00    +0.000 A 
ATOM      9  C   UNL     1      -0.714  13.391  22.093  0.00  0.00    +0.000 A 
ATOM     10  C   UNL     1      -1.734  14.357  21.549  0.00  0.00    +0.000 C 
ATOM     11  C   UNL     1      -2.180  15.160  22.769  0.00  0.00    +0.000 C 
ATOM     12  C   UNL     1      -2.767  14.200  23.828  0.00  0.00    +0.000 C 
ATOM     13  C   UNL     1      -2.653  12.719  23.352  0.00  0.00    +0.000 C 
ATOM     14  C   UNL     1      -3.549  12.627  22.106  0.00  0.00    +0.000 C 
ATOM     15  C   UNL     1      -2.892  13.461  20.981  0.00  0.00    +0.000 C 
ENDROOT
BRANCH   4  16
ATOM     16  C   UNL     1       1.056   9.140  20.215  0.00  0.00    +0.000 A 
ATOM     17  C   UNL     1       0.918   9.731  18.953  0.00  0.00    +0.000 A 
ATOM     18  C   UNL     1       1.491   9.150  17.818  0.00  0.00    +0.000 A 
ATOM     19  C   UNL     1       2.213   7.964  17.935  0.00  0.00    +0.000 A 
ATOM     20  C   UNL     1       2.365   7.363  19.181  0.00  0.00    +0.000 A 
ATOM     21  C   UNL     1       1.790   7.946  20.314  0.00  0.00    +0.000 A 
ENDBRANCH   4  16
BRANCH   1  22
ATOM     22  O   UNL     1       1.168  14.421  21.197  0.00  0.00    +0.000 OA
BRANCH  22  23
ATOM     23  C   UNL     1       2.250  14.509  20.246  0.00  0.00    +0.000 C 
BRANCH  23  29
ATOM     24  C   UNL     1       0.086  18.355  18.179  0.00  0.00    +0.000 C 
ATOM     25  C   UNL     1       1.118  17.314  18.431  0.00  0.00    +0.000 A 
ATOM     26  C   UNL     1       2.243  17.028  17.629  0.00  0.00    +0.000 A 
ATOM     27  C   UNL     1       2.889  15.983  18.254  0.00  0.00    +0.000 A 
ATOM     28  C   UNL     1       4.125  15.274  17.855  0.00  0.00    +0.000 C 
ATOM     29  N   UNL     1       2.149  15.689  19.376  0.00  0.00    +0.000 N 
ATOM     30  N   UNL     1       1.059  16.506  19.497  0.00  0.00    +0.000 NA
ENDBRANCH  23  29
ENDBRANCH  22  23
ENDBRANCH   1  22
TORSDOF 4
ENDMDL
MODEL 9
REMARK VINA RESULT:      -7.0      7.783     11.245
REMARK  Name = 
REMARK  6 active torsions:
REMARK  status: ('A' for Active; 'I' for Inactive)
REMARK    1  A    between atoms: C_1  and  C_2
REMARK    2  A    between atoms: C_4  and  C_5
REMARK    3  A    between atoms: N_6  and  C_7
REMARK    4  A    between atoms: C_7  and  O_8
REMARK    5  A    between atoms: O_8  and  C_9
REMARK    6  A    between atoms: C_12  and  C_13
REMARK                            x       y       z     vdW  Elec       q    Type
REMARK                         _______ _______ _______ _____ _____    ______ ____
ROOT
ATOM      1  C   UNL     1      -0.552  12.155  20.109  0.00  0.00    +0.000 A 
ATOM      2  N   UNL     1      -1.317  12.129  21.148  0.00  0.00    +0.000 NA
ATOM      3  N   UNL     1      -0.955  13.123  22.058  0.00  0.00    +0.000 N 
ATOM      4  C   UNL     1      -1.717  13.654  23.085  0.00  0.00    +0.000 A 
ATOM      5  N   UNL     1      -0.969  14.511  23.765  0.00  0.00    +0.000 NA
ATOM      6  N   UNL     1       0.243  14.650  23.125  0.00  0.00    +0.000 NA
ATOM      7  C   UNL     1       0.213  13.895  22.053  0.00  0.00    +0.000 A 
ATOM      8  C   UNL     1       0.950  13.947  20.835  0.00  0.00    +0.000 A 
ATOM      9  C   UNL     1       0.436  13.207  19.831  0.00  0.00    +0.000 A 
ATOM     10  C   UNL     1       0.538  13.849  18.471  0.00  0.00    +0.000 C 
ATOM     11  C   UNL     1       2.028  13.796  18.141  0.00  0.00    +0.000 C 
ATOM     12  C   UNL     1       2.822  14.558  19.226  0.00  0.00    +0.000 C 
ATOM     13  C   UNL     1       1.867  15.074  20.346  0.00  0.00    +0.000 C 
ATOM     14  C   UNL     1       0.948  16.093  19.652  0.00  0.00    +0.000 C 
ATOM     15  C   UNL     1       0.033  15.323  18.670  0.00  0.00    +0.000 C 
ENDROOT
BRANCH   4  16
ATOM     16  C   UNL     1      -3.154  13.434  23.265  0.00  0.00    +0.000 A 
ATOM     17  C   UNL     1      -3.667  12.678  24.326  0.00  0.00    +0.000 A 
ATOM     18  C   UNL     1      -5.039  12.437  24.440  0.00  0.00    +0.000 A 
ATOM     19  C   UNL     1      -5.916  12.954  23.490  0.00  0.00    +0.000 A 
ATOM     20  C   UNL     1      -5.426  13.711  22.430  0.00  0.00    +0.000 A 
ATOM     21  C   UNL     1      -4.053  13.950  22.317  0.00  0.00    +0.000 A 
ENDBRANCH   4  16
BRANCH   1  22
ATOM     22  O   UNL     1      -0.532  11.211  19.136  0.00  0.00    +0.000 OA
BRANCH  22  23
ATOM     23  C   UNL     1      -1.570  10.209  19.094  0.00  0.00    +0.000 C 
BRANCH  23  29
ATOM     24  C   UNL     1      -3.002  10.109  14.437  0.00  0.00    +0.000 C 
ATOM     25  C   UNL     1      -3.037  10.413  15.892  0.00  0.00    +0.000 A 
ATOM     26  C   UNL     1      -3.939  11.273  16.554  0.00  0.00    +0.000 A 
ATOM     27  C   UNL     1      -3.572  11.247  17.882  0.00  0.00    +0.000 A 
ATOM     28  C   UNL     1      -4.167  11.962  19.032  0.00  0.00    +0.000 C 
ATOM     29  N   UNL     1      -2.494  10.394  17.966  0.00  0.00    +0.000 N 
ATOM     30  N   UNL     1      -2.160   9.872  16.747  0.00  0.00    +0.000 NA
ENDBRANCH  23  29
ENDBRANCH  22  23
ENDBRANCH   1  22
TORSDOF 4
ENDMDL
