MODEL 1
REMARK VINA RESULT:      -7.1      0.000      0.000
REMARK  Name = 
REMARK  9 active torsions:
REMARK  status: ('A' for Active; 'I' for Inactive)
REMARK    1  A    between atoms: C_1  and  C_2
REMARK    2  A    between atoms: C_2  and  C_3
REMARK    3  A    between atoms: C_2  and  C_4
REMARK    4  A    between atoms: C_4  and  C_5
REMARK    5  A    between atoms: C_5  and  N_6
REMARK    6  A    between atoms: N_16  and  C_17
REMARK    7  A    between atoms: C_17  and  C_18
REMARK    8  A    between atoms: C_18  and  C_19
REMARK    9  A    between atoms: C_18  and  C_20
REMARK                            x       y       z     vdW  Elec       q    Type
REMARK                         _______ _______ _______ _____ _____    ______ ____
ROOT
ATOM      1  N   UNL     1       4.244   3.628  18.606  0.00  0.00    +0.000 N 
ATOM      2  C   UNL     1       3.583   3.270  17.458  0.00  0.00    +0.000 A 
ATOM      3  N   UNL     1       4.144   3.797  16.388  0.00  0.00    +0.000 NA
ATOM      4  C   UNL     1       5.192   4.520  16.873  0.00  0.00    +0.000 A 
ATOM      5  C   UNL     1       5.304   4.400  18.230  0.00  0.00    +0.000 A 
ATOM      6  C   UNL     1       6.324   5.042  18.978  0.00  0.00    +0.000 A 
ATOM      7  O   UNL     1       6.497   4.932  20.186  0.00  0.00    +0.000 OA
ATOM      8  N   UNL     1       7.128   5.835  18.191  0.00  0.00    +0.000 N 
ATOM      9  C   UNL     1       7.027   6.034  16.825  0.00  0.00    +0.000 A 
ATOM     10  O   UNL     1       7.796   6.833  16.289  0.00  0.00    +0.000 OA
ATOM     11  N   UNL     1       6.053   5.315  16.144  0.00  0.00    +0.000 N 
ATOM     12  H   UNL     1       7.854   6.351  18.659  0.00  0.00    +0.000 HD
ENDROOT
BRANCH   1  13
ATOM     13  C   UNL     1       3.811   3.338  19.962  0.00  0.00    +0.000 C 
BRANCH  13  14
ATOM     14  C   UNL     1       2.734   4.327  20.415  0.00  0.00    +0.000 C 
BRANCH  14  16
ATOM     15  C   UNL     1       0.675   3.124  19.639  0.00  0.00    +0.000 C 
ATOM     16  C   UNL     1       1.420   3.665  20.862  0.00  0.00    +0.000 C 
ATOM     17  C   UNL     1       1.650   2.536  21.867  0.00  0.00    +0.000 C 
ENDBRANCH  14  16
ENDBRANCH  13  14
ENDBRANCH   1  13
BRANCH  11  18
ATOM     18  C   UNL     1       5.931   5.442  14.693  0.00  0.00    +0.000 C 
BRANCH  18  19
ATOM     19  C   UNL     1       6.795   4.445  13.897  0.00  0.00    +0.000 C 
ATOM     20  C   UNL     1       5.968   3.564  12.958  0.00  0.00    +0.000 C 
ATOM     21  C   UNL     1       7.843   5.209  13.082  0.00  0.00    +0.000 C 
ENDBRANCH  18  19
ENDBRANCH  11  18
TORSDOF 5
ENDMDL
MODEL 2
REMARK VINA RESULT:      -6.8      1.338      1.646
REMARK  Name = 
REMARK  9 active torsions:
REMARK  status: ('A' for Active; 'I' for Inactive)
REMARK    1  A    between atoms: C_1  and  C_2
REMARK    2  A    between atoms: C_2  and  C_3
REMARK    3  A    between atoms: C_2  and  C_4
REMARK    4  A    between atoms: C_4  and  C_5
REMARK    5  A    between atoms: C_5  and  N_6
REMARK    6  A    between atoms: N_16  and  C_17
REMARK    7  A    between atoms: C_17  and  C_18
REMARK    8  A    between atoms: C_18  and  C_19
REMARK    9  A    between atoms: C_18  and  C_20
REMARK                            x       y       z     vdW  Elec       q    Type
REMARK                         _______ _______ _______ _____ _____    ______ ____
ROOT
ATOM      1  N   UNL     1       4.618   3.787  18.061  0.00  0.00    +0.000 N 
ATOM      2  C   UNL     1       3.564   3.546  17.217  0.00  0.00    +0.000 A 
ATOM      3  N   UNL     1       3.876   3.802  15.961  0.00  0.00    +0.000 NA
ATOM      4  C   UNL     1       5.171   4.225  16.011  0.00  0.00    +0.000 A 
ATOM      5  C   UNL     1       5.667   4.186  17.284  0.00  0.00    +0.000 A 
ATOM      6  C   UNL     1       6.997   4.561  17.604  0.00  0.00    +0.000 A 
ATOM      7  O   UNL     1       7.505   4.503  18.718  0.00  0.00    +0.000 OA
ATOM      8  N   UNL     1       7.687   5.023  16.506  0.00  0.00    +0.000 N 
ATOM      9  C   UNL     1       7.219   5.133  15.209  0.00  0.00    +0.000 A 
ATOM     10  O   UNL     1       7.957   5.630  14.358  0.00  0.00    +0.000 OA
ATOM     11  N   UNL     1       5.932   4.677  14.952  0.00  0.00    +0.000 N 
ATOM     12  H   UNL     1       8.629   5.342  16.663  0.00  0.00    +0.000 HD
ENDROOT
BRANCH   1  13
ATOM     13  C   UNL     1       4.573   3.744  19.512  0.00  0.00    +0.000 C 
BRANCH  13  14
ATOM     14  C   UNL     1       3.512   2.753  19.996  0.00  0.00    +0.000 C 
BRANCH  14  16
ATOM     15  C   UNL     1       1.606   2.653  21.623  0.00  0.00    +0.000 C 
ATOM     16  C   UNL     1       2.189   3.408  20.425  0.00  0.00    +0.000 C 
ATOM     17  C   UNL     1       2.358   4.886  20.778  0.00  0.00    +0.000 C 
ENDBRANCH  14  16
ENDBRANCH  13  14
ENDBRANCH   1  13
BRANCH  11  18
ATOM     18  C   UNL     1       5.399   4.718  13.592  0.00  0.00    +0.000 C 
BRANCH  18  19
ATOM     19  C   UNL     1       5.648   3.435  12.776  0.00  0.00    +0.000 C 
ATOM     20  C   UNL     1       4.526   3.140  11.780  0.00  0.00    +0.000 C 
ATOM     21  C   UNL     1       6.977   3.555  12.022  0.00  0.00    +0.000 C 
ENDBRANCH  18  19
ENDBRANCH  11  18
TORSDOF 5
ENDMDL
MODEL 3
REMARK VINA RESULT:      -6.7      2.225      3.452
REMARK  Name = 
REMARK  9 active torsions:
REMARK  status: ('A' for Active; 'I' for Inactive)
REMARK    1  A    between atoms: C_1  and  C_2
REMARK    2  A    between atoms: C_2  and  C_3
REMARK    3  A    between atoms: C_2  and  C_4
REMARK    4  A    between atoms: C_4  and  C_5
REMARK    5  A    between atoms: C_5  and  N_6
REMARK    6  A    between atoms: N_16  and  C_17
REMARK    7  A    between atoms: C_17  and  C_18
REMARK    8  A    between atoms: C_18  and  C_19
REMARK    9  A    between atoms: C_18  and  C_20
REMARK                            x       y       z     vdW  Elec       q    Type
REMARK                         _______ _______ _______ _____ _____    ______ ____
ROOT
ATOM      1  N   UNL     1       2.782   5.515  17.842  0.00  0.00    +0.000 N 
ATOM      2  C   UNL     1       2.970   6.871  17.932  0.00  0.00    +0.000 A 
ATOM      3  N   UNL     1       4.189   7.220  17.572  0.00  0.00    +0.000 NA
ATOM      4  C   UNL     1       4.799   6.045  17.249  0.00  0.00    +0.000 A 
ATOM      5  C   UNL     1       3.945   4.984  17.365  0.00  0.00    +0.000 A 
ATOM      6  C   UNL     1       4.330   3.650  17.071  0.00  0.00    +0.000 A 
ATOM      7  O   UNL     1       3.594   2.671  17.114  0.00  0.00    +0.000 OA
ATOM      8  N   UNL     1       5.659   3.555  16.727  0.00  0.00    +0.000 N 
ATOM      9  C   UNL     1       6.578   4.585  16.645  0.00  0.00    +0.000 A 
ATOM     10  O   UNL     1       7.750   4.309  16.383  0.00  0.00    +0.000 OA
ATOM     11  N   UNL     1       6.116   5.876  16.873  0.00  0.00    +0.000 N 
ATOM     12  H   UNL     1       6.014   2.632  16.539  0.00  0.00    +0.000 HD
ENDROOT
BRANCH   1  13
ATOM     13  C   UNL     1       1.610   4.787  18.294  0.00  0.00    +0.000 C 
BRANCH  13  14
ATOM     14  C   UNL     1       1.713   4.456  19.785  0.00  0.00    +0.000 C 
BRANCH  14  16
ATOM     15  C   UNL     1       1.426   2.715  21.567  0.00  0.00    +0.000 C 
ATOM     16  C   UNL     1       1.765   2.950  20.092  0.00  0.00    +0.000 C 
ATOM     17  C   UNL     1       0.814   2.142  19.209  0.00  0.00    +0.000 C 
ENDBRANCH  14  16
ENDBRANCH  13  14
ENDBRANCH   1  13
BRANCH  11  18
ATOM     18  C   UNL     1       7.027   7.012  16.750  0.00  0.00    +0.000 C 
BRANCH  18  19
ATOM     19  C   UNL     1       7.452   7.630  18.095  0.00  0.00    +0.000 C 
ATOM     20  C   UNL     1       8.246   6.658  18.969  0.00  0.00    +0.000 C 
ATOM     21  C   UNL     1       8.291   8.887  17.842  0.00  0.00    +0.000 C 
ENDBRANCH  18  19
ENDBRANCH  11  18
TORSDOF 5
ENDMDL
MODEL 4
REMARK VINA RESULT:      -6.6      2.456      6.383
REMARK  Name = 
REMARK  9 active torsions:
REMARK  status: ('A' for Active; 'I' for Inactive)
REMARK    1  A    between atoms: C_1  and  C_2
REMARK    2  A    between atoms: C_2  and  C_3
REMARK    3  A    between atoms: C_2  and  C_4
REMARK    4  A    between atoms: C_4  and  C_5
REMARK    5  A    between atoms: C_5  and  N_6
REMARK    6  A    between atoms: N_16  and  C_17
REMARK    7  A    between atoms: C_17  and  C_18
REMARK    8  A    between atoms: C_18  and  C_19
REMARK    9  A    between atoms: C_18  and  C_20
REMARK                            x       y       z     vdW  Elec       q    Type
REMARK                         _______ _______ _______ _____ _____    ______ ____
ROOT
ATOM      1  N   UNL     1       4.936   5.343  17.226  0.00  0.00    +0.000 N 
ATOM      2  C   UNL     1       5.168   4.120  17.803  0.00  0.00    +0.000 A 
ATOM      3  N   UNL     1       4.418   3.934  18.871  0.00  0.00    +0.000 NA
ATOM      4  C   UNL     1       3.689   5.081  18.980  0.00  0.00    +0.000 A 
ATOM      5  C   UNL     1       3.955   5.947  17.957  0.00  0.00    +0.000 A 
ATOM      6  C   UNL     1       3.315   7.207  17.830  0.00  0.00    +0.000 A 
ATOM      7  O   UNL     1       3.483   8.001  16.911  0.00  0.00    +0.000 OA
ATOM      8  N   UNL     1       2.462   7.467  18.878  0.00  0.00    +0.000 N 
ATOM      9  C   UNL     1       2.195   6.650  19.963  0.00  0.00    +0.000 A 
ATOM     10  O   UNL     1       1.448   7.072  20.847  0.00  0.00    +0.000 OA
ATOM     11  N   UNL     1       2.799   5.399  19.986  0.00  0.00    +0.000 N 
ATOM     12  H   UNL     1       1.998   8.360  18.875  0.00  0.00    +0.000 HD
ENDROOT
BRANCH   1  13
ATOM     13  C   UNL     1       5.687   5.920  16.125  0.00  0.00    +0.000 C 
BRANCH  13  14
ATOM     14  C   UNL     1       7.126   6.227  16.547  0.00  0.00    +0.000 C 
BRANCH  14  16
ATOM     15  C   UNL     1       7.944   6.214  18.917  0.00  0.00    +0.000 C 
ATOM     16  C   UNL     1       7.241   7.047  17.842  0.00  0.00    +0.000 C 
ATOM     17  C   UNL     1       7.992   8.362  17.633  0.00  0.00    +0.000 C 
ENDBRANCH  14  16
ENDBRANCH  13  14
ENDBRANCH   1  13
BRANCH  11  18
ATOM     18  C   UNL     1       2.516   4.470  21.078  0.00  0.00    +0.000 C 
BRANCH  18  19
ATOM     19  C   UNL     1       1.227   3.648  20.891  0.00  0.00    +0.000 C 
ATOM     20  C   UNL     1       0.998   3.229  19.437  0.00  0.00    +0.000 C 
ATOM     21  C   UNL     1       1.281   2.398  21.776  0.00  0.00    +0.000 C 
ENDBRANCH  18  19
ENDBRANCH  11  18
TORSDOF 5
ENDMDL
MODEL 5
REMARK VINA RESULT:      -6.4      1.688      2.042
REMARK  Name = 
REMARK  9 active torsions:
REMARK  status: ('A' for Active; 'I' for Inactive)
REMARK    1  A    between atoms: C_1  and  C_2
REMARK    2  A    between atoms: C_2  and  C_3
REMARK    3  A    between atoms: C_2  and  C_4
REMARK    4  A    between atoms: C_4  and  C_5
REMARK    5  A    between atoms: C_5  and  N_6
REMARK    6  A    between atoms: N_16  and  C_17
REMARK    7  A    between atoms: C_17  and  C_18
REMARK    8  A    between atoms: C_18  and  C_19
REMARK    9  A    between atoms: C_18  and  C_20
REMARK                            x       y       z     vdW  Elec       q    Type
REMARK                         _______ _______ _______ _____ _____    ______ ____
ROOT
ATOM      1  N   UNL     1       3.102   5.411  19.193  0.00  0.00    +0.000 N 
ATOM      2  C   UNL     1       2.745   6.368  18.278  0.00  0.00    +0.000 A 
ATOM      3  N   UNL     1       3.660   6.514  17.340  0.00  0.00    +0.000 NA
ATOM      4  C   UNL     1       4.635   5.622  17.675  0.00  0.00    +0.000 A 
ATOM      5  C   UNL     1       4.300   4.900  18.785  0.00  0.00    +0.000 A 
ATOM      6  C   UNL     1       5.139   3.894  19.331  0.00  0.00    +0.000 A 
ATOM      7  O   UNL     1       4.868   3.188  20.296  0.00  0.00    +0.000 OA
ATOM      8  N   UNL     1       6.333   3.787  18.656  0.00  0.00    +0.000 N 
ATOM      9  C   UNL     1       6.744   4.526  17.561  0.00  0.00    +0.000 A 
ATOM     10  O   UNL     1       7.879   4.341  17.119  0.00  0.00    +0.000 OA
ATOM     11  N   UNL     1       5.843   5.442  17.031  0.00  0.00    +0.000 N 
ATOM     12  H   UNL     1       6.996   3.117  19.008  0.00  0.00    +0.000 HD
ENDROOT
BRANCH   1  13
ATOM     13  C   UNL     1       2.394   5.102  20.422  0.00  0.00    +0.000 C 
BRANCH  13  14
ATOM     14  C   UNL     1       1.046   4.441  20.125  0.00  0.00    +0.000 C 
BRANCH  14  16
ATOM     15  C   UNL     1       1.626   2.176  19.219  0.00  0.00    +0.000 C 
ATOM     16  C   UNL     1       1.013   2.929  20.402  0.00  0.00    +0.000 C 
ATOM     17  C   UNL     1       1.750   2.557  21.689  0.00  0.00    +0.000 C 
ENDBRANCH  14  16
ENDBRANCH  13  14
ENDBRANCH   1  13
BRANCH  11  18
ATOM     18  C   UNL     1       6.199   6.216  15.843  0.00  0.00    +0.000 C 
BRANCH  18  19
ATOM     19  C   UNL     1       6.024   5.453  14.516  0.00  0.00    +0.000 C 
ATOM     20  C   UNL     1       7.358   5.095  13.860  0.00  0.00    +0.000 C 
ATOM     21  C   UNL     1       5.220   4.172  14.762  0.00  0.00    +0.000 C 
ENDBRANCH  18  19
ENDBRANCH  11  18
TORSDOF 5
ENDMDL
MODEL 6
REMARK VINA RESULT:      -6.4      2.138      3.345
REMARK  Name = 
REMARK  9 active torsions:
REMARK  status: ('A' for Active; 'I' for Inactive)
REMARK    1  A    between atoms: C_1  and  C_2
REMARK    2  A    between atoms: C_2  and  C_3
REMARK    3  A    between atoms: C_2  and  C_4
REMARK    4  A    between atoms: C_4  and  C_5
REMARK    5  A    between atoms: C_5  and  N_6
REMARK    6  A    between atoms: N_16  and  C_17
REMARK    7  A    between atoms: C_17  and  C_18
REMARK    8  A    between atoms: C_18  and  C_19
REMARK    9  A    between atoms: C_18  and  C_20
REMARK                            x       y       z     vdW  Elec       q    Type
REMARK                         _______ _______ _______ _____ _____    ______ ____
ROOT
ATOM      1  N   UNL     1       2.526   4.913  18.530  0.00  0.00    +0.000 N 
ATOM      2  C   UNL     1       2.617   6.274  18.675  0.00  0.00    +0.000 A 
ATOM      3  N   UNL     1       3.692   6.758  18.085  0.00  0.00    +0.000 NA
ATOM      4  C   UNL     1       4.308   5.665  17.552  0.00  0.00    +0.000 A 
ATOM      5  C   UNL     1       3.592   4.523  17.773  0.00  0.00    +0.000 A 
ATOM      6  C   UNL     1       4.010   3.250  17.306  0.00  0.00    +0.000 A 
ATOM      7  O   UNL     1       3.386   2.203  17.436  0.00  0.00    +0.000 OA
ATOM      8  N   UNL     1       5.232   3.301  16.675  0.00  0.00    +0.000 N 
ATOM      9  C   UNL     1       6.022   4.419  16.470  0.00  0.00    +0.000 A 
ATOM     10  O   UNL     1       7.124   4.271  15.940  0.00  0.00    +0.000 OA
ATOM     11  N   UNL     1       5.517   5.645  16.886  0.00  0.00    +0.000 N 
ATOM     12  H   UNL     1       5.611   2.429  16.347  0.00  0.00    +0.000 HD
ENDROOT
BRANCH   1  13
ATOM     13  C   UNL     1       1.548   4.052  19.171  0.00  0.00    +0.000 C 
BRANCH  13  14
ATOM     14  C   UNL     1       1.414   4.391  20.658  0.00  0.00    +0.000 C 
BRANCH  14  16
ATOM     15  C   UNL     1       1.138   2.356  22.097  0.00  0.00    +0.000 C 
ATOM     16  C   UNL     1       2.132   3.406  21.595  0.00  0.00    +0.000 C 
ATOM     17  C   UNL     1       3.315   2.715  20.916  0.00  0.00    +0.000 C 
ENDBRANCH  14  16
ENDBRANCH  13  14
ENDBRANCH   1  13
BRANCH  11  18
ATOM     18  C   UNL     1       6.281   6.868  16.651  0.00  0.00    +0.000 C 
BRANCH  18  19
ATOM     19  C   UNL     1       7.582   6.969  17.470  0.00  0.00    +0.000 C 
ATOM     20  C   UNL     1       7.982   8.415  17.770  0.00  0.00    +0.000 C 
ATOM     21  C   UNL     1       7.421   6.204  18.788  0.00  0.00    +0.000 C 
ENDBRANCH  18  19
ENDBRANCH  11  18
TORSDOF 5
ENDMDL
MODEL 7
REMARK VINA RESULT:      -6.3      1.731      2.253
REMARK  Name = 
REMARK  9 active torsions:
REMARK  status: ('A' for Active; 'I' for Inactive)
REMARK    1  A    between atoms: C_1  and  C_2
REMARK    2  A    between atoms: C_2  and  C_3
REMARK    3  A    between atoms: C_2  and  C_4
REMARK    4  A    between atoms: C_4  and  C_5
REMARK    5  A    between atoms: C_5  and  N_6
REMARK    6  A    between atoms: N_16  and  C_17
REMARK    7  A    between atoms: C_17  and  C_18
REMARK    8  A    between atoms: C_18  and  C_19
REMARK    9  A    between atoms: C_18  and  C_20
REMARK                            x       y       z     vdW  Elec       q    Type
REMARK                         _______ _______ _______ _____ _____    ______ ____
ROOT
ATOM      1  N   UNL     1       2.531   3.965  17.958  0.00  0.00    +0.000 N 
ATOM      2  C   UNL     1       3.094   2.842  17.407  0.00  0.00    +0.000 A 
ATOM      3  N   UNL     1       4.258   3.103  16.847  0.00  0.00    +0.000 NA
ATOM      4  C   UNL     1       4.438   4.439  17.043  0.00  0.00    +0.000 A 
ATOM      5  C   UNL     1       3.413   4.988  17.760  0.00  0.00    +0.000 A 
ATOM      6  C   UNL     1       3.368   6.362  18.112  0.00  0.00    +0.000 A 
ATOM      7  O   UNL     1       2.498   6.895  18.791  0.00  0.00    +0.000 OA
ATOM      8  N   UNL     1       4.430   7.067  17.595  0.00  0.00    +0.000 N 
ATOM      9  C   UNL     1       5.466   6.574  16.821  0.00  0.00    +0.000 A 
ATOM     10  O   UNL     1       6.304   7.365  16.387  0.00  0.00    +0.000 OA
ATOM     11  N   UNL     1       5.487   5.206  16.577  0.00  0.00    +0.000 N 
ATOM     12  H   UNL     1       4.448   8.058  17.774  0.00  0.00    +0.000 HD
ENDROOT
BRANCH   1  13
ATOM     13  C   UNL     1       1.197   4.059  18.525  0.00  0.00    +0.000 C 
BRANCH  13  14
ATOM     14  C   UNL     1       0.964   2.955  19.559  0.00  0.00    +0.000 C 
BRANCH  14  16
ATOM     15  C   UNL     1       2.552   2.478  21.440  0.00  0.00    +0.000 C 
ATOM     16  C   UNL     1       1.369   3.339  20.991  0.00  0.00    +0.000 C 
ATOM     17  C   UNL     1       1.730   4.820  21.117  0.00  0.00    +0.000 C 
ENDBRANCH  14  16
ENDBRANCH  13  14
ENDBRANCH   1  13
BRANCH  11  18
ATOM     18  C   UNL     1       6.583   4.617  15.810  0.00  0.00    +0.000 C 
BRANCH  18  19
ATOM     19  C   UNL     1       6.474   4.827  14.288  0.00  0.00    +0.000 C 
ATOM     20  C   UNL     1       7.802   5.239  13.651  0.00  0.00    +0.000 C 
ATOM     21  C   UNL     1       5.972   3.539  13.626  0.00  0.00    +0.000 C 
ENDBRANCH  18  19
ENDBRANCH  11  18
TORSDOF 5
ENDMDL
MODEL 8
REMARK VINA RESULT:      -6.3      2.018      2.432
REMARK  Name = 
REMARK  9 active torsions:
REMARK  status: ('A' for Active; 'I' for Inactive)
REMARK    1  A    between atoms: C_1  and  C_2
REMARK    2  A    between atoms: C_2  and  C_3
REMARK    3  A    between atoms: C_2  and  C_4
REMARK    4  A    between atoms: C_4  and  C_5
REMARK    5  A    between atoms: C_5  and  N_6
REMARK    6  A    between atoms: N_16  and  C_17
REMARK    7  A    between atoms: C_17  and  C_18
REMARK    8  A    between atoms: C_18  and  C_19
REMARK    9  A    between atoms: C_18  and  C_20
REMARK                            x       y       z     vdW  Elec       q    Type
REMARK                         _______ _______ _______ _____ _____    ______ ____
ROOT
ATOM      1  N   UNL     1       3.624   4.919  19.873  0.00  0.00    +0.000 N 
ATOM      2  C   UNL     1       4.602   3.959  19.941  0.00  0.00    +0.000 A 
ATOM      3  N   UNL     1       5.483   4.088  18.968  0.00  0.00    +0.000 NA
ATOM      4  C   UNL     1       5.045   5.164  18.254  0.00  0.00    +0.000 A 
ATOM      5  C   UNL     1       3.929   5.720  18.811  0.00  0.00    +0.000 A 
ATOM      6  C   UNL     1       3.285   6.862  18.268  0.00  0.00    +0.000 A 
ATOM      7  O   UNL     1       2.311   7.427  18.751  0.00  0.00    +0.000 OA
ATOM      8  N   UNL     1       3.875   7.287  17.099  0.00  0.00    +0.000 N 
ATOM      9  C   UNL     1       4.971   6.730  16.465  0.00  0.00    +0.000 A 
ATOM     10  O   UNL     1       5.329   7.203  15.385  0.00  0.00    +0.000 OA
ATOM     11  N   UNL     1       5.599   5.660  17.091  0.00  0.00    +0.000 N 
ATOM     12  H   UNL     1       3.450   8.072  16.636  0.00  0.00    +0.000 HD
ENDROOT
BRANCH   1  13
ATOM     13  C   UNL     1       2.432   4.979  20.700  0.00  0.00    +0.000 C 
BRANCH  13  14
ATOM     14  C   UNL     1       1.233   4.362  19.976  0.00  0.00    +0.000 C 
BRANCH  14  16
ATOM     15  C   UNL     1       1.556   1.989  19.233  0.00  0.00    +0.000 C 
ATOM     16  C   UNL     1       0.977   2.887  20.329  0.00  0.00    +0.000 C 
ATOM     17  C   UNL     1       1.572   2.500  21.683  0.00  0.00    +0.000 C 
ENDBRANCH  14  16
ENDBRANCH  13  14
ENDBRANCH   1  13
BRANCH  11  18
ATOM     18  C   UNL     1       6.793   5.063  16.498  0.00  0.00    +0.000 C 
BRANCH  18  19
ATOM     19  C   UNL     1       6.501   4.030  15.392  0.00  0.00    +0.000 C 
ATOM     20  C   UNL     1       5.026   3.629  15.333  0.00  0.00    +0.000 C 
ATOM     21  C   UNL     1       6.928   4.596  14.034  0.00  0.00    +0.000 C 
ENDBRANCH  18  19
ENDBRANCH  11  18
TORSDOF 5
ENDMDL
MODEL 9
REMARK VINA RESULT:      -6.2      2.326      6.215
REMARK  Name = 
REMARK  9 active torsions:
REMARK  status: ('A' for Active; 'I' for Inactive)
REMARK    1  A    between atoms: C_1  and  C_2
REMARK    2  A    between atoms: C_2  and  C_3
REMARK    3  A    between atoms: C_2  and  C_4
REMARK    4  A    between atoms: C_4  and  C_5
REMARK    5  A    between atoms: C_5  and  N_6
REMARK    6  A    between atoms: N_16  and  C_17
REMARK    7  A    between atoms: C_17  and  C_18
REMARK    8  A    between atoms: C_18  and  C_19
REMARK    9  A    between atoms: C_18  and  C_20
REMARK                            x       y       z     vdW  Elec       q    Type
REMARK                         _______ _______ _______ _____ _____    ______ ____
ROOT
ATOM      1  N   UNL     1       4.704   5.177  16.624  0.00  0.00    +0.000 N 
ATOM      2  C   UNL     1       4.609   3.809  16.649  0.00  0.00    +0.000 A 
ATOM      3  N   UNL     1       3.742   3.396  17.552  0.00  0.00    +0.000 NA
ATOM      4  C   UNL     1       3.276   4.541  18.125  0.00  0.00    +0.000 A 
ATOM      5  C   UNL     1       3.818   5.654  17.545  0.00  0.00    +0.000 A 
ATOM      6  C   UNL     1       3.483   6.972  17.949  0.00  0.00    +0.000 A 
ATOM      7  O   UNL     1       3.904   8.002  17.435  0.00  0.00    +0.000 OA
ATOM      8  N   UNL     1       2.616   6.986  19.017  0.00  0.00    +0.000 N 
ATOM      9  C   UNL     1       2.079   5.893  19.674  0.00  0.00    +0.000 A 
ATOM     10  O   UNL     1       1.365   6.091  20.658  0.00  0.00    +0.000 OA
ATOM     11  N   UNL     1       2.389   4.633  19.178  0.00  0.00    +0.000 N 
ATOM     12  H   UNL     1       2.361   7.889  19.383  0.00  0.00    +0.000 HD
ENDROOT
BRANCH   1  13
ATOM     13  C   UNL     1       5.661   5.950  15.852  0.00  0.00    +0.000 C 
BRANCH  13  14
ATOM     14  C   UNL     1       7.042   5.925  16.510  0.00  0.00    +0.000 C 
BRANCH  14  16
ATOM     15  C   UNL     1       7.830   5.917  18.891  0.00  0.00    +0.000 C 
ATOM     16  C   UNL     1       7.136   6.745  17.807  0.00  0.00    +0.000 C 
ATOM     17  C   UNL     1       7.882   8.065  17.609  0.00  0.00    +0.000 C 
ENDBRANCH  14  16
ENDBRANCH  13  14
ENDBRANCH   1  13
BRANCH  11  18
ATOM     18  C   UNL     1       1.811   3.441  19.796  0.00  0.00    +0.000 C 
BRANCH  18  19
ATOM     19  C   UNL     1       2.417   3.081  21.166  0.00  0.00    +0.000 C 
ATOM     20  C   UNL     1       1.424   2.366  22.083  0.00  0.00    +0.000 C 
ATOM     21  C   UNL     1       3.651   2.195  20.965  0.00  0.00    +0.000 C 
ENDBRANCH  18  19
ENDBRANCH  11  18
TORSDOF 5
ENDMDL
