MODEL 1
REMARK VINA RESULT:      -6.9      0.000      0.000
REMARK  Name = 
REMARK  8 active torsions:
REMARK  status: ('A' for Active; 'I' for Inactive)
REMARK    1  A    between atoms: C_1  and  C_2
REMARK    2  A    between atoms: C_3  and  C_4
REMARK    3  A    between atoms: C_10  and  S_11
REMARK    4  A    between atoms: S_11  and  C_12
REMARK    5  A    between atoms: C_12  and  C_13
REMARK    6  A    between atoms: C_13  and  N_14
REMARK    7  A    between atoms: N_14  and  C_15
REMARK    8  A    between atoms: N_14  and  C_16
REMARK                            x       y       z     vdW  Elec       q    Type
REMARK                         _______ _______ _______ _____ _____    ______ ____
ROOT
ATOM      1  C   UNL     1       3.980   2.220  17.521  0.00  0.00    +0.000 C 
ATOM      2  C   UNL     1       4.070   3.736  17.452  0.00  0.00    +0.000 A 
ATOM      3  C   UNL     1       3.344   4.596  18.340  0.00  0.00    +0.000 A 
ATOM      4  C   UNL     1       3.452   5.981  18.041  0.00  0.00    +0.000 A 
ATOM      5  N   UNL     1       4.224   6.482  17.047  0.00  0.00    +0.000 NA
ATOM      6  C   UNL     1       4.948   5.664  16.283  0.00  0.00    +0.000 A 
ATOM      7  C   UNL     1       5.736   6.233  15.295  0.00  0.00    +0.000 A 
ATOM      8  C   UNL     1       6.536   5.460  14.443  0.00  0.00    +0.000 A 
ATOM      9  C   UNL     1       6.546   4.081  14.592  0.00  0.00    +0.000 A 
ATOM     10  C   UNL     1       5.753   3.496  15.580  0.00  0.00    +0.000 A 
ATOM     11  C   UNL     1       4.928   4.274  16.440  0.00  0.00    +0.000 A 
ENDROOT
BRANCH   3  12
ATOM     12  C   UNL     1       2.514   4.037  19.470  0.00  0.00    +0.000 A 
ATOM     13  C   UNL     1       3.055   3.859  20.763  0.00  0.00    +0.000 A 
ATOM     14  C   UNL     1       2.379   3.152  21.766  0.00  0.00    +0.000 A 
ATOM     15  C   UNL     1       1.080   2.718  21.556  0.00  0.00    +0.000 A 
ATOM     16  C   UNL     1       0.465   2.987  20.340  0.00  0.00    +0.000 A 
ATOM     17  C   UNL     1       1.187   3.600  19.306  0.00  0.00    +0.000 A 
ENDBRANCH   3  12
BRANCH   4  18
ATOM     18  S   UNL     1       2.617   7.284  18.966  0.00  0.00    +0.000 S 
BRANCH  18  19
ATOM     19  C   UNL     1       2.214   8.514  17.655  0.00  0.00    +0.000 C 
BRANCH  19  20
ATOM     20  C   UNL     1       1.760   9.895  18.170  0.00  0.00    +0.000 C 
BRANCH  20  21
ATOM     21  N   UNL     1       0.554   9.832  19.041  0.00  0.00    +0.000 NA
ATOM     22  C   UNL     1       0.732  10.603  20.278  0.00  0.00    +0.000 C 
ATOM     23  C   UNL     1      -0.621  10.333  18.331  0.00  0.00    +0.000 C 
ENDBRANCH  20  21
ENDBRANCH  19  20
ENDBRANCH  18  19
ENDBRANCH   4  18
TORSDOF 5
ENDMDL
MODEL 2
REMARK VINA RESULT:      -6.7      3.219      7.133
REMARK  Name = 
REMARK  8 active torsions:
REMARK  status: ('A' for Active; 'I' for Inactive)
REMARK    1  A    between atoms: C_1  and  C_2
REMARK    2  A    between atoms: C_3  and  C_4
REMARK    3  A    between atoms: C_10  and  S_11
REMARK    4  A    between atoms: S_11  and  C_12
REMARK    5  A    between atoms: C_12  and  C_13
REMARK    6  A    between atoms: C_13  and  N_14
REMARK    7  A    between atoms: N_14  and  C_15
REMARK    8  A    between atoms: N_14  and  C_16
REMARK                            x       y       z     vdW  Elec       q    Type
REMARK                         _______ _______ _______ _____ _____    ______ ____
ROOT
ATOM      1  C   UNL     1       3.725   6.363  19.669  0.00  0.00    +0.000 C 
ATOM      2  C   UNL     1       3.896   5.173  18.739  0.00  0.00    +0.000 A 
ATOM      3  C   UNL     1       5.022   5.030  17.862  0.00  0.00    +0.000 A 
ATOM      4  C   UNL     1       4.945   3.922  16.976  0.00  0.00    +0.000 A 
ATOM      5  N   UNL     1       3.935   3.019  16.982  0.00  0.00    +0.000 NA
ATOM      6  C   UNL     1       2.938   3.133  17.858  0.00  0.00    +0.000 A 
ATOM      7  C   UNL     1       1.943   2.168  17.832  0.00  0.00    +0.000 A 
ATOM      8  C   UNL     1       0.855   2.197  18.714  0.00  0.00    +0.000 A 
ATOM      9  C   UNL     1       0.768   3.220  19.647  0.00  0.00    +0.000 A 
ATOM     10  C   UNL     1       1.760   4.200  19.680  0.00  0.00    +0.000 A 
ATOM     11  C   UNL     1       2.862   4.184  18.779  0.00  0.00    +0.000 A 
ENDROOT
BRANCH   3  12
ATOM     12  C   UNL     1       6.163   6.018  17.885  0.00  0.00    +0.000 A 
ATOM     13  C   UNL     1       7.292   5.820  18.710  0.00  0.00    +0.000 A 
ATOM     14  C   UNL     1       8.258   6.816  18.908  0.00  0.00    +0.000 A 
ATOM     15  C   UNL     1       8.203   7.993  18.178  0.00  0.00    +0.000 A 
ATOM     16  C   UNL     1       7.177   8.172  17.259  0.00  0.00    +0.000 A 
ATOM     17  C   UNL     1       6.157   7.217  17.147  0.00  0.00    +0.000 A 
ENDBRANCH   3  12
BRANCH   4  18
ATOM     18  S   UNL     1       6.199   3.523  15.744  0.00  0.00    +0.000 S 
BRANCH  18  19
ATOM     19  C   UNL     1       5.527   4.307  14.218  0.00  0.00    +0.000 C 
BRANCH  19  20
ATOM     20  C   UNL     1       6.137   3.796  12.896  0.00  0.00    +0.000 C 
BRANCH  20  21
ATOM     21  N   UNL     1       5.321   2.738  12.242  0.00  0.00    +0.000 NA
ATOM     22  C   UNL     1       4.285   3.307  11.368  0.00  0.00    +0.000 C 
ATOM     23  C   UNL     1       6.171   1.845  11.455  0.00  0.00    +0.000 C 
ENDBRANCH  20  21
ENDBRANCH  19  20
ENDBRANCH  18  19
ENDBRANCH   4  18
TORSDOF 5
ENDMDL
MODEL 3
REMARK VINA RESULT:      -6.7      1.853      5.859
REMARK  Name = 
REMARK  8 active torsions:
REMARK  status: ('A' for Active; 'I' for Inactive)
REMARK    1  A    between atoms: C_1  and  C_2
REMARK    2  A    between atoms: C_3  and  C_4
REMARK    3  A    between atoms: C_10  and  S_11
REMARK    4  A    between atoms: S_11  and  C_12
REMARK    5  A    between atoms: C_12  and  C_13
REMARK    6  A    between atoms: C_13  and  N_14
REMARK    7  A    between atoms: N_14  and  C_15
REMARK    8  A    between atoms: N_14  and  C_16
REMARK                            x       y       z     vdW  Elec       q    Type
REMARK                         _______ _______ _______ _____ _____    ______ ____
ROOT
ATOM      1  C   UNL     1       0.651   7.467  21.407  0.00  0.00    +0.000 C 
ATOM      2  C   UNL     1       1.442   7.583  20.114  0.00  0.00    +0.000 A 
ATOM      3  C   UNL     1       2.101   6.463  19.507  0.00  0.00    +0.000 A 
ATOM      4  C   UNL     1       2.896   6.788  18.375  0.00  0.00    +0.000 A 
ATOM      5  N   UNL     1       2.990   8.034  17.850  0.00  0.00    +0.000 NA
ATOM      6  C   UNL     1       2.308   9.043  18.390  0.00  0.00    +0.000 A 
ATOM      7  C   UNL     1       2.425  10.291  17.798  0.00  0.00    +0.000 A 
ATOM      8  C   UNL     1       1.745  11.413  18.288  0.00  0.00    +0.000 A 
ATOM      9  C   UNL     1       0.924  11.276  19.398  0.00  0.00    +0.000 A 
ATOM     10  C   UNL     1       0.801  10.026  20.005  0.00  0.00    +0.000 A 
ATOM     11  C   UNL     1       1.499   8.884  19.521  0.00  0.00    +0.000 A 
ENDROOT
BRANCH   3  12
ATOM     12  C   UNL     1       1.964   5.071  20.073  0.00  0.00    +0.000 A 
ATOM     13  C   UNL     1       1.170   4.091  19.435  0.00  0.00    +0.000 A 
ATOM     14  C   UNL     1       0.857   2.869  20.045  0.00  0.00    +0.000 A 
ATOM     15  C   UNL     1       1.443   2.525  21.254  0.00  0.00    +0.000 A 
ATOM     16  C   UNL     1       2.333   3.409  21.850  0.00  0.00    +0.000 A 
ATOM     17  C   UNL     1       2.555   4.673  21.287  0.00  0.00    +0.000 A 
ENDBRANCH   3  12
BRANCH   4  18
ATOM     18  S   UNL     1       3.864   5.589  17.440  0.00  0.00    +0.000 S 
BRANCH  18  19
ATOM     19  C   UNL     1       5.054   6.656  16.525  0.00  0.00    +0.000 C 
BRANCH  19  20
ATOM     20  C   UNL     1       6.466   6.742  17.143  0.00  0.00    +0.000 C 
BRANCH  20  21
ATOM     21  N   UNL     1       7.384   5.675  16.661  0.00  0.00    +0.000 NA
ATOM     22  C   UNL     1       7.577   4.623  17.669  0.00  0.00    +0.000 C 
ATOM     23  C   UNL     1       6.873   5.071  15.433  0.00  0.00    +0.000 C 
ENDBRANCH  20  21
ENDBRANCH  19  20
ENDBRANCH  18  19
ENDBRANCH   4  18
TORSDOF 5
ENDMDL
MODEL 4
REMARK VINA RESULT:      -6.6      0.292      1.030
REMARK  Name = 
REMARK  8 active torsions:
REMARK  status: ('A' for Active; 'I' for Inactive)
REMARK    1  A    between atoms: C_1  and  C_2
REMARK    2  A    between atoms: C_3  and  C_4
REMARK    3  A    between atoms: C_10  and  S_11
REMARK    4  A    between atoms: S_11  and  C_12
REMARK    5  A    between atoms: C_12  and  C_13
REMARK    6  A    between atoms: C_13  and  N_14
REMARK    7  A    between atoms: N_14  and  C_15
REMARK    8  A    between atoms: N_14  and  C_16
REMARK                            x       y       z     vdW  Elec       q    Type
REMARK                         _______ _______ _______ _____ _____    ______ ____
ROOT
ATOM      1  C   UNL     1       4.157   2.046  17.381  0.00  0.00    +0.000 C 
ATOM      2  C   UNL     1       4.182   3.566  17.366  0.00  0.00    +0.000 A 
ATOM      3  C   UNL     1       3.436   4.362  18.298  0.00  0.00    +0.000 A 
ATOM      4  C   UNL     1       3.481   5.760  18.050  0.00  0.00    +0.000 A 
ATOM      5  N   UNL     1       4.213   6.329  17.061  0.00  0.00    +0.000 NA
ATOM      6  C   UNL     1       4.956   5.571  16.256  0.00  0.00    +0.000 A 
ATOM      7  C   UNL     1       5.701   6.209  15.276  0.00  0.00    +0.000 A 
ATOM      8  C   UNL     1       6.517   5.502  14.383  0.00  0.00    +0.000 A 
ATOM      9  C   UNL     1       6.587   4.120  14.480  0.00  0.00    +0.000 A 
ATOM     10  C   UNL     1       5.839   3.466  15.459  0.00  0.00    +0.000 A 
ATOM     11  C   UNL     1       4.998   4.176  16.361  0.00  0.00    +0.000 A 
ENDROOT
BRANCH   3  12
ATOM     12  C   UNL     1       2.652   3.726  19.421  0.00  0.00    +0.000 A 
ATOM     13  C   UNL     1       1.259   3.516  19.318  0.00  0.00    +0.000 A 
ATOM     14  C   UNL     1       0.479   3.127  20.416  0.00  0.00    +0.000 A 
ATOM     15  C   UNL     1       1.085   2.799  21.619  0.00  0.00    +0.000 A 
ATOM     16  C   UNL     1       2.469   2.869  21.720  0.00  0.00    +0.000 A 
ATOM     17  C   UNL     1       3.230   3.362  20.651  0.00  0.00    +0.000 A 
ENDBRANCH   3  12
BRANCH   4  18
ATOM     18  S   UNL     1       2.610   6.991  19.036  0.00  0.00    +0.000 S 
BRANCH  18  19
ATOM     19  C   UNL     1       2.193   8.283  17.791  0.00  0.00    +0.000 C 
BRANCH  19  20
ATOM     20  C   UNL     1       1.745   9.638  18.378  0.00  0.00    +0.000 C 
BRANCH  20  21
ATOM     21  N   UNL     1       0.497   9.548  19.182  0.00  0.00    +0.000 NA
ATOM     22  C   UNL     1       0.726   9.905  20.590  0.00  0.00    +0.000 C 
ATOM     23  C   UNL     1      -0.536  10.423  18.630  0.00  0.00    +0.000 C 
ENDBRANCH  20  21
ENDBRANCH  19  20
ENDBRANCH  18  19
ENDBRANCH   4  18
TORSDOF 5
ENDMDL
MODEL 5
REMARK VINA RESULT:      -6.5      3.169      7.157
REMARK  Name = 
REMARK  8 active torsions:
REMARK  status: ('A' for Active; 'I' for Inactive)
REMARK    1  A    between atoms: C_1  and  C_2
REMARK    2  A    between atoms: C_3  and  C_4
REMARK    3  A    between atoms: C_10  and  S_11
REMARK    4  A    between atoms: S_11  and  C_12
REMARK    5  A    between atoms: C_12  and  C_13
REMARK    6  A    between atoms: C_13  and  N_14
REMARK    7  A    between atoms: N_14  and  C_15
REMARK    8  A    between atoms: N_14  and  C_16
REMARK                            x       y       z     vdW  Elec       q    Type
REMARK                         _______ _______ _______ _____ _____    ______ ____
ROOT
ATOM      1  C   UNL     1       3.449   6.353  19.779  0.00  0.00    +0.000 C 
ATOM      2  C   UNL     1       3.681   5.159  18.867  0.00  0.00    +0.000 A 
ATOM      3  C   UNL     1       4.838   5.040  18.027  0.00  0.00    +0.000 A 
ATOM      4  C   UNL     1       4.819   3.922  17.151  0.00  0.00    +0.000 A 
ATOM      5  N   UNL     1       3.835   2.991  17.135  0.00  0.00    +0.000 NA
ATOM      6  C   UNL     1       2.808   3.085  17.979  0.00  0.00    +0.000 A 
ATOM      7  C   UNL     1       1.842   2.092  17.932  0.00  0.00    +0.000 A 
ATOM      8  C   UNL     1       0.727   2.099  18.781  0.00  0.00    +0.000 A 
ATOM      9  C   UNL     1       0.582   3.128  19.700  0.00  0.00    +0.000 A 
ATOM     10  C   UNL     1       1.546   4.135  19.753  0.00  0.00    +0.000 A 
ATOM     11  C   UNL     1       2.675   4.142  18.886  0.00  0.00    +0.000 A 
ENDROOT
BRANCH   3  12
ATOM     12  C   UNL     1       5.950   6.060  18.075  0.00  0.00    +0.000 A 
ATOM     13  C   UNL     1       5.926   7.214  17.261  0.00  0.00    +0.000 A 
ATOM     14  C   UNL     1       7.035   8.061  17.131  0.00  0.00    +0.000 A 
ATOM     15  C   UNL     1       8.159   7.861  17.918  0.00  0.00    +0.000 A 
ATOM     16  C   UNL     1       8.170   6.810  18.826  0.00  0.00    +0.000 A 
ATOM     17  C   UNL     1       7.100   5.906  18.871  0.00  0.00    +0.000 A 
ENDBRANCH   3  12
BRANCH   4  18
ATOM     18  S   UNL     1       6.121   3.547  15.962  0.00  0.00    +0.000 S 
BRANCH  18  19
ATOM     19  C   UNL     1       5.528   4.391  14.436  0.00  0.00    +0.000 C 
BRANCH  19  20
ATOM     20  C   UNL     1       6.315   4.054  13.153  0.00  0.00    +0.000 C 
BRANCH  20  21
ATOM     21  N   UNL     1       5.740   2.912  12.392  0.00  0.00    +0.000 NA
ATOM     22  C   UNL     1       4.547   3.308  11.630  0.00  0.00    +0.000 C 
ATOM     23  C   UNL     1       6.730   2.354  11.472  0.00  0.00    +0.000 C 
ENDBRANCH  20  21
ENDBRANCH  19  20
ENDBRANCH  18  19
ENDBRANCH   4  18
TORSDOF 5
ENDMDL
MODEL 6
REMARK VINA RESULT:      -6.3      2.104      7.118
REMARK  Name = 
REMARK  8 active torsions:
REMARK  status: ('A' for Active; 'I' for Inactive)
REMARK    1  A    between atoms: C_1  and  C_2
REMARK    2  A    between atoms: C_3  and  C_4
REMARK    3  A    between atoms: C_10  and  S_11
REMARK    4  A    between atoms: S_11  and  C_12
REMARK    5  A    between atoms: C_12  and  C_13
REMARK    6  A    between atoms: C_13  and  N_14
REMARK    7  A    between atoms: N_14  and  C_15
REMARK    8  A    between atoms: N_14  and  C_16
REMARK                            x       y       z     vdW  Elec       q    Type
REMARK                         _______ _______ _______ _____ _____    ______ ____
ROOT
ATOM      1  C   UNL     1       1.947   9.251  17.484  0.00  0.00    +0.000 C 
ATOM      2  C   UNL     1       1.820   8.530  18.816  0.00  0.00    +0.000 A 
ATOM      3  C   UNL     1       2.427   7.255  19.068  0.00  0.00    +0.000 A 
ATOM      4  C   UNL     1       2.092   6.678  20.322  0.00  0.00    +0.000 A 
ATOM      5  N   UNL     1       1.319   7.289  21.252  0.00  0.00    +0.000 NA
ATOM      6  C   UNL     1       0.828   8.506  21.023  0.00  0.00    +0.000 A 
ATOM      7  C   UNL     1       0.062   9.091  22.019  0.00  0.00    +0.000 A 
ATOM      8  C   UNL     1      -0.495  10.369  21.875  0.00  0.00    +0.000 A 
ATOM      9  C   UNL     1      -0.272  11.076  20.703  0.00  0.00    +0.000 A 
ATOM     10  C   UNL     1       0.494  10.496  19.692  0.00  0.00    +0.000 A 
ATOM     11  C   UNL     1       1.052   9.194  19.825  0.00  0.00    +0.000 A 
ENDROOT
BRANCH   3  12
ATOM     12  C   UNL     1       3.318   6.595  18.043  0.00  0.00    +0.000 A 
ATOM     13  C   UNL     1       3.092   5.266  17.618  0.00  0.00    +0.000 A 
ATOM     14  C   UNL     1       4.019   4.565  16.836  0.00  0.00    +0.000 A 
ATOM     15  C   UNL     1       5.138   5.211  16.334  0.00  0.00    +0.000 A 
ATOM     16  C   UNL     1       5.328   6.556  16.625  0.00  0.00    +0.000 A 
ATOM     17  C   UNL     1       4.454   7.220  17.496  0.00  0.00    +0.000 A 
ENDBRANCH   3  12
BRANCH   4  18
ATOM     18  S   UNL     1       2.679   5.070  20.885  0.00  0.00    +0.000 S 
BRANCH  18  19
ATOM     19  C   UNL     1       1.186   4.008  20.701  0.00  0.00    +0.000 C 
BRANCH  19  20
ATOM     20  C   UNL     1       1.442   2.490  20.819  0.00  0.00    +0.000 C 
BRANCH  20  21
ATOM     21  N   UNL     1       1.643   1.823  19.504  0.00  0.00    +0.000 NA
ATOM     22  C   UNL     1       0.878   2.480  18.435  0.00  0.00    +0.000 C 
ATOM     23  C   UNL     1       3.059   1.815  19.142  0.00  0.00    +0.000 C 
ENDBRANCH  20  21
ENDBRANCH  19  20
ENDBRANCH  18  19
ENDBRANCH   4  18
TORSDOF 5
ENDMDL
MODEL 7
REMARK VINA RESULT:      -6.3      1.840      5.876
REMARK  Name = 
REMARK  8 active torsions:
REMARK  status: ('A' for Active; 'I' for Inactive)
REMARK    1  A    between atoms: C_1  and  C_2
REMARK    2  A    between atoms: C_3  and  C_4
REMARK    3  A    between atoms: C_10  and  S_11
REMARK    4  A    between atoms: S_11  and  C_12
REMARK    5  A    between atoms: C_12  and  C_13
REMARK    6  A    between atoms: C_13  and  N_14
REMARK    7  A    between atoms: N_14  and  C_15
REMARK    8  A    between atoms: N_14  and  C_16
REMARK                            x       y       z     vdW  Elec       q    Type
REMARK                         _______ _______ _______ _____ _____    ______ ____
ROOT
ATOM      1  C   UNL     1       0.512   7.560  21.471  0.00  0.00    +0.000 C 
ATOM      2  C   UNL     1       1.328   7.646  20.192  0.00  0.00    +0.000 A 
ATOM      3  C   UNL     1       1.972   6.506  19.607  0.00  0.00    +0.000 A 
ATOM      4  C   UNL     1       2.795   6.802  18.487  0.00  0.00    +0.000 A 
ATOM      5  N   UNL     1       2.927   8.040  17.953  0.00  0.00    +0.000 NA
ATOM      6  C   UNL     1       2.259   9.069  18.471  0.00  0.00    +0.000 A 
ATOM      7  C   UNL     1       2.416  10.308  17.870  0.00  0.00    +0.000 A 
ATOM      8  C   UNL     1       1.753  11.451  18.337  0.00  0.00    +0.000 A 
ATOM      9  C   UNL     1       0.909  11.343  19.433  0.00  0.00    +0.000 A 
ATOM     10  C   UNL     1       0.746  10.102  20.049  0.00  0.00    +0.000 A 
ATOM     11  C   UNL     1       1.426   8.940  19.588  0.00  0.00    +0.000 A 
ENDROOT
BRANCH   3  12
ATOM     12  C   UNL     1       1.792   5.122  20.183  0.00  0.00    +0.000 A 
ATOM     13  C   UNL     1       2.482   4.713  21.346  0.00  0.00    +0.000 A 
ATOM     14  C   UNL     1       2.497   3.380  21.777  0.00  0.00    +0.000 A 
ATOM     15  C   UNL     1       1.709   2.434  21.140  0.00  0.00    +0.000 A 
ATOM     16  C   UNL     1       0.914   2.825  20.070  0.00  0.00    +0.000 A 
ATOM     17  C   UNL     1       0.989   4.137  19.579  0.00  0.00    +0.000 A 
ENDBRANCH   3  12
BRANCH   4  18
ATOM     18  S   UNL     1       3.751   5.571  17.581  0.00  0.00    +0.000 S 
BRANCH  18  19
ATOM     19  C   UNL     1       5.326   5.503  18.533  0.00  0.00    +0.000 C 
BRANCH  19  20
ATOM     20  C   UNL     1       6.405   4.566  17.949  0.00  0.00    +0.000 C 
BRANCH  20  21
ATOM     21  N   UNL     1       7.336   5.252  17.014  0.00  0.00    +0.000 NA
ATOM     22  C   UNL     1       6.992   4.991  15.609  0.00  0.00    +0.000 C 
ATOM     23  C   UNL     1       7.330   6.695  17.247  0.00  0.00    +0.000 C 
ENDBRANCH  20  21
ENDBRANCH  19  20
ENDBRANCH  18  19
ENDBRANCH   4  18
TORSDOF 5
ENDMDL
MODEL 8
REMARK VINA RESULT:      -6.3      2.216      6.439
REMARK  Name = 
REMARK  8 active torsions:
REMARK  status: ('A' for Active; 'I' for Inactive)
REMARK    1  A    between atoms: C_1  and  C_2
REMARK    2  A    between atoms: C_3  and  C_4
REMARK    3  A    between atoms: C_10  and  S_11
REMARK    4  A    between atoms: S_11  and  C_12
REMARK    5  A    between atoms: C_12  and  C_13
REMARK    6  A    between atoms: C_13  and  N_14
REMARK    7  A    between atoms: N_14  and  C_15
REMARK    8  A    between atoms: N_14  and  C_16
REMARK                            x       y       z     vdW  Elec       q    Type
REMARK                         _______ _______ _______ _____ _____    ______ ____
ROOT
ATOM      1  C   UNL     1       3.366   7.959  16.782  0.00  0.00    +0.000 C 
ATOM      2  C   UNL     1       3.328   7.053  18.002  0.00  0.00    +0.000 A 
ATOM      3  C   UNL     1       4.109   5.854  18.101  0.00  0.00    +0.000 A 
ATOM      4  C   UNL     1       3.846   5.072  19.257  0.00  0.00    +0.000 A 
ATOM      5  N   UNL     1       2.982   5.435  20.236  0.00  0.00    +0.000 NA
ATOM      6  C   UNL     1       2.324   6.591  20.154  0.00  0.00    +0.000 A 
ATOM      7  C   UNL     1       1.470   6.921  21.194  0.00  0.00    +0.000 A 
ATOM      8  C   UNL     1       0.737   8.115  21.204  0.00  0.00    +0.000 A 
ATOM      9  C   UNL     1       0.870   9.000  20.144  0.00  0.00    +0.000 A 
ATOM     10  C   UNL     1       1.723   8.676  19.089  0.00  0.00    +0.000 A 
ATOM     11  C   UNL     1       2.461   7.460  19.065  0.00  0.00    +0.000 A 
ENDROOT
BRANCH   3  12
ATOM     12  C   UNL     1       5.098   5.472  17.027  0.00  0.00    +0.000 A 
ATOM     13  C   UNL     1       4.751   4.574  15.993  0.00  0.00    +0.000 A 
ATOM     14  C   UNL     1       5.704   4.042  15.113  0.00  0.00    +0.000 A 
ATOM     15  C   UNL     1       7.013   4.497  15.148  0.00  0.00    +0.000 A 
ATOM     16  C   UNL     1       7.365   5.476  16.068  0.00  0.00    +0.000 A 
ATOM     17  C   UNL     1       6.432   5.922  17.014  0.00  0.00    +0.000 A 
ENDBRANCH   3  12
BRANCH   4  18
ATOM     18  S   UNL     1       4.652   3.501  19.620  0.00  0.00    +0.000 S 
BRANCH  18  19
ATOM     19  C   UNL     1       3.274   2.291  19.449  0.00  0.00    +0.000 C 
BRANCH  19  20
ATOM     20  C   UNL     1       2.598   2.259  18.062  0.00  0.00    +0.000 C 
BRANCH  20  21
ATOM     21  N   UNL     1       1.202   2.772  18.076  0.00  0.00    +0.000 NA
ATOM     22  C   UNL     1       0.667   2.867  19.441  0.00  0.00    +0.000 C 
ATOM     23  C   UNL     1       1.131   4.088  17.443  0.00  0.00    +0.000 C 
ENDBRANCH  20  21
ENDBRANCH  19  20
ENDBRANCH  18  19
ENDBRANCH   4  18
TORSDOF 5
ENDMDL
MODEL 9
REMARK VINA RESULT:      -6.3      2.022      6.165
REMARK  Name = 
REMARK  8 active torsions:
REMARK  status: ('A' for Active; 'I' for Inactive)
REMARK    1  A    between atoms: C_1  and  C_2
REMARK    2  A    between atoms: C_3  and  C_4
REMARK    3  A    between atoms: C_10  and  S_11
REMARK    4  A    between atoms: S_11  and  C_12
REMARK    5  A    between atoms: C_12  and  C_13
REMARK    6  A    between atoms: C_13  and  N_14
REMARK    7  A    between atoms: N_14  and  C_15
REMARK    8  A    between atoms: N_14  and  C_16
REMARK                            x       y       z     vdW  Elec       q    Type
REMARK                         _______ _______ _______ _____ _____    ______ ____
ROOT
ATOM      1  C   UNL     1       1.549   6.187  20.760  0.00  0.00    +0.000 C 
ATOM      2  C   UNL     1       2.023   7.022  19.582  0.00  0.00    +0.000 A 
ATOM      3  C   UNL     1       2.869   6.494  18.550  0.00  0.00    +0.000 A 
ATOM      4  C   UNL     1       3.313   7.455  17.602  0.00  0.00    +0.000 A 
ATOM      5  N   UNL     1       2.933   8.755  17.608  0.00  0.00    +0.000 NA
ATOM      6  C   UNL     1       2.088   9.202  18.536  0.00  0.00    +0.000 A 
ATOM      7  C   UNL     1       1.717  10.537  18.481  0.00  0.00    +0.000 A 
ATOM      8  C   UNL     1       0.830  11.102  19.407  0.00  0.00    +0.000 A 
ATOM      9  C   UNL     1       0.301  10.303  20.411  0.00  0.00    +0.000 A 
ATOM     10  C   UNL     1       0.670   8.960  20.479  0.00  0.00    +0.000 A 
ATOM     11  C   UNL     1       1.580   8.382  19.550  0.00  0.00    +0.000 A 
ENDROOT
BRANCH   3  12
ATOM     12  C   UNL     1       3.260   5.037  18.525  0.00  0.00    +0.000 A 
ATOM     13  C   UNL     1       2.545   4.095  17.751  0.00  0.00    +0.000 A 
ATOM     14  C   UNL     1       2.752   2.715  17.874  0.00  0.00    +0.000 A 
ATOM     15  C   UNL     1       3.778   2.234  18.671  0.00  0.00    +0.000 A 
ATOM     16  C   UNL     1       4.588   3.136  19.349  0.00  0.00    +0.000 A 
ATOM     17  C   UNL     1       4.305   4.508  19.305  0.00  0.00    +0.000 A 
ENDBRANCH   3  12
BRANCH   4  18
ATOM     18  S   UNL     1       4.412   7.081  16.223  0.00  0.00    +0.000 S 
BRANCH  18  19
ATOM     19  C   UNL     1       6.044   6.874  17.052  0.00  0.00    +0.000 C 
BRANCH  19  20
ATOM     20  C   UNL     1       6.866   5.655  16.584  0.00  0.00    +0.000 C 
BRANCH  20  21
ATOM     21  N   UNL     1       6.253   4.937  15.434  0.00  0.00    +0.000 NA
ATOM     22  C   UNL     1       7.168   4.857  14.288  0.00  0.00    +0.000 C 
ATOM     23  C   UNL     1       5.856   3.585  15.823  0.00  0.00    +0.000 C 
ENDBRANCH  20  21
ENDBRANCH  19  20
ENDBRANCH  18  19
ENDBRANCH   4  18
TORSDOF 5
ENDMDL
