MODEL 1
REMARK VINA RESULT:      -8.1      0.000      0.000
REMARK  Name = 
REMARK  5 active torsions:
REMARK  status: ('A' for Active; 'I' for Inactive)
REMARK    1  A    between atoms: N_2  and  C_4
REMARK    2  A    between atoms: N_8  and  C_9
REMARK    3  A    between atoms: C_9  and  C_10
REMARK    4  A    between atoms: C_10  and  C_11
REMARK    5  A    between atoms: C_23  and  N_24
REMARK                            x       y       z     vdW  Elec       q    Type
REMARK                         _______ _______ _______ _____ _____    ______ ____
ROOT
ATOM      1  C   UNL     1       3.946   5.349  18.917  0.00  0.00    +0.000 A 
ATOM      2  C   UNL     1       3.061   6.127  19.705  0.00  0.00    +0.000 A 
ATOM      3  C   UNL     1       2.570   7.347  19.220  0.00  0.00    +0.000 A 
ATOM      4  C   UNL     1       1.622   8.165  19.871  0.00  0.00    +0.000 A 
ATOM      5  N   UNL     1       1.007   7.736  21.070  0.00  0.00    +0.000 N 
ATOM      6  N   UNL     1       1.202   9.317  19.315  0.00  0.00    +0.000 NA
ATOM      7  C   UNL     1       1.706   9.646  18.117  0.00  0.00    +0.000 A 
ATOM      8  N   UNL     1       2.580   8.925  17.409  0.00  0.00    +0.000 NA
ATOM      9  C   UNL     1       2.997   7.780  17.951  0.00  0.00    +0.000 A 
ATOM     10  C   UNL     1       3.867   6.982  17.212  0.00  0.00    +0.000 A 
ATOM     11  C   UNL     1       4.368   5.733  17.635  0.00  0.00    +0.000 A 
ATOM     12  H   UNL     1       1.670   7.513  21.806  0.00  0.00    +0.000 HD
ENDROOT
BRANCH  11  13
ATOM     13  N   UNL     1       5.180   4.997  16.786  0.00  0.00    +0.000 N 
ATOM     14  C   UNL     1       6.646   5.048  16.886  0.00  0.00    +0.000 C 
ATOM     15  C   UNL     1       7.226   5.322  15.497  0.00  0.00    +0.000 C 
ATOM     16  C   UNL     1       6.732   4.314  14.464  0.00  0.00    +0.000 C 
ATOM     17  C   UNL     1       5.206   4.196  14.479  0.00  0.00    +0.000 C 
ATOM     18  C   UNL     1       4.678   3.946  15.893  0.00  0.00    +0.000 C 
ENDBRANCH  11  13
BRANCH   1  20
ATOM     19  O   UNL     1       3.424   3.242  19.647  0.00  0.00    +0.000 OA
ATOM     20  N   UNL     1       4.325   4.079  19.505  0.00  0.00    +0.000 N 
ATOM     21  O   UNL     1       5.525   3.895  19.753  0.00  0.00    +0.000 OA
ENDBRANCH   1  20
BRANCH   5  22
ATOM     22  C   UNL     1      -0.172   8.517  21.466  0.00  0.00    +0.000 C 
BRANCH  22  23
ATOM     23  C   UNL     1       0.068   9.399  22.703  0.00  0.00    +0.000 C 
BRANCH  23  24
ATOM     24  C   UNL     1      -0.556  10.773  22.518  0.00  0.00    +0.000 A 
ATOM     25  C   UNL     1       0.049  11.696  21.643  0.00  0.00    +0.000 A 
ATOM     26  C   UNL     1      -0.478  12.982  21.493  0.00  0.00    +0.000 A 
ATOM     27  C   UNL     1      -1.616  13.359  22.204  0.00  0.00    +0.000 A 
ATOM     28 CL   UNL     1      -2.262  14.934  22.026  0.00  0.00    +0.000 Cl
ATOM     29  C   UNL     1      -2.224  12.445  23.079  0.00  0.00    +0.000 A 
ATOM     30  C   UNL     1      -1.696  11.159  23.228  0.00  0.00    +0.000 A 
ENDBRANCH  23  24
ENDBRANCH  22  23
ENDBRANCH   5  22
TORSDOF 5
ENDMDL
MODEL 2
REMARK VINA RESULT:      -8.1      0.066      1.069
REMARK  Name = 
REMARK  5 active torsions:
REMARK  status: ('A' for Active; 'I' for Inactive)
REMARK    1  A    between atoms: N_2  and  C_4
REMARK    2  A    between atoms: N_8  and  C_9
REMARK    3  A    between atoms: C_9  and  C_10
REMARK    4  A    between atoms: C_10  and  C_11
REMARK    5  A    between atoms: C_23  and  N_24
REMARK                            x       y       z     vdW  Elec       q    Type
REMARK                         _______ _______ _______ _____ _____    ______ ____
ROOT
ATOM      1  C   UNL     1       3.930   5.375  18.937  0.00  0.00    +0.000 A 
ATOM      2  C   UNL     1       3.036   6.148  19.721  0.00  0.00    +0.000 A 
ATOM      3  C   UNL     1       2.545   7.368  19.236  0.00  0.00    +0.000 A 
ATOM      4  C   UNL     1       1.590   8.181  19.882  0.00  0.00    +0.000 A 
ATOM      5  N   UNL     1       0.967   7.747  21.074  0.00  0.00    +0.000 N 
ATOM      6  N   UNL     1       1.171   9.334  19.326  0.00  0.00    +0.000 NA
ATOM      7  C   UNL     1       1.683   9.668  18.134  0.00  0.00    +0.000 A 
ATOM      8  N   UNL     1       2.565   8.952  17.430  0.00  0.00    +0.000 NA
ATOM      9  C   UNL     1       2.981   7.807  17.972  0.00  0.00    +0.000 A 
ATOM     10  C   UNL     1       3.859   7.014  17.237  0.00  0.00    +0.000 A 
ATOM     11  C   UNL     1       4.361   5.765  17.660  0.00  0.00    +0.000 A 
ATOM     12  H   UNL     1       1.624   7.523  21.815  0.00  0.00    +0.000 HD
ENDROOT
BRANCH  11  13
ATOM     13  N   UNL     1       5.181   5.034  16.815  0.00  0.00    +0.000 N 
ATOM     14  C   UNL     1       6.647   5.117  16.903  0.00  0.00    +0.000 C 
ATOM     15  C   UNL     1       7.211   5.384  15.506  0.00  0.00    +0.000 C 
ATOM     16  C   UNL     1       6.730   4.351  14.491  0.00  0.00    +0.000 C 
ATOM     17  C   UNL     1       5.207   4.201  14.520  0.00  0.00    +0.000 C 
ATOM     18  C   UNL     1       4.695   3.960  15.941  0.00  0.00    +0.000 C 
ENDBRANCH  11  13
BRANCH   1  20
ATOM     19  O   UNL     1       5.514   3.930  19.740  0.00  0.00    +0.000 OA
ATOM     20  N   UNL     1       4.308   4.104  19.524  0.00  0.00    +0.000 N 
ATOM     21  O   UNL     1       3.400   3.321  19.835  0.00  0.00    +0.000 OA
ENDBRANCH   1  20
BRANCH   5  22
ATOM     22  C   UNL     1      -0.218   8.523  21.463  0.00  0.00    +0.000 C 
BRANCH  22  23
ATOM     23  C   UNL     1      -0.002   9.373  22.727  0.00  0.00    +0.000 C 
BRANCH  23  24
ATOM     24  C   UNL     1      -0.553  10.777  22.536  0.00  0.00    +0.000 A 
ATOM     25  C   UNL     1      -1.693  11.178  23.258  0.00  0.00    +0.000 A 
ATOM     26  C   UNL     1      -2.247  12.447  23.063  0.00  0.00    +0.000 A 
ATOM     27  C   UNL     1      -1.666  13.332  22.154  0.00  0.00    +0.000 A 
ATOM     28 CL   UNL     1      -2.343  14.885  21.910  0.00  0.00    +0.000 Cl
ATOM     29  C   UNL     1      -0.530  12.938  21.430  0.00  0.00    +0.000 A 
ATOM     30  C   UNL     1       0.023  11.668  21.626  0.00  0.00    +0.000 A 
ENDBRANCH  23  24
ENDBRANCH  22  23
ENDBRANCH   5  22
TORSDOF 5
ENDMDL
MODEL 3
REMARK VINA RESULT:      -8.0      2.331      3.073
REMARK  Name = 
REMARK  5 active torsions:
REMARK  status: ('A' for Active; 'I' for Inactive)
REMARK    1  A    between atoms: N_2  and  C_4
REMARK    2  A    between atoms: N_8  and  C_9
REMARK    3  A    between atoms: C_9  and  C_10
REMARK    4  A    between atoms: C_10  and  C_11
REMARK    5  A    between atoms: C_23  and  N_24
REMARK                            x       y       z     vdW  Elec       q    Type
REMARK                         _______ _______ _______ _____ _____    ______ ____
ROOT
ATOM      1  C   UNL     1       2.046   5.711  20.145  0.00  0.00    +0.000 A 
ATOM      2  C   UNL     1       1.506   6.956  20.557  0.00  0.00    +0.000 A 
ATOM      3  C   UNL     1       1.635   8.087  19.739  0.00  0.00    +0.000 A 
ATOM      4  C   UNL     1       1.071   9.354  19.998  0.00  0.00    +0.000 A 
ATOM      5  N   UNL     1       0.216   9.545  21.108  0.00  0.00    +0.000 N 
ATOM      6  N   UNL     1       1.242  10.378  19.141  0.00  0.00    +0.000 NA
ATOM      7  C   UNL     1       1.953  10.143  18.030  0.00  0.00    +0.000 A 
ATOM      8  N   UNL     1       2.499   8.975  17.680  0.00  0.00    +0.000 NA
ATOM      9  C   UNL     1       2.330   7.954  18.523  0.00  0.00    +0.000 A 
ATOM     10  C   UNL     1       2.842   6.711  18.158  0.00  0.00    +0.000 A 
ATOM     11  C   UNL     1       2.715   5.533  18.926  0.00  0.00    +0.000 A 
ATOM     12  H   UNL     1       0.643   9.292  21.994  0.00  0.00    +0.000 HD
ENDROOT
BRANCH  11  13
ATOM     13  N   UNL     1       3.212   4.337  18.432  0.00  0.00    +0.000 N 
ATOM     14  C   UNL     1       2.579   3.651  17.296  0.00  0.00    +0.000 C 
ATOM     15  C   UNL     1       2.345   2.187  17.673  0.00  0.00    +0.000 C 
ATOM     16  C   UNL     1       3.628   1.507  18.143  0.00  0.00    +0.000 C 
ATOM     17  C   UNL     1       4.325   2.318  19.237  0.00  0.00    +0.000 C 
ATOM     18  C   UNL     1       4.513   3.777  18.819  0.00  0.00    +0.000 C 
ENDBRANCH  11  13
BRANCH   1  20
ATOM     19  O   UNL     1       0.810   3.892  20.784  0.00  0.00    +0.000 OA
ATOM     20  N   UNL     1       1.784   4.608  21.050  0.00  0.00    +0.000 N 
ATOM     21  O   UNL     1       2.588   4.417  21.972  0.00  0.00    +0.000 OA
ENDBRANCH   1  20
BRANCH   5  22
ATOM     22  C   UNL     1      -0.547  10.800  21.084  0.00  0.00    +0.000 C 
BRANCH  22  23
ATOM     23  C   UNL     1      -0.884  11.336  22.486  0.00  0.00    +0.000 C 
BRANCH  23  24
ATOM     24  C   UNL     1      -2.202  12.095  22.473  0.00  0.00    +0.000 A 
ATOM     25  C   UNL     1      -2.997  12.121  23.635  0.00  0.00    +0.000 A 
ATOM     26  C   UNL     1      -4.235  12.771  23.632  0.00  0.00    +0.000 A 
ATOM     27  C   UNL     1      -4.689  13.408  22.478  0.00  0.00    +0.000 A 
ATOM     28 CL   UNL     1      -6.206  14.201  22.470  0.00  0.00    +0.000 Cl
ATOM     29  C   UNL     1      -3.902  13.384  21.316  0.00  0.00    +0.000 A 
ATOM     30  C   UNL     1      -2.664  12.734  21.319  0.00  0.00    +0.000 A 
ENDBRANCH  23  24
ENDBRANCH  22  23
ENDBRANCH   5  22
TORSDOF 5
ENDMDL
MODEL 4
REMARK VINA RESULT:      -8.0      6.049     10.248
REMARK  Name = 
REMARK  5 active torsions:
REMARK  status: ('A' for Active; 'I' for Inactive)
REMARK    1  A    between atoms: N_2  and  C_4
REMARK    2  A    between atoms: N_8  and  C_9
REMARK    3  A    between atoms: C_9  and  C_10
REMARK    4  A    between atoms: C_10  and  C_11
REMARK    5  A    between atoms: C_23  and  N_24
REMARK                            x       y       z     vdW  Elec       q    Type
REMARK                         _______ _______ _______ _____ _____    ______ ____
ROOT
ATOM      1  C   UNL     1       3.534   4.181  17.625  0.00  0.00    +0.000 A 
ATOM      2  C   UNL     1       4.376   4.546  16.545  0.00  0.00    +0.000 A 
ATOM      3  C   UNL     1       5.550   5.276  16.780  0.00  0.00    +0.000 A 
ATOM      4  C   UNL     1       6.508   5.623  15.804  0.00  0.00    +0.000 A 
ATOM      5  N   UNL     1       6.384   5.150  14.477  0.00  0.00    +0.000 N 
ATOM      6  N   UNL     1       7.613   6.318  16.133  0.00  0.00    +0.000 NA
ATOM      7  C   UNL     1       7.775   6.651  17.421  0.00  0.00    +0.000 A 
ATOM      8  N   UNL     1       6.944   6.342  18.421  0.00  0.00    +0.000 NA
ATOM      9  C   UNL     1       5.849   5.650  18.103  0.00  0.00    +0.000 A 
ATOM     10  C   UNL     1       4.992   5.268  19.133  0.00  0.00    +0.000 A 
ATOM     11  C   UNL     1       3.815   4.508  18.960  0.00  0.00    +0.000 A 
ATOM     12  H   UNL     1       5.502   5.399  14.041  0.00  0.00    +0.000 HD
ENDROOT
BRANCH  11  13
ATOM     13  N   UNL     1       3.073   4.133  20.069  0.00  0.00    +0.000 N 
ATOM     14  C   UNL     1       3.533   3.077  20.983  0.00  0.00    +0.000 C 
ATOM     15  C   UNL     1       2.398   2.073  21.189  0.00  0.00    +0.000 C 
ATOM     16  C   UNL     1       1.114   2.753  21.659  0.00  0.00    +0.000 C 
ATOM     17  C   UNL     1       0.738   3.928  20.754  0.00  0.00    +0.000 C 
ATOM     18  C   UNL     1       1.914   4.887  20.562  0.00  0.00    +0.000 C 
ENDBRANCH  11  13
BRANCH   1  20
ATOM     19  O   UNL     1       2.573   2.148  17.193  0.00  0.00    +0.000 OA
ATOM     20  N   UNL     1       2.390   3.370  17.255  0.00  0.00    +0.000 N 
ATOM     21  O   UNL     1       1.303   3.944  17.101  0.00  0.00    +0.000 OA
ENDBRANCH   1  20
BRANCH   5  22
ATOM     22  C   UNL     1       7.591   5.311  13.655  0.00  0.00    +0.000 C 
BRANCH  22  23
ATOM     23  C   UNL     1       7.326   5.159  12.148  0.00  0.00    +0.000 C 
BRANCH  23  24
ATOM     24  C   UNL     1       6.940   3.728  11.807  0.00  0.00    +0.000 A 
ATOM     25  C   UNL     1       5.595   3.326  11.927  0.00  0.00    +0.000 A 
ATOM     26  C   UNL     1       5.224   2.003  11.667  0.00  0.00    +0.000 A 
ATOM     27  C   UNL     1       6.184   1.071  11.277  0.00  0.00    +0.000 A 
ATOM     28 CL   UNL     1       5.734  -0.550  10.961  0.00  0.00    +0.000 Cl
ATOM     29  C   UNL     1       7.526   1.464  11.157  0.00  0.00    +0.000 A 
ATOM     30  C   UNL     1       7.897   2.787  11.417  0.00  0.00    +0.000 A 
ENDBRANCH  23  24
ENDBRANCH  22  23
ENDBRANCH   5  22
TORSDOF 5
ENDMDL
MODEL 5
REMARK VINA RESULT:      -7.9      5.338      9.705
REMARK  Name = 
REMARK  5 active torsions:
REMARK  status: ('A' for Active; 'I' for Inactive)
REMARK    1  A    between atoms: N_2  and  C_4
REMARK    2  A    between atoms: N_8  and  C_9
REMARK    3  A    between atoms: C_9  and  C_10
REMARK    4  A    between atoms: C_10  and  C_11
REMARK    5  A    between atoms: C_23  and  N_24
REMARK                            x       y       z     vdW  Elec       q    Type
REMARK                         _______ _______ _______ _____ _____    ______ ____
ROOT
ATOM      1  C   UNL     1      -2.937  10.799  16.956  0.00  0.00    +0.000 A 
ATOM      2  C   UNL     1      -1.560  10.500  17.107  0.00  0.00    +0.000 A 
ATOM      3  C   UNL     1      -0.914  10.743  18.328  0.00  0.00    +0.000 A 
ATOM      4  C   UNL     1       0.424  10.410  18.627  0.00  0.00    +0.000 A 
ATOM      5  N   UNL     1       1.209   9.689  17.698  0.00  0.00    +0.000 N 
ATOM      6  N   UNL     1       0.950  10.674  19.838  0.00  0.00    +0.000 NA
ATOM      7  C   UNL     1       0.151  11.247  20.749  0.00  0.00    +0.000 A 
ATOM      8  N   UNL     1      -1.133  11.569  20.573  0.00  0.00    +0.000 NA
ATOM      9  C   UNL     1      -1.663  11.307  19.377  0.00  0.00    +0.000 A 
ATOM     10  C   UNL     1      -3.014  11.584  19.183  0.00  0.00    +0.000 A 
ATOM     11  C   UNL     1      -3.723  11.332  17.989  0.00  0.00    +0.000 A 
ATOM     12  H   UNL     1       1.275  10.139  16.791  0.00  0.00    +0.000 HD
ENDROOT
BRANCH  11  13
ATOM     13  N   UNL     1      -5.084  11.591  17.932  0.00  0.00    +0.000 N 
ATOM     14  C   UNL     1      -5.638  12.602  17.019  0.00  0.00    +0.000 C 
ATOM     15  C   UNL     1      -6.559  13.531  17.813  0.00  0.00    +0.000 C 
ATOM     16  C   UNL     1      -7.633  12.756  18.571  0.00  0.00    +0.000 C 
ATOM     17  C   UNL     1      -7.027  11.630  19.411  0.00  0.00    +0.000 C 
ATOM     18  C   UNL     1      -6.098  10.747  18.575  0.00  0.00    +0.000 C 
ENDBRANCH  11  13
BRANCH   1  20
ATOM     19  O   UNL     1      -4.172   9.400  15.628  0.00  0.00    +0.000 OA
ATOM     20  N   UNL     1      -3.498  10.437  15.668  0.00  0.00    +0.000 N 
ATOM     21  O   UNL     1      -3.327  11.222  14.726  0.00  0.00    +0.000 OA
ENDBRANCH   1  20
BRANCH   5  22
ATOM     22  C   UNL     1       2.454   9.136  18.248  0.00  0.00    +0.000 C 
BRANCH  22  23
ATOM     23  C   UNL     1       2.869   7.805  17.598  0.00  0.00    +0.000 C 
BRANCH  23  24
ATOM     24  C   UNL     1       2.447   6.627  18.462  0.00  0.00    +0.000 A 
ATOM     25  C   UNL     1       2.163   5.389  17.854  0.00  0.00    +0.000 A 
ATOM     26  C   UNL     1       1.726   4.304  18.621  0.00  0.00    +0.000 A 
ATOM     27  C   UNL     1       1.578   4.438  20.001  0.00  0.00    +0.000 A 
ATOM     28 CL   UNL     1       1.041   3.115  20.943  0.00  0.00    +0.000 Cl
ATOM     29  C   UNL     1       1.859   5.670  20.614  0.00  0.00    +0.000 A 
ATOM     30  C   UNL     1       2.295   6.754  19.845  0.00  0.00    +0.000 A 
ENDBRANCH  23  24
ENDBRANCH  22  23
ENDBRANCH   5  22
TORSDOF 5
ENDMDL
MODEL 6
REMARK VINA RESULT:      -7.7      2.243      2.994
REMARK  Name = 
REMARK  5 active torsions:
REMARK  status: ('A' for Active; 'I' for Inactive)
REMARK    1  A    between atoms: N_2  and  C_4
REMARK    2  A    between atoms: N_8  and  C_9
REMARK    3  A    between atoms: C_9  and  C_10
REMARK    4  A    between atoms: C_10  and  C_11
REMARK    5  A    between atoms: C_23  and  N_24
REMARK                            x       y       z     vdW  Elec       q    Type
REMARK                         _______ _______ _______ _____ _____    ______ ____
ROOT
ATOM      1  C   UNL     1       2.055   5.642  20.090  0.00  0.00    +0.000 A 
ATOM      2  C   UNL     1       1.494   6.883  20.484  0.00  0.00    +0.000 A 
ATOM      3  C   UNL     1       1.640   8.015  19.670  0.00  0.00    +0.000 A 
ATOM      4  C   UNL     1       1.058   9.278  19.911  0.00  0.00    +0.000 A 
ATOM      5  N   UNL     1       0.168   9.463  20.994  0.00  0.00    +0.000 N 
ATOM      6  N   UNL     1       1.248  10.303  19.059  0.00  0.00    +0.000 NA
ATOM      7  C   UNL     1       1.995  10.073  17.970  0.00  0.00    +0.000 A 
ATOM      8  N   UNL     1       2.560   8.908  17.639  0.00  0.00    +0.000 NA
ATOM      9  C   UNL     1       2.373   7.887  18.476  0.00  0.00    +0.000 A 
ATOM     10  C   UNL     1       2.906   6.647  18.128  0.00  0.00    +0.000 A 
ATOM     11  C   UNL     1       2.764   5.469  18.892  0.00  0.00    +0.000 A 
ATOM     12  H   UNL     1       0.569   9.213  21.892  0.00  0.00    +0.000 HD
ENDROOT
BRANCH  11  13
ATOM     13  N   UNL     1       3.285   4.277  18.414  0.00  0.00    +0.000 N 
ATOM     14  C   UNL     1       2.687   3.580  17.266  0.00  0.00    +0.000 C 
ATOM     15  C   UNL     1       2.459   2.115  17.642  0.00  0.00    +0.000 C 
ATOM     16  C   UNL     1       3.737   1.450  18.145  0.00  0.00    +0.000 C 
ATOM     17  C   UNL     1       4.399   2.272  19.253  0.00  0.00    +0.000 C 
ATOM     18  C   UNL     1       4.582   3.731  18.834  0.00  0.00    +0.000 C 
ENDBRANCH  11  13
BRANCH   1  20
ATOM     19  O   UNL     1       2.536   4.397  21.951  0.00  0.00    +0.000 OA
ATOM     20  N   UNL     1       1.774   4.537  20.986  0.00  0.00    +0.000 N 
ATOM     21  O   UNL     1       0.757   3.864  20.767  0.00  0.00    +0.000 OA
ENDBRANCH   1  20
BRANCH   5  22
ATOM     22  C   UNL     1      -0.604  10.711  20.945  0.00  0.00    +0.000 C 
BRANCH  22  23
ATOM     23  C   UNL     1      -0.144  11.753  21.979  0.00  0.00    +0.000 C 
BRANCH  23  24
ATOM     24  C   UNL     1      -1.327  12.548  22.509  0.00  0.00    +0.000 A 
ATOM     25  C   UNL     1      -2.389  11.871  23.140  0.00  0.00    +0.000 A 
ATOM     26  C   UNL     1      -3.510  12.574  23.592  0.00  0.00    +0.000 A 
ATOM     27  C   UNL     1      -3.581  13.957  23.429  0.00  0.00    +0.000 A 
ATOM     28 CL   UNL     1      -4.952  14.821  23.978  0.00  0.00    +0.000 Cl
ATOM     29  C   UNL     1      -2.527  14.638  22.800  0.00  0.00    +0.000 A 
ATOM     30  C   UNL     1      -1.406  13.934  22.348  0.00  0.00    +0.000 A 
ENDBRANCH  23  24
ENDBRANCH  22  23
ENDBRANCH   5  22
TORSDOF 5
ENDMDL
MODEL 7
REMARK VINA RESULT:      -7.7      2.118      2.822
REMARK  Name = 
REMARK  5 active torsions:
REMARK  status: ('A' for Active; 'I' for Inactive)
REMARK    1  A    between atoms: N_2  and  C_4
REMARK    2  A    between atoms: N_8  and  C_9
REMARK    3  A    between atoms: C_9  and  C_10
REMARK    4  A    between atoms: C_10  and  C_11
REMARK    5  A    between atoms: C_23  and  N_24
REMARK                            x       y       z     vdW  Elec       q    Type
REMARK                         _______ _______ _______ _____ _____    ______ ____
ROOT
ATOM      1  C   UNL     1       1.964   5.800  20.153  0.00  0.00    +0.000 A 
ATOM      2  C   UNL     1       1.441   6.997  20.702  0.00  0.00    +0.000 A 
ATOM      3  C   UNL     1       1.506   8.195  19.977  0.00  0.00    +0.000 A 
ATOM      4  C   UNL     1       0.948   9.428  20.378  0.00  0.00    +0.000 A 
ATOM      5  N   UNL     1       0.166   9.512  21.553  0.00  0.00    +0.000 N 
ATOM      6  N   UNL     1       1.054  10.523  19.601  0.00  0.00    +0.000 NA
ATOM      7  C   UNL     1       1.694  10.392  18.431  0.00  0.00    +0.000 A 
ATOM      8  N   UNL     1       2.226   9.265  17.949  0.00  0.00    +0.000 NA
ATOM      9  C   UNL     1       2.121   8.175  18.711  0.00  0.00    +0.000 A 
ATOM     10  C   UNL     1       2.620   6.974  18.211  0.00  0.00    +0.000 A 
ATOM     11  C   UNL     1       2.554   5.735  18.882  0.00  0.00    +0.000 A 
ATOM     12  H   UNL     1       0.652   9.192  22.385  0.00  0.00    +0.000 HD
ENDROOT
BRANCH  11  13
ATOM     13  N   UNL     1       3.029   4.592  18.258  0.00  0.00    +0.000 N 
ATOM     14  C   UNL     1       2.170   3.778  17.384  0.00  0.00    +0.000 C 
ATOM     15  C   UNL     1       2.270   2.315  17.819  0.00  0.00    +0.000 C 
ATOM     16  C   UNL     1       3.716   1.829  17.856  0.00  0.00    +0.000 C 
ATOM     17  C   UNL     1       4.605   2.773  18.670  0.00  0.00    +0.000 C 
ATOM     18  C   UNL     1       4.449   4.223  18.211  0.00  0.00    +0.000 C 
ENDBRANCH  11  13
BRANCH   1  20
ATOM     19  O   UNL     1       0.801   3.905  20.700  0.00  0.00    +0.000 OA
ATOM     20  N   UNL     1       1.772   4.621  20.975  0.00  0.00    +0.000 N 
ATOM     21  O   UNL     1       2.626   4.376  21.838  0.00  0.00    +0.000 OA
ENDBRANCH   1  20
BRANCH   5  22
ATOM     22  C   UNL     1      -0.609  10.753  21.684  0.00  0.00    +0.000 C 
BRANCH  22  23
ATOM     23  C   UNL     1      -1.189  10.963  23.093  0.00  0.00    +0.000 C 
BRANCH  23  24
ATOM     24  C   UNL     1      -1.930  12.288  23.181  0.00  0.00    +0.000 A 
ATOM     25  C   UNL     1      -1.233  13.488  22.939  0.00  0.00    +0.000 A 
ATOM     26  C   UNL     1      -1.880  14.722  23.061  0.00  0.00    +0.000 A 
ATOM     27  C   UNL     1      -3.227  14.773  23.416  0.00  0.00    +0.000 A 
ATOM     28 CL   UNL     1      -4.022  16.281  23.570  0.00  0.00    +0.000 Cl
ATOM     29  C   UNL     1      -3.927  13.581  23.660  0.00  0.00    +0.000 A 
ATOM     30  C   UNL     1      -3.279  12.348  23.537  0.00  0.00    +0.000 A 
ENDBRANCH  23  24
ENDBRANCH  22  23
ENDBRANCH   5  22
TORSDOF 5
ENDMDL
MODEL 8
REMARK VINA RESULT:      -7.7      5.541     10.131
REMARK  Name = 
REMARK  5 active torsions:
REMARK  status: ('A' for Active; 'I' for Inactive)
REMARK    1  A    between atoms: N_2  and  C_4
REMARK    2  A    between atoms: N_8  and  C_9
REMARK    3  A    between atoms: C_9  and  C_10
REMARK    4  A    between atoms: C_10  and  C_11
REMARK    5  A    between atoms: C_23  and  N_24
REMARK                            x       y       z     vdW  Elec       q    Type
REMARK                         _______ _______ _______ _____ _____    ______ ____
ROOT
ATOM      1  C   UNL     1      -2.923  10.720  16.928  0.00  0.00    +0.000 A 
ATOM      2  C   UNL     1      -1.550  10.406  17.083  0.00  0.00    +0.000 A 
ATOM      3  C   UNL     1      -0.897  10.668  18.296  0.00  0.00    +0.000 A 
ATOM      4  C   UNL     1       0.437  10.324  18.599  0.00  0.00    +0.000 A 
ATOM      5  N   UNL     1       1.209   9.571  17.685  0.00  0.00    +0.000 N 
ATOM      6  N   UNL     1       0.970  10.609  19.802  0.00  0.00    +0.000 NA
ATOM      7  C   UNL     1       0.182  11.214  20.701  0.00  0.00    +0.000 A 
ATOM      8  N   UNL     1      -1.099  11.550  20.522  0.00  0.00    +0.000 NA
ATOM      9  C   UNL     1      -1.635  11.267  19.333  0.00  0.00    +0.000 A 
ATOM     10  C   UNL     1      -2.983  11.557  19.136  0.00  0.00    +0.000 A 
ATOM     11  C   UNL     1      -3.699  11.287  17.950  0.00  0.00    +0.000 A 
ATOM     12  H   UNL     1       1.279   9.999  16.767  0.00  0.00    +0.000 HD
ENDROOT
BRANCH  11  13
ATOM     13  N   UNL     1      -5.056  11.563  17.891  0.00  0.00    +0.000 N 
ATOM     14  C   UNL     1      -5.590  12.620  17.019  0.00  0.00    +0.000 C 
ATOM     15  C   UNL     1      -6.509  13.523  17.843  0.00  0.00    +0.000 C 
ATOM     16  C   UNL     1      -7.600  12.727  18.555  0.00  0.00    +0.000 C 
ATOM     17  C   UNL     1      -7.014  11.558  19.350  0.00  0.00    +0.000 C 
ATOM     18  C   UNL     1      -6.086  10.703  18.486  0.00  0.00    +0.000 C 
ENDBRANCH  11  13
BRANCH   1  20
ATOM     19  O   UNL     1      -4.056   9.235  15.603  0.00  0.00    +0.000 OA
ATOM     20  N   UNL     1      -3.493  10.336  15.651  0.00  0.00    +0.000 N 
ATOM     21  O   UNL     1      -3.442  11.160  14.727  0.00  0.00    +0.000 OA
ENDBRANCH   1  20
BRANCH   5  22
ATOM     22  C   UNL     1       2.448   9.014  18.244  0.00  0.00    +0.000 C 
BRANCH  22  23
ATOM     23  C   UNL     1       2.297   7.565  18.739  0.00  0.00    +0.000 C 
BRANCH  23  24
ATOM     24  C   UNL     1       3.183   6.625  17.938  0.00  0.00    +0.000 A 
ATOM     25  C   UNL     1       2.923   5.240  17.961  0.00  0.00    +0.000 A 
ATOM     26  C   UNL     1       3.753   4.351  17.273  0.00  0.00    +0.000 A 
ATOM     27  C   UNL     1       4.844   4.830  16.548  0.00  0.00    +0.000 A 
ATOM     28 CL   UNL     1       5.864   3.744  15.706  0.00  0.00    +0.000 Cl
ATOM     29  C   UNL     1       5.109   6.208  16.521  0.00  0.00    +0.000 A 
ATOM     30  C   UNL     1       4.279   7.097  17.211  0.00  0.00    +0.000 A 
ENDBRANCH  23  24
ENDBRANCH  22  23
ENDBRANCH   5  22
TORSDOF 5
ENDMDL
MODEL 9
REMARK VINA RESULT:      -7.6      5.303     10.474
REMARK  Name = 
REMARK  5 active torsions:
REMARK  status: ('A' for Active; 'I' for Inactive)
REMARK    1  A    between atoms: N_2  and  C_4
REMARK    2  A    between atoms: N_8  and  C_9
REMARK    3  A    between atoms: C_9  and  C_10
REMARK    4  A    between atoms: C_10  and  C_11
REMARK    5  A    between atoms: C_23  and  N_24
REMARK                            x       y       z     vdW  Elec       q    Type
REMARK                         _______ _______ _______ _____ _____    ______ ____
ROOT
ATOM      1  C   UNL     1      -3.470  11.673  18.611  0.00  0.00    +0.000 A 
ATOM      2  C   UNL     1      -2.187  11.184  18.260  0.00  0.00    +0.000 A 
ATOM      3  C   UNL     1      -1.067  11.521  19.033  0.00  0.00    +0.000 A 
ATOM      4  C   UNL     1       0.242  11.031  18.835  0.00  0.00    +0.000 A 
ATOM      5  N   UNL     1       0.499  10.046  17.854  0.00  0.00    +0.000 N 
ATOM      6  N   UNL     1       1.252  11.406  19.643  0.00  0.00    +0.000 NA
ATOM      7  C   UNL     1       0.963  12.246  20.646  0.00  0.00    +0.000 A 
ATOM      8  N   UNL     1      -0.245  12.738  20.934  0.00  0.00    +0.000 NA
ATOM      9  C   UNL     1      -1.251  12.368  20.141  0.00  0.00    +0.000 A 
ATOM     10  C   UNL     1      -2.532  12.823  20.449  0.00  0.00    +0.000 A 
ATOM     11  C   UNL     1      -3.698  12.493  19.727  0.00  0.00    +0.000 A 
ATOM     12  H   UNL     1       0.207  10.320  16.921  0.00  0.00    +0.000 HD
ENDROOT
BRANCH  11  13
ATOM     13  N   UNL     1      -4.929  12.956  20.165  0.00  0.00    +0.000 N 
ATOM     14  C   UNL     1      -5.455  12.605  21.493  0.00  0.00    +0.000 C 
ATOM     15  C   UNL     1      -6.884  12.083  21.335  0.00  0.00    +0.000 C 
ATOM     16  C   UNL     1      -7.772  13.069  20.582  0.00  0.00    +0.000 C 
ATOM     17  C   UNL     1      -7.130  13.509  19.263  0.00  0.00    +0.000 C 
ATOM     18  C   UNL     1      -5.697  13.999  19.475  0.00  0.00    +0.000 C 
ENDBRANCH  11  13
BRANCH   1  20
ATOM     19  O   UNL     1      -4.537  11.560  16.588  0.00  0.00    +0.000 OA
ATOM     20  N   UNL     1      -4.552  11.196  17.771  0.00  0.00    +0.000 N 
ATOM     21  O   UNL     1      -5.364  10.407  18.272  0.00  0.00    +0.000 OA
ENDBRANCH   1  20
BRANCH   5  22
ATOM     22  C   UNL     1       1.812   9.399  17.965  0.00  0.00    +0.000 C 
BRANCH  22  23
ATOM     23  C   UNL     1       1.792   8.120  18.821  0.00  0.00    +0.000 C 
BRANCH  23  24
ATOM     24  C   UNL     1       2.671   7.043  18.205  0.00  0.00    +0.000 A 
ATOM     25  C   UNL     1       3.821   7.417  17.483  0.00  0.00    +0.000 A 
ATOM     26  C   UNL     1       4.618   6.448  16.867  0.00  0.00    +0.000 A 
ATOM     27  C   UNL     1       4.285   5.098  16.971  0.00  0.00    +0.000 A 
ATOM     28 CL   UNL     1       5.256   3.910  16.215  0.00  0.00    +0.000 Cl
ATOM     29  C   UNL     1       3.140   4.719  17.688  0.00  0.00    +0.000 A 
ATOM     30  C   UNL     1       2.343   5.689  18.304  0.00  0.00    +0.000 A 
ENDBRANCH  23  24
ENDBRANCH  22  23
ENDBRANCH   5  22
TORSDOF 5
ENDMDL
