MODEL 1
REMARK VINA RESULT:      -7.1      0.000      0.000
REMARK  Name = 
REMARK  13 active torsions:
REMARK  status: ('A' for Active; 'I' for Inactive)
REMARK    1  A    between atoms: C_1  and  C_2
REMARK    2  A    between atoms: C_2  and  C_3
REMARK    3  A    between atoms: C_3  and  N_4
REMARK    4  A    between atoms: C_8  and  C_9
REMARK    5  A    between atoms: C_11  and  C_12
REMARK    6  A    between atoms: C_12  and  C_13
REMARK    7  A    between atoms: C_12  and  C_14
REMARK    8  A    between atoms: C_12  and  C_15
REMARK    9  A    between atoms: C_16  and  O_17
REMARK   10  A    between atoms: C_18  and  C_19
REMARK   11  A    between atoms: C_19  and  C_20
REMARK   12  A    between atoms: C_19  and  C_21
REMARK   13  A    between atoms: C_19  and  C_22
REMARK                            x       y       z     vdW  Elec       q    Type
REMARK                         _______ _______ _______ _____ _____    ______ ____
ROOT
ATOM      1  C   UNL     1       3.171   6.597  17.880  0.00  0.00    +0.000 A 
ATOM      2  C   UNL     1       2.566   5.393  18.232  0.00  0.00    +0.000 A 
ATOM      3  C   UNL     1       3.309   4.275  18.666  0.00  0.00    +0.000 A 
ATOM      4  C   UNL     1       4.719   4.446  18.717  0.00  0.00    +0.000 A 
ATOM      5  C   UNL     1       5.380   5.622  18.268  0.00  0.00    +0.000 A 
ATOM      6  C   UNL     1       4.560   6.691  17.868  0.00  0.00    +0.000 A 
ENDROOT
BRANCH   1  11
ATOM      7  N   UNL     1       0.610   9.136  20.837  0.00  0.00    +0.000 NA
ATOM      8  C   UNL     1       0.693  10.247  19.839  0.00  0.00    +0.000 C 
ATOM      9  C   UNL     1       0.753   9.600  18.441  0.00  0.00    +0.000 C 
ATOM     10  C   UNL     1       1.596   8.370  18.570  0.00  0.00    +0.000 C 
ATOM     11  C   UNL     1       2.347   7.780  17.624  0.00  0.00    +0.000 C 
ATOM     12  S   UNL     1       1.578   7.839  20.225  0.00  0.00    +0.000 S 
ATOM     13  O   UNL     1       2.895   8.008  20.803  0.00  0.00    +0.000 OA
ATOM     14  O   UNL     1       0.806   6.626  20.394  0.00  0.00    +0.000 OA
BRANCH   7  15
ATOM     15  C   UNL     1       0.951   9.495  22.231  0.00  0.00    +0.000 C 
BRANCH  15  17
ATOM     16  C   UNL     1      -1.054  10.740  23.074  0.00  0.00    +0.000 C 
ATOM     17  C   UNL     1      -0.268   9.439  23.149  0.00  0.00    +0.000 C 
ENDBRANCH  15  17
ENDBRANCH   7  15
ENDBRANCH   1  11
BRANCH   3  18
ATOM     18  C   UNL     1       2.558   2.974  19.057  0.00  0.00    +0.000 C 
ATOM     19  C   UNL     1       1.060   2.990  18.638  0.00  0.00    +0.000 C 
ATOM     20  C   UNL     1       3.175   1.750  18.342  0.00  0.00    +0.000 C 
ATOM     21  C   UNL     1       2.562   2.725  20.579  0.00  0.00    +0.000 C 
ENDBRANCH   3  18
BRANCH   5  22
ATOM     22  C   UNL     1       6.924   5.742  18.150  0.00  0.00    +0.000 C 
ATOM     23  C   UNL     1       7.464   4.596  17.264  0.00  0.00    +0.000 C 
ATOM     24  C   UNL     1       7.376   7.065  17.470  0.00  0.00    +0.000 C 
ATOM     25  C   UNL     1       7.643   5.704  19.514  0.00  0.00    +0.000 C 
ENDBRANCH   5  22
BRANCH   4  26
ATOM     26  O   UNL     1       5.502   3.469  19.269  0.00  0.00    +0.000 OA
ATOM     27  H   UNL     1       5.675   2.810  18.582  0.00  0.00    +0.000 HD
ENDBRANCH   4  26
TORSDOF 6
ENDMDL
MODEL 2
REMARK VINA RESULT:      -7.1      0.044      1.195
REMARK  Name = 
REMARK  13 active torsions:
REMARK  status: ('A' for Active; 'I' for Inactive)
REMARK    1  A    between atoms: C_1  and  C_2
REMARK    2  A    between atoms: C_2  and  C_3
REMARK    3  A    between atoms: C_3  and  N_4
REMARK    4  A    between atoms: C_8  and  C_9
REMARK    5  A    between atoms: C_11  and  C_12
REMARK    6  A    between atoms: C_12  and  C_13
REMARK    7  A    between atoms: C_12  and  C_14
REMARK    8  A    between atoms: C_12  and  C_15
REMARK    9  A    between atoms: C_16  and  O_17
REMARK   10  A    between atoms: C_18  and  C_19
REMARK   11  A    between atoms: C_19  and  C_20
REMARK   12  A    between atoms: C_19  and  C_21
REMARK   13  A    between atoms: C_19  and  C_22
REMARK                            x       y       z     vdW  Elec       q    Type
REMARK                         _______ _______ _______ _____ _____    ______ ____
ROOT
ATOM      1  C   UNL     1       3.176   6.614  17.893  0.00  0.00    +0.000 A 
ATOM      2  C   UNL     1       2.566   5.411  18.236  0.00  0.00    +0.000 A 
ATOM      3  C   UNL     1       3.303   4.285  18.658  0.00  0.00    +0.000 A 
ATOM      4  C   UNL     1       4.714   4.446  18.706  0.00  0.00    +0.000 A 
ATOM      5  C   UNL     1       5.381   5.623  18.265  0.00  0.00    +0.000 A 
ATOM      6  C   UNL     1       4.566   6.700  17.877  0.00  0.00    +0.000 A 
ENDROOT
BRANCH   1  11
ATOM      7  N   UNL     1       0.616   9.125  20.873  0.00  0.00    +0.000 NA
ATOM      8  C   UNL     1       0.708  10.248  19.891  0.00  0.00    +0.000 C 
ATOM      9  C   UNL     1       0.769   9.620  18.485  0.00  0.00    +0.000 C 
ATOM     10  C   UNL     1       1.607   8.384  18.600  0.00  0.00    +0.000 C 
ATOM     11  C   UNL     1       2.358   7.804  17.649  0.00  0.00    +0.000 C 
ATOM     12  S   UNL     1       1.580   7.832  20.248  0.00  0.00    +0.000 S 
ATOM     13  O   UNL     1       2.896   7.988  20.833  0.00  0.00    +0.000 OA
ATOM     14  O   UNL     1       0.802   6.620  20.398  0.00  0.00    +0.000 OA
BRANCH   7  15
ATOM     15  C   UNL     1       0.953   9.463  22.274  0.00  0.00    +0.000 C 
BRANCH  15  17
ATOM     16  C   UNL     1      -1.046  10.759  23.053  0.00  0.00    +0.000 C 
ATOM     17  C   UNL     1      -0.278   9.450  23.177  0.00  0.00    +0.000 C 
ENDBRANCH  15  17
ENDBRANCH   7  15
ENDBRANCH   1  11
BRANCH   3  18
ATOM     18  C   UNL     1       2.546   2.984  19.039  0.00  0.00    +0.000 C 
ATOM     19  C   UNL     1       2.562   2.702  20.569  0.00  0.00    +0.000 C 
ATOM     20  C   UNL     1       1.053   3.085  18.652  0.00  0.00    +0.000 C 
ATOM     21  C   UNL     1       3.157   1.731  18.379  0.00  0.00    +0.000 C 
ENDBRANCH   3  18
BRANCH   5  22
ATOM     22  C   UNL     1       6.925   5.736  18.144  0.00  0.00    +0.000 C 
ATOM     23  C   UNL     1       7.293   7.088  17.491  0.00  0.00    +0.000 C 
ATOM     24  C   UNL     1       7.643   5.711  19.522  0.00  0.00    +0.000 C 
ATOM     25  C   UNL     1       7.556   4.593  17.321  0.00  0.00    +0.000 C 
ENDBRANCH   5  22
BRANCH   4  26
ATOM     26  O   UNL     1       5.493   3.460  19.246  0.00  0.00    +0.000 OA
ATOM     27  H   UNL     1       4.941   2.955  19.859  0.00  0.00    +0.000 HD
ENDBRANCH   4  26
TORSDOF 6
ENDMDL
MODEL 3
REMARK VINA RESULT:      -7.0      0.579      3.656
REMARK  Name = 
REMARK  13 active torsions:
REMARK  status: ('A' for Active; 'I' for Inactive)
REMARK    1  A    between atoms: C_1  and  C_2
REMARK    2  A    between atoms: C_2  and  C_3
REMARK    3  A    between atoms: C_3  and  N_4
REMARK    4  A    between atoms: C_8  and  C_9
REMARK    5  A    between atoms: C_11  and  C_12
REMARK    6  A    between atoms: C_12  and  C_13
REMARK    7  A    between atoms: C_12  and  C_14
REMARK    8  A    between atoms: C_12  and  C_15
REMARK    9  A    between atoms: C_16  and  O_17
REMARK   10  A    between atoms: C_18  and  C_19
REMARK   11  A    between atoms: C_19  and  C_20
REMARK   12  A    between atoms: C_19  and  C_21
REMARK   13  A    between atoms: C_19  and  C_22
REMARK                            x       y       z     vdW  Elec       q    Type
REMARK                         _______ _______ _______ _____ _____    ______ ____
ROOT
ATOM      1  C   UNL     1       3.036   6.777  18.314  0.00  0.00    +0.000 A 
ATOM      2  C   UNL     1       4.419   6.793  18.156  0.00  0.00    +0.000 A 
ATOM      3  C   UNL     1       5.217   5.652  18.380  0.00  0.00    +0.000 A 
ATOM      4  C   UNL     1       4.525   4.479  18.785  0.00  0.00    +0.000 A 
ATOM      5  C   UNL     1       3.130   4.449  19.058  0.00  0.00    +0.000 A 
ATOM      6  C   UNL     1       2.411   5.627  18.792  0.00  0.00    +0.000 A 
ENDROOT
BRANCH   1  11
ATOM      7  N   UNL     1       0.296   9.599  20.819  0.00  0.00    +0.000 NA
ATOM      8  C   UNL     1       0.454  10.605  19.723  0.00  0.00    +0.000 C 
ATOM      9  C   UNL     1       0.605   9.821  18.404  0.00  0.00    +0.000 C 
ATOM     10  C   UNL     1       1.429   8.610  18.713  0.00  0.00    +0.000 C 
ATOM     11  C   UNL     1       2.239   7.928  17.885  0.00  0.00    +0.000 C 
ATOM     12  S   UNL     1       1.294   8.247  20.407  0.00  0.00    +0.000 S 
ATOM     13  O   UNL     1       2.570   8.474  21.056  0.00  0.00    +0.000 OA
ATOM     14  O   UNL     1       0.504   7.057  20.644  0.00  0.00    +0.000 OA
BRANCH   7  15
ATOM     15  C   UNL     1       0.542  10.096  22.190  0.00  0.00    +0.000 C 
BRANCH  15  17
ATOM     16  C   UNL     1      -1.491  11.295  23.032  0.00  0.00    +0.000 C 
ATOM     17  C   UNL     1      -0.704   9.993  23.067  0.00  0.00    +0.000 C 
ENDBRANCH  15  17
ENDBRANCH   7  15
ENDBRANCH   1  11
BRANCH   3  18
ATOM     18  C   UNL     1       6.751   5.748  18.166  0.00  0.00    +0.000 C 
ATOM     19  C   UNL     1       7.191   7.102  17.538  0.00  0.00    +0.000 C 
ATOM     20  C   UNL     1       7.500   5.654  19.515  0.00  0.00    +0.000 C 
ATOM     21  C   UNL     1       7.283   4.656  17.215  0.00  0.00    +0.000 C 
ENDBRANCH   3  18
BRANCH   5  22
ATOM     22  C   UNL     1       2.405   3.222  19.675  0.00  0.00    +0.000 C 
ATOM     23  C   UNL     1       0.935   3.593  19.981  0.00  0.00    +0.000 C 
ATOM     24  C   UNL     1       2.352   2.004  18.711  0.00  0.00    +0.000 C 
ATOM     25  C   UNL     1       3.072   2.707  20.966  0.00  0.00    +0.000 C 
ENDBRANCH   5  22
BRANCH   4  26
ATOM     26  O   UNL     1       5.198   3.291  18.876  0.00  0.00    +0.000 OA
ATOM     27  H   UNL     1       5.708   3.306  19.697  0.00  0.00    +0.000 HD
ENDBRANCH   4  26
TORSDOF 6
ENDMDL
MODEL 4
REMARK VINA RESULT:      -7.0      0.045      1.200
REMARK  Name = 
REMARK  13 active torsions:
REMARK  status: ('A' for Active; 'I' for Inactive)
REMARK    1  A    between atoms: C_1  and  C_2
REMARK    2  A    between atoms: C_2  and  C_3
REMARK    3  A    between atoms: C_3  and  N_4
REMARK    4  A    between atoms: C_8  and  C_9
REMARK    5  A    between atoms: C_11  and  C_12
REMARK    6  A    between atoms: C_12  and  C_13
REMARK    7  A    between atoms: C_12  and  C_14
REMARK    8  A    between atoms: C_12  and  C_15
REMARK    9  A    between atoms: C_16  and  O_17
REMARK   10  A    between atoms: C_18  and  C_19
REMARK   11  A    between atoms: C_19  and  C_20
REMARK   12  A    between atoms: C_19  and  C_21
REMARK   13  A    between atoms: C_19  and  C_22
REMARK                            x       y       z     vdW  Elec       q    Type
REMARK                         _______ _______ _______ _____ _____    ______ ____
ROOT
ATOM      1  C   UNL     1       3.169   6.613  17.898  0.00  0.00    +0.000 A 
ATOM      2  C   UNL     1       2.565   5.410  18.254  0.00  0.00    +0.000 A 
ATOM      3  C   UNL     1       3.309   4.292  18.684  0.00  0.00    +0.000 A 
ATOM      4  C   UNL     1       4.720   4.461  18.727  0.00  0.00    +0.000 A 
ATOM      5  C   UNL     1       5.380   5.636  18.274  0.00  0.00    +0.000 A 
ATOM      6  C   UNL     1       4.559   6.706  17.878  0.00  0.00    +0.000 A 
ENDROOT
BRANCH   1  11
ATOM      7  N   UNL     1       0.597   9.133  20.862  0.00  0.00    +0.000 NA
ATOM      8  C   UNL     1       0.682  10.249  19.871  0.00  0.00    +0.000 C 
ATOM      9  C   UNL     1       0.746   9.611  18.469  0.00  0.00    +0.000 C 
ATOM     10  C   UNL     1       1.590   8.381  18.594  0.00  0.00    +0.000 C 
ATOM     11  C   UNL     1       2.345   7.797  17.647  0.00  0.00    +0.000 C 
ATOM     12  S   UNL     1       1.568   7.840  20.245  0.00  0.00    +0.000 S 
ATOM     13  O   UNL     1       2.883   8.007  20.829  0.00  0.00    +0.000 OA
ATOM     14  O   UNL     1       0.796   6.625  20.405  0.00  0.00    +0.000 OA
BRANCH   7  15
ATOM     15  C   UNL     1       0.933   9.483  22.259  0.00  0.00    +0.000 C 
BRANCH  15  17
ATOM     16  C   UNL     1      -1.064  10.755  23.081  0.00  0.00    +0.000 C 
ATOM     17  C   UNL     1      -0.294   9.445  23.168  0.00  0.00    +0.000 C 
ENDBRANCH  15  17
ENDBRANCH   7  15
ENDBRANCH   1  11
BRANCH   3  18
ATOM     18  C   UNL     1       2.560   2.991  19.078  0.00  0.00    +0.000 C 
ATOM     19  C   UNL     1       3.181   1.716  18.437  0.00  0.00    +0.000 C 
ATOM     20  C   UNL     1       2.628   2.761  20.605  0.00  0.00    +0.000 C 
ATOM     21  C   UNL     1       1.083   3.003  18.634  0.00  0.00    +0.000 C 
ENDBRANCH   3  18
BRANCH   5  22
ATOM     22  C   UNL     1       6.923   5.756  18.148  0.00  0.00    +0.000 C 
ATOM     23  C   UNL     1       7.561   5.695  19.555  0.00  0.00    +0.000 C 
ATOM     24  C   UNL     1       7.554   4.590  17.335  0.00  0.00    +0.000 C 
ATOM     25  C   UNL     1       7.377   7.052  17.445  0.00  0.00    +0.000 C 
ENDBRANCH   5  22
BRANCH   4  26
ATOM     26  O   UNL     1       5.504   3.483  19.274  0.00  0.00    +0.000 OA
ATOM     27  H   UNL     1       5.047   2.640  19.153  0.00  0.00    +0.000 HD
ENDBRANCH   4  26
TORSDOF 6
ENDMDL
MODEL 5
REMARK VINA RESULT:      -7.0      0.534      3.643
REMARK  Name = 
REMARK  13 active torsions:
REMARK  status: ('A' for Active; 'I' for Inactive)
REMARK    1  A    between atoms: C_1  and  C_2
REMARK    2  A    between atoms: C_2  and  C_3
REMARK    3  A    between atoms: C_3  and  N_4
REMARK    4  A    between atoms: C_8  and  C_9
REMARK    5  A    between atoms: C_11  and  C_12
REMARK    6  A    between atoms: C_12  and  C_13
REMARK    7  A    between atoms: C_12  and  C_14
REMARK    8  A    between atoms: C_12  and  C_15
REMARK    9  A    between atoms: C_16  and  O_17
REMARK   10  A    between atoms: C_18  and  C_19
REMARK   11  A    between atoms: C_19  and  C_20
REMARK   12  A    between atoms: C_19  and  C_21
REMARK   13  A    between atoms: C_19  and  C_22
REMARK                            x       y       z     vdW  Elec       q    Type
REMARK                         _______ _______ _______ _____ _____    ______ ____
ROOT
ATOM      1  C   UNL     1       3.067   6.765  18.275  0.00  0.00    +0.000 A 
ATOM      2  C   UNL     1       4.453   6.802  18.151  0.00  0.00    +0.000 A 
ATOM      3  C   UNL     1       5.260   5.665  18.361  0.00  0.00    +0.000 A 
ATOM      4  C   UNL     1       4.573   4.472  18.716  0.00  0.00    +0.000 A 
ATOM      5  C   UNL     1       3.172   4.417  18.953  0.00  0.00    +0.000 A 
ATOM      6  C   UNL     1       2.445   5.595  18.704  0.00  0.00    +0.000 A 
ENDROOT
BRANCH   1  11
ATOM      7  N   UNL     1       0.334   9.560  20.816  0.00  0.00    +0.000 NA
ATOM      8  C   UNL     1       0.486  10.576  19.729  0.00  0.00    +0.000 C 
ATOM      9  C   UNL     1       0.632   9.804  18.403  0.00  0.00    +0.000 C 
ATOM     10  C   UNL     1       1.459   8.592  18.697  0.00  0.00    +0.000 C 
ATOM     11  C   UNL     1       2.266   7.919  17.859  0.00  0.00    +0.000 C 
ATOM     12  S   UNL     1       1.332   8.214  20.389  0.00  0.00    +0.000 S 
ATOM     13  O   UNL     1       2.611   8.437  21.033  0.00  0.00    +0.000 OA
ATOM     14  O   UNL     1       0.545   7.020  20.618  0.00  0.00    +0.000 OA
BRANCH   7  15
ATOM     15  C   UNL     1       0.585  10.045  22.192  0.00  0.00    +0.000 C 
BRANCH  15  17
ATOM     16  C   UNL     1      -1.404  11.296  23.062  0.00  0.00    +0.000 C 
ATOM     17  C   UNL     1      -0.666   9.965  23.063  0.00  0.00    +0.000 C 
ENDBRANCH  15  17
ENDBRANCH   7  15
ENDBRANCH   1  11
BRANCH   3  18
ATOM     18  C   UNL     1       6.797   5.784  18.187  0.00  0.00    +0.000 C 
ATOM     19  C   UNL     1       7.392   4.672  17.276  0.00  0.00    +0.000 C 
ATOM     20  C   UNL     1       7.170   7.120  17.505  0.00  0.00    +0.000 C 
ATOM     21  C   UNL     1       7.553   5.673  19.528  0.00  0.00    +0.000 C 
ENDBRANCH   3  18
BRANCH   5  22
ATOM     22  C   UNL     1       2.448   3.165  19.517  0.00  0.00    +0.000 C 
ATOM     23  C   UNL     1       3.193   2.662  20.775  0.00  0.00    +0.000 C 
ATOM     24  C   UNL     1       0.990   3.462  19.968  0.00  0.00    +0.000 C 
ATOM     25  C   UNL     1       2.345   2.012  18.498  0.00  0.00    +0.000 C 
ENDBRANCH   5  22
BRANCH   4  26
ATOM     26  O   UNL     1       5.258   3.290  18.789  0.00  0.00    +0.000 OA
ATOM     27  H   UNL     1       4.780   2.641  18.255  0.00  0.00    +0.000 HD
ENDBRANCH   4  26
TORSDOF 6
ENDMDL
MODEL 6
REMARK VINA RESULT:      -6.9      0.543      3.626
REMARK  Name = 
REMARK  13 active torsions:
REMARK  status: ('A' for Active; 'I' for Inactive)
REMARK    1  A    between atoms: C_1  and  C_2
REMARK    2  A    between atoms: C_2  and  C_3
REMARK    3  A    between atoms: C_3  and  N_4
REMARK    4  A    between atoms: C_8  and  C_9
REMARK    5  A    between atoms: C_11  and  C_12
REMARK    6  A    between atoms: C_12  and  C_13
REMARK    7  A    between atoms: C_12  and  C_14
REMARK    8  A    between atoms: C_12  and  C_15
REMARK    9  A    between atoms: C_16  and  O_17
REMARK   10  A    between atoms: C_18  and  C_19
REMARK   11  A    between atoms: C_19  and  C_20
REMARK   12  A    between atoms: C_19  and  C_21
REMARK   13  A    between atoms: C_19  and  C_22
REMARK                            x       y       z     vdW  Elec       q    Type
REMARK                         _______ _______ _______ _____ _____    ______ ____
ROOT
ATOM      1  C   UNL     1       3.085   6.777  18.296  0.00  0.00    +0.000 A 
ATOM      2  C   UNL     1       4.469   6.804  18.147  0.00  0.00    +0.000 A 
ATOM      3  C   UNL     1       5.272   5.664  18.359  0.00  0.00    +0.000 A 
ATOM      4  C   UNL     1       4.585   4.481  18.743  0.00  0.00    +0.000 A 
ATOM      5  C   UNL     1       3.188   4.438  19.006  0.00  0.00    +0.000 A 
ATOM      6  C   UNL     1       2.464   5.617  18.752  0.00  0.00    +0.000 A 
ENDROOT
BRANCH   1  11
ATOM      7  N   UNL     1       0.324   9.556  20.826  0.00  0.00    +0.000 NA
ATOM      8  C   UNL     1       0.481  10.575  19.743  0.00  0.00    +0.000 C 
ATOM      9  C   UNL     1       0.639   9.808  18.415  0.00  0.00    +0.000 C 
ATOM     10  C   UNL     1       1.468   8.597  18.712  0.00  0.00    +0.000 C 
ATOM     11  C   UNL     1       2.284   7.929  17.878  0.00  0.00    +0.000 C 
ATOM     12  S   UNL     1       1.330   8.214  20.401  0.00  0.00    +0.000 S 
ATOM     13  O   UNL     1       2.603   8.439  21.056  0.00  0.00    +0.000 OA
ATOM     14  O   UNL     1       0.545   7.017  20.621  0.00  0.00    +0.000 OA
BRANCH   7  15
ATOM     15  C   UNL     1       0.564  10.037  22.204  0.00  0.00    +0.000 C 
BRANCH  15  17
ATOM     16  C   UNL     1      -1.433  11.319  23.008  0.00  0.00    +0.000 C 
ATOM     17  C   UNL     1      -0.702   9.985  23.056  0.00  0.00    +0.000 C 
ENDBRANCH  15  17
ENDBRANCH   7  15
ENDBRANCH   1  11
BRANCH   3  18
ATOM     18  C   UNL     1       6.807   5.772  18.156  0.00  0.00    +0.000 C 
ATOM     19  C   UNL     1       7.603   5.648  19.487  0.00  0.00    +0.000 C 
ATOM     20  C   UNL     1       7.323   4.625  17.257  0.00  0.00    +0.000 C 
ATOM     21  C   UNL     1       7.228   7.123  17.543  0.00  0.00    +0.000 C 
ENDBRANCH   3  18
BRANCH   5  22
ATOM     22  C   UNL     1       2.467   3.199  19.601  0.00  0.00    +0.000 C 
ATOM     23  C   UNL     1       2.488   2.046  18.570  0.00  0.00    +0.000 C 
ATOM     24  C   UNL     1       3.163   2.650  20.877  0.00  0.00    +0.000 C 
ATOM     25  C   UNL     1       1.006   3.482  20.008  0.00  0.00    +0.000 C 
ENDBRANCH   5  22
BRANCH   4  26
ATOM     26  O   UNL     1       5.265   3.296  18.821  0.00  0.00    +0.000 OA
ATOM     27  H   UNL     1       5.559   3.188  19.736  0.00  0.00    +0.000 HD
ENDBRANCH   4  26
TORSDOF 6
ENDMDL
MODEL 7
REMARK VINA RESULT:      -6.0      4.931     10.597
REMARK  Name = 
REMARK  13 active torsions:
REMARK  status: ('A' for Active; 'I' for Inactive)
REMARK    1  A    between atoms: C_1  and  C_2
REMARK    2  A    between atoms: C_2  and  C_3
REMARK    3  A    between atoms: C_3  and  N_4
REMARK    4  A    between atoms: C_8  and  C_9
REMARK    5  A    between atoms: C_11  and  C_12
REMARK    6  A    between atoms: C_12  and  C_13
REMARK    7  A    between atoms: C_12  and  C_14
REMARK    8  A    between atoms: C_12  and  C_15
REMARK    9  A    between atoms: C_16  and  O_17
REMARK   10  A    between atoms: C_18  and  C_19
REMARK   11  A    between atoms: C_19  and  C_20
REMARK   12  A    between atoms: C_19  and  C_21
REMARK   13  A    between atoms: C_19  and  C_22
REMARK                            x       y       z     vdW  Elec       q    Type
REMARK                         _______ _______ _______ _____ _____    ______ ____
ROOT
ATOM      1  C   UNL     1      -2.947  13.154  20.394  0.00  0.00    +0.000 A 
ATOM      2  C   UNL     1      -3.827  12.533  19.512  0.00  0.00    +0.000 A 
ATOM      3  C   UNL     1      -5.167  12.258  19.854  0.00  0.00    +0.000 A 
ATOM      4  C   UNL     1      -5.569  12.647  21.161  0.00  0.00    +0.000 A 
ATOM      5  C   UNL     1      -4.675  13.188  22.125  0.00  0.00    +0.000 A 
ATOM      6  C   UNL     1      -3.362  13.443  21.691  0.00  0.00    +0.000 A 
ENDROOT
BRANCH   1  11
ATOM      7  N   UNL     1       0.992  10.708  19.894  0.00  0.00    +0.000 NA
ATOM      8  C   UNL     1       1.441  11.765  18.938  0.00  0.00    +0.000 C 
ATOM      9  C   UNL     1       0.822  13.097  19.407  0.00  0.00    +0.000 C 
ATOM     10  C   UNL     1      -0.555  12.783  19.903  0.00  0.00    +0.000 C 
ATOM     11  C   UNL     1      -1.630  13.589  19.924  0.00  0.00    +0.000 C 
ATOM     12  S   UNL     1      -0.626  11.108  20.362  0.00  0.00    +0.000 S 
ATOM     13  O   UNL     1      -1.498  10.392  19.453  0.00  0.00    +0.000 OA
ATOM     14  O   UNL     1      -0.698  10.944  21.799  0.00  0.00    +0.000 OA
BRANCH   7  15
ATOM     15  C   UNL     1       1.121   9.312  19.421  0.00  0.00    +0.000 C 
BRANCH  15  17
ATOM     16  C   UNL     1       2.669   8.124  17.848  0.00  0.00    +0.000 C 
ATOM     17  C   UNL     1       1.645   9.241  17.988  0.00  0.00    +0.000 C 
ENDBRANCH  15  17
ENDBRANCH   7  15
ENDBRANCH   1  11
BRANCH   3  18
ATOM     18  C   UNL     1      -6.090  11.577  18.809  0.00  0.00    +0.000 C 
ATOM     19  C   UNL     1      -7.248  12.500  18.331  0.00  0.00    +0.000 C 
ATOM     20  C   UNL     1      -5.298  11.212  17.533  0.00  0.00    +0.000 C 
ATOM     21  C   UNL     1      -6.772  10.308  19.361  0.00  0.00    +0.000 C 
ENDBRANCH   3  18
BRANCH   5  22
ATOM     22  C   UNL     1      -5.065  13.442  23.606  0.00  0.00    +0.000 C 
ATOM     23  C   UNL     1      -3.783  13.634  24.450  0.00  0.00    +0.000 C 
ATOM     24  C   UNL     1      -5.905  14.736  23.795  0.00  0.00    +0.000 C 
ATOM     25  C   UNL     1      -5.904  12.302  24.218  0.00  0.00    +0.000 C 
ENDBRANCH   5  22
BRANCH   4  26
ATOM     26  O   UNL     1      -6.886  12.557  21.522  0.00  0.00    +0.000 OA
ATOM     27  H   UNL     1      -7.258  13.449  21.494  0.00  0.00    +0.000 HD
ENDBRANCH   4  26
TORSDOF 6
ENDMDL
MODEL 8
REMARK VINA RESULT:      -6.0      4.823     10.573
REMARK  Name = 
REMARK  13 active torsions:
REMARK  status: ('A' for Active; 'I' for Inactive)
REMARK    1  A    between atoms: C_1  and  C_2
REMARK    2  A    between atoms: C_2  and  C_3
REMARK    3  A    between atoms: C_3  and  N_4
REMARK    4  A    between atoms: C_8  and  C_9
REMARK    5  A    between atoms: C_11  and  C_12
REMARK    6  A    between atoms: C_12  and  C_13
REMARK    7  A    between atoms: C_12  and  C_14
REMARK    8  A    between atoms: C_12  and  C_15
REMARK    9  A    between atoms: C_16  and  O_17
REMARK   10  A    between atoms: C_18  and  C_19
REMARK   11  A    between atoms: C_19  and  C_20
REMARK   12  A    between atoms: C_19  and  C_21
REMARK   13  A    between atoms: C_19  and  C_22
REMARK                            x       y       z     vdW  Elec       q    Type
REMARK                         _______ _______ _______ _____ _____    ______ ____
ROOT
ATOM      1  C   UNL     1      -2.836  13.191  20.444  0.00  0.00    +0.000 A 
ATOM      2  C   UNL     1      -3.795  12.570  19.649  0.00  0.00    +0.000 A 
ATOM      3  C   UNL     1      -5.104  12.315  20.107  0.00  0.00    +0.000 A 
ATOM      4  C   UNL     1      -5.389  12.725  21.438  0.00  0.00    +0.000 A 
ATOM      5  C   UNL     1      -4.410  13.267  22.315  0.00  0.00    +0.000 A 
ATOM      6  C   UNL     1      -3.136  13.501  21.768  0.00  0.00    +0.000 A 
ENDROOT
BRANCH   1  11
ATOM      7  N   UNL     1       1.070  10.730  19.787  0.00  0.00    +0.000 NA
ATOM      8  C   UNL     1       1.443  11.738  18.747  0.00  0.00    +0.000 C 
ATOM      9  C   UNL     1       0.852  13.091  19.192  0.00  0.00    +0.000 C 
ATOM     10  C   UNL     1      -0.484  12.799  19.801  0.00  0.00    +0.000 C 
ATOM     11  C   UNL     1      -1.559  13.604  19.858  0.00  0.00    +0.000 C 
ATOM     12  S   UNL     1      -0.511  11.150  20.349  0.00  0.00    +0.000 S 
ATOM     13  O   UNL     1      -1.443  10.387  19.544  0.00  0.00    +0.000 OA
ATOM     14  O   UNL     1      -0.479  11.061  21.794  0.00  0.00    +0.000 OA
BRANCH   7  15
ATOM     15  C   UNL     1       1.174   9.312  19.377  0.00  0.00    +0.000 C 
BRANCH  15  17
ATOM     16  C   UNL     1       2.645   7.914  17.907  0.00  0.00    +0.000 C 
ATOM     17  C   UNL     1       1.779   9.163  17.983  0.00  0.00    +0.000 C 
ENDBRANCH  15  17
ENDBRANCH   7  15
ENDBRANCH   1  11
BRANCH   3  18
ATOM     18  C   UNL     1      -6.120  11.633  19.153  0.00  0.00    +0.000 C 
ATOM     19  C   UNL     1      -6.926  10.493  19.841  0.00  0.00    +0.000 C 
ATOM     20  C   UNL     1      -7.177  12.648  18.660  0.00  0.00    +0.000 C 
ATOM     21  C   UNL     1      -5.438  10.981  17.932  0.00  0.00    +0.000 C 
ENDBRANCH   3  18
BRANCH   5  22
ATOM     22  C   UNL     1      -4.670  13.544  23.820  0.00  0.00    +0.000 C 
ATOM     23  C   UNL     1      -4.908  12.205  24.557  0.00  0.00    +0.000 C 
ATOM     24  C   UNL     1      -3.460  14.217  24.528  0.00  0.00    +0.000 C 
ATOM     25  C   UNL     1      -5.874  14.475  24.068  0.00  0.00    +0.000 C 
ENDBRANCH   5  22
BRANCH   4  26
ATOM     26  O   UNL     1      -6.671  12.656  21.910  0.00  0.00    +0.000 OA
ATOM     27  H   UNL     1      -6.758  13.309  22.617  0.00  0.00    +0.000 HD
ENDBRANCH   4  26
TORSDOF 6
ENDMDL
MODEL 9
REMARK VINA RESULT:      -5.9      4.696     10.383
REMARK  Name = 
REMARK  13 active torsions:
REMARK  status: ('A' for Active; 'I' for Inactive)
REMARK    1  A    between atoms: C_1  and  C_2
REMARK    2  A    between atoms: C_2  and  C_3
REMARK    3  A    between atoms: C_3  and  N_4
REMARK    4  A    between atoms: C_8  and  C_9
REMARK    5  A    between atoms: C_11  and  C_12
REMARK    6  A    between atoms: C_12  and  C_13
REMARK    7  A    between atoms: C_12  and  C_14
REMARK    8  A    between atoms: C_12  and  C_15
REMARK    9  A    between atoms: C_16  and  O_17
REMARK   10  A    between atoms: C_18  and  C_19
REMARK   11  A    between atoms: C_19  and  C_20
REMARK   12  A    between atoms: C_19  and  C_21
REMARK   13  A    between atoms: C_19  and  C_22
REMARK                            x       y       z     vdW  Elec       q    Type
REMARK                         _______ _______ _______ _____ _____    ______ ____
ROOT
ATOM      1  C   UNL     1      -2.638  13.054  20.190  0.00  0.00    +0.000 A 
ATOM      2  C   UNL     1      -3.670  12.460  19.469  0.00  0.00    +0.000 A 
ATOM      3  C   UNL     1      -4.962  12.283  20.007  0.00  0.00    +0.000 A 
ATOM      4  C   UNL     1      -5.150  12.744  21.338  0.00  0.00    +0.000 A 
ATOM      5  C   UNL     1      -4.097  13.261  22.142  0.00  0.00    +0.000 A 
ATOM      6  C   UNL     1      -2.846  13.416  21.518  0.00  0.00    +0.000 A 
ENDROOT
BRANCH   1  11
ATOM      7  N   UNL     1       1.217  10.484  19.659  0.00  0.00    +0.000 NA
ATOM      8  C   UNL     1       1.563  11.374  18.508  0.00  0.00    +0.000 C 
ATOM      9  C   UNL     1       1.002  12.774  18.829  0.00  0.00    +0.000 C 
ATOM     10  C   UNL     1      -0.314  12.566  19.511  0.00  0.00    +0.000 C 
ATOM     11  C   UNL     1      -1.379  13.386  19.521  0.00  0.00    +0.000 C 
ATOM     12  S   UNL     1      -0.340  10.983  20.228  0.00  0.00    +0.000 S 
ATOM     13  O   UNL     1      -1.307  10.153  19.539  0.00  0.00    +0.000 OA
ATOM     14  O   UNL     1      -0.257  11.042  21.672  0.00  0.00    +0.000 OA
BRANCH   7  15
ATOM     15  C   UNL     1       1.291   9.030  19.395  0.00  0.00    +0.000 C 
BRANCH  15  17
ATOM     16  C   UNL     1       2.624   7.367  18.078  0.00  0.00    +0.000 C 
ATOM     17  C   UNL     1       1.940   8.726  18.047  0.00  0.00    +0.000 C 
ENDBRANCH  15  17
ENDBRANCH   7  15
ENDBRANCH   1  11
BRANCH   3  18
ATOM     18  C   UNL     1      -6.063  11.626  19.132  0.00  0.00    +0.000 C 
ATOM     19  C   UNL     1      -7.176  12.627  18.707  0.00  0.00    +0.000 C 
ATOM     20  C   UNL     1      -5.466  11.086  17.813  0.00  0.00    +0.000 C 
ATOM     21  C   UNL     1      -6.792  10.480  19.864  0.00  0.00    +0.000 C 
ENDBRANCH   3  18
BRANCH   5  22
ATOM     22  C   UNL     1      -4.256  13.593  23.650  0.00  0.00    +0.000 C 
ATOM     23  C   UNL     1      -5.403  14.614  23.835  0.00  0.00    +0.000 C 
ATOM     24  C   UNL     1      -4.640  12.352  24.504  0.00  0.00    +0.000 C 
ATOM     25  C   UNL     1      -2.971  14.160  24.288  0.00  0.00    +0.000 C 
ENDBRANCH   5  22
BRANCH   4  26
ATOM     26  O   UNL     1      -6.404  12.752  21.883  0.00  0.00    +0.000 OA
ATOM     27  H   UNL     1      -6.914  13.440  21.434  0.00  0.00    +0.000 HD
ENDBRANCH   4  26
TORSDOF 6
ENDMDL
