MODEL 1
REMARK VINA RESULT:      -7.2      0.000      0.000
REMARK  Name = 
REMARK  8 active torsions:
REMARK  status: ('A' for Active; 'I' for Inactive)
REMARK    1  A    between atoms: C_1  and  C_2
REMARK    2  A    between atoms: C_2  and  O_3
REMARK    3  A    between atoms: O_3  and  C_4
REMARK    4  A    between atoms: C_9  and  N_10
REMARK    5  A    between atoms: C_14  and  C_15
REMARK    6  A    between atoms: C_15  and  C_17
REMARK    7  A    between atoms: C_21  and  O_22
REMARK    8  A    between atoms: O_22  and  C_23
REMARK                            x       y       z     vdW  Elec       q    Type
REMARK                         _______ _______ _______ _____ _____    ______ ____
ROOT
ATOM      1  N   UNL     1       1.931   8.780  18.916  0.00  0.00    +0.000 NA
ATOM      2  C   UNL     1       1.216   8.434  20.146  0.00  0.00    +0.000 C 
ATOM      3  C   UNL     1       1.932   7.345  20.956  0.00  0.00    +0.000 C 
ATOM      4  C   UNL     1       2.192   6.097  20.119  0.00  0.00    +0.000 C 
ATOM      5  C   UNL     1       2.947   6.485  18.850  0.00  0.00    +0.000 C 
ATOM      6  C   UNL     1       2.206   7.589  18.098  0.00  0.00    +0.000 C 
ENDROOT
BRANCH   1  12
ATOM      7  C   UNL     1      -0.625  13.234  19.940  0.00  0.00    +0.000 C 
ATOM      8  O   UNL     1      -0.015  14.185  20.409  0.00  0.00    +0.000 OA
ATOM      9  N   UNL     1      -0.024  12.170  19.281  0.00  0.00    +0.000 N 
ATOM     10  C   UNL     1       1.430  12.118  19.317  0.00  0.00    +0.000 C 
ATOM     11  C   UNL     1       2.022  11.242  18.223  0.00  0.00    +0.000 C 
ATOM     12  C   UNL     1       1.355   9.862  18.074  0.00  0.00    +0.000 C 
ATOM     13  C   UNL     1      -0.178  10.028  18.064  0.00  0.00    +0.000 C 
ATOM     14  C   UNL     1      -0.720  10.891  19.186  0.00  0.00    +0.000 C 
BRANCH   7  15
ATOM     15  O   UNL     1      -1.972  13.069  20.046  0.00  0.00    +0.000 OA
BRANCH  15  17
ATOM     16  C   UNL     1      -2.272  12.295  22.277  0.00  0.00    +0.000 C 
ATOM     17  C   UNL     1      -2.544  13.428  21.307  0.00  0.00    +0.000 C 
ENDBRANCH  15  17
ENDBRANCH   7  15
ENDBRANCH   1  12
BRANCH   5  18
ATOM     18  C   UNL     1       3.089   5.320  17.871  0.00  0.00    +0.000 C 
ATOM     19  O   UNL     1       2.137   4.626  17.526  0.00  0.00    +0.000 OA
BRANCH  18  20
ATOM     20  C   UNL     1       4.403   5.132  17.197  0.00  0.00    +0.000 A 
ATOM     21  C   UNL     1       4.638   3.966  16.462  0.00  0.00    +0.000 A 
ATOM     22  C   UNL     1       5.845   3.812  15.778  0.00  0.00    +0.000 A 
ATOM     23  C   UNL     1       6.810   4.821  15.832  0.00  0.00    +0.000 A 
ATOM     24  C   UNL     1       6.585   5.981  16.575  0.00  0.00    +0.000 A 
ATOM     25  C   UNL     1       5.386   6.125  17.269  0.00  0.00    +0.000 A 
BRANCH  24  26
ATOM     26  O   UNL     1       7.596   6.904  16.556  0.00  0.00    +0.000 OA
ATOM     27  C   UNL     1       7.692   7.762  17.691  0.00  0.00    +0.000 C 
ENDBRANCH  24  26
ENDBRANCH  18  20
ENDBRANCH   5  18
TORSDOF 6
ENDMDL
MODEL 2
REMARK VINA RESULT:      -7.0      2.743      8.867
REMARK  Name = 
REMARK  8 active torsions:
REMARK  status: ('A' for Active; 'I' for Inactive)
REMARK    1  A    between atoms: C_1  and  C_2
REMARK    2  A    between atoms: C_2  and  O_3
REMARK    3  A    between atoms: O_3  and  C_4
REMARK    4  A    between atoms: C_9  and  N_10
REMARK    5  A    between atoms: C_14  and  C_15
REMARK    6  A    between atoms: C_15  and  C_17
REMARK    7  A    between atoms: C_21  and  O_22
REMARK    8  A    between atoms: O_22  and  C_23
REMARK                            x       y       z     vdW  Elec       q    Type
REMARK                         _______ _______ _______ _____ _____    ______ ____
ROOT
ATOM      1  N   UNL     1       3.246   4.916  19.308  0.00  0.00    +0.000 NA
ATOM      2  C   UNL     1       2.837   5.068  20.706  0.00  0.00    +0.000 C 
ATOM      3  C   UNL     1       1.532   5.861  20.856  0.00  0.00    +0.000 C 
ATOM      4  C   UNL     1       1.617   7.222  20.172  0.00  0.00    +0.000 C 
ATOM      5  C   UNL     1       2.033   7.034  18.716  0.00  0.00    +0.000 C 
ATOM      6  C   UNL     1       3.319   6.216  18.623  0.00  0.00    +0.000 C 
ENDROOT
BRANCH   1  12
ATOM      7  C   UNL     1       6.607   4.631  15.303  0.00  0.00    +0.000 C 
ATOM      8  O   UNL     1       7.391   5.550  15.108  0.00  0.00    +0.000 OA
ATOM      9  N   UNL     1       5.956   4.404  16.508  0.00  0.00    +0.000 N 
ATOM     10  C   UNL     1       6.094   5.433  17.528  0.00  0.00    +0.000 C 
ATOM     11  C   UNL     1       5.776   4.930  18.928  0.00  0.00    +0.000 C 
ATOM     12  C   UNL     1       4.472   4.120  19.038  0.00  0.00    +0.000 C 
ATOM     13  C   UNL     1       4.417   3.074  17.907  0.00  0.00    +0.000 C 
ATOM     14  C   UNL     1       4.720   3.629  16.529  0.00  0.00    +0.000 C 
BRANCH   7  15
ATOM     15  O   UNL     1       6.230   3.738  14.348  0.00  0.00    +0.000 OA
BRANCH  15  17
ATOM     16  C   UNL     1       5.781   3.183  12.077  0.00  0.00    +0.000 C 
ATOM     17  C   UNL     1       6.574   4.085  13.004  0.00  0.00    +0.000 C 
ENDBRANCH  15  17
ENDBRANCH   7  15
ENDBRANCH   1  12
BRANCH   5  18
ATOM     18  C   UNL     1       2.315   8.359  18.008  0.00  0.00    +0.000 C 
ATOM     19  O   UNL     1       3.220   8.491  17.188  0.00  0.00    +0.000 OA
BRANCH  18  20
ATOM     20  C   UNL     1       1.353   9.477  18.210  0.00  0.00    +0.000 A 
ATOM     21  C   UNL     1       1.815  10.705  18.693  0.00  0.00    +0.000 A 
ATOM     22  C   UNL     1       0.928  11.774  18.826  0.00  0.00    +0.000 A 
ATOM     23  C   UNL     1      -0.415  11.612  18.476  0.00  0.00    +0.000 A 
ATOM     24  C   UNL     1      -0.884  10.384  18.005  0.00  0.00    +0.000 A 
ATOM     25  C   UNL     1       0.001   9.315  17.889  0.00  0.00    +0.000 A 
BRANCH  24  26
ATOM     26  O   UNL     1      -2.216  10.339  17.691  0.00  0.00    +0.000 OA
ATOM     27  C   UNL     1      -2.945  11.554  17.845  0.00  0.00    +0.000 C 
ENDBRANCH  24  26
ENDBRANCH  18  20
ENDBRANCH   5  18
TORSDOF 6
ENDMDL
MODEL 3
REMARK VINA RESULT:      -7.0      2.546      8.635
REMARK  Name = 
REMARK  8 active torsions:
REMARK  status: ('A' for Active; 'I' for Inactive)
REMARK    1  A    between atoms: C_1  and  C_2
REMARK    2  A    between atoms: C_2  and  O_3
REMARK    3  A    between atoms: O_3  and  C_4
REMARK    4  A    between atoms: C_9  and  N_10
REMARK    5  A    between atoms: C_14  and  C_15
REMARK    6  A    between atoms: C_15  and  C_17
REMARK    7  A    between atoms: C_21  and  O_22
REMARK    8  A    between atoms: O_22  and  C_23
REMARK                            x       y       z     vdW  Elec       q    Type
REMARK                         _______ _______ _______ _____ _____    ______ ____
ROOT
ATOM      1  N   UNL     1       3.249   5.040  19.292  0.00  0.00    +0.000 NA
ATOM      2  C   UNL     1       2.817   5.217  20.680  0.00  0.00    +0.000 C 
ATOM      3  C   UNL     1       1.519   6.027  20.794  0.00  0.00    +0.000 C 
ATOM      4  C   UNL     1       1.632   7.376  20.092  0.00  0.00    +0.000 C 
ATOM      5  C   UNL     1       2.071   7.162  18.647  0.00  0.00    +0.000 C 
ATOM      6  C   UNL     1       3.350   6.328  18.590  0.00  0.00    +0.000 C 
ENDROOT
BRANCH   1  12
ATOM      7  C   UNL     1       6.588   4.540  15.290  0.00  0.00    +0.000 C 
ATOM      8  O   UNL     1       7.375   5.445  15.045  0.00  0.00    +0.000 OA
ATOM      9  N   UNL     1       5.943   4.376  16.508  0.00  0.00    +0.000 N 
ATOM     10  C   UNL     1       6.090   5.455  17.474  0.00  0.00    +0.000 C 
ATOM     11  C   UNL     1       5.778   5.024  18.900  0.00  0.00    +0.000 C 
ATOM     12  C   UNL     1       4.470   4.226  19.056  0.00  0.00    +0.000 C 
ATOM     13  C   UNL     1       4.406   3.125  17.979  0.00  0.00    +0.000 C 
ATOM     14  C   UNL     1       4.704   3.609  16.574  0.00  0.00    +0.000 C 
BRANCH   7  15
ATOM     15  O   UNL     1       6.203   3.602  14.383  0.00  0.00    +0.000 OA
BRANCH  15  17
ATOM     16  C   UNL     1       5.360   3.409  12.165  0.00  0.00    +0.000 C 
ATOM     17  C   UNL     1       6.518   3.892  13.018  0.00  0.00    +0.000 C 
ENDBRANCH  15  17
ENDBRANCH   7  15
ENDBRANCH   1  12
BRANCH   5  18
ATOM     18  C   UNL     1       2.381   8.472  17.925  0.00  0.00    +0.000 C 
ATOM     19  O   UNL     1       3.275   8.571  17.088  0.00  0.00    +0.000 OA
BRANCH  18  20
ATOM     20  C   UNL     1       1.458   9.621  18.135  0.00  0.00    +0.000 A 
ATOM     21  C   UNL     1       0.085   9.446  17.934  0.00  0.00    +0.000 A 
ATOM     22  C   UNL     1      -0.790  10.503  18.189  0.00  0.00    +0.000 A 
ATOM     23  C   UNL     1      -0.292  11.727  18.642  0.00  0.00    +0.000 A 
ATOM     24  C   UNL     1       1.079  11.910  18.832  0.00  0.00    +0.000 A 
ATOM     25  C   UNL     1       1.951  10.858  18.562  0.00  0.00    +0.000 A 
BRANCH  24  26
ATOM     26  O   UNL     1       1.456  13.147  19.280  0.00  0.00    +0.000 OA
ATOM     27  C   UNL     1       2.121  13.189  20.540  0.00  0.00    +0.000 C 
ENDBRANCH  24  26
ENDBRANCH  18  20
ENDBRANCH   5  18
TORSDOF 6
ENDMDL
MODEL 4
REMARK VINA RESULT:      -6.9      2.750      8.799
REMARK  Name = 
REMARK  8 active torsions:
REMARK  status: ('A' for Active; 'I' for Inactive)
REMARK    1  A    between atoms: C_1  and  C_2
REMARK    2  A    between atoms: C_2  and  O_3
REMARK    3  A    between atoms: O_3  and  C_4
REMARK    4  A    between atoms: C_9  and  N_10
REMARK    5  A    between atoms: C_14  and  C_15
REMARK    6  A    between atoms: C_15  and  C_17
REMARK    7  A    between atoms: C_21  and  O_22
REMARK    8  A    between atoms: O_22  and  C_23
REMARK                            x       y       z     vdW  Elec       q    Type
REMARK                         _______ _______ _______ _____ _____    ______ ____
ROOT
ATOM      1  N   UNL     1       3.233   4.309  19.169  0.00  0.00    +0.000 NA
ATOM      2  C   UNL     1       2.769   4.148  20.548  0.00  0.00    +0.000 C 
ATOM      3  C   UNL     1       1.457   4.895  20.820  0.00  0.00    +0.000 C 
ATOM      4  C   UNL     1       1.564   6.374  20.461  0.00  0.00    +0.000 C 
ATOM      5  C   UNL     1       2.037   6.512  19.017  0.00  0.00    +0.000 C 
ATOM      6  C   UNL     1       3.329   5.729  18.794  0.00  0.00    +0.000 C 
ENDROOT
BRANCH   1  12
ATOM      7  C   UNL     1       6.847   5.012  15.446  0.00  0.00    +0.000 C 
ATOM      8  O   UNL     1       7.645   5.935  15.547  0.00  0.00    +0.000 OA
ATOM      9  N   UNL     1       6.118   4.492  16.506  0.00  0.00    +0.000 N 
ATOM     10  C   UNL     1       6.193   5.216  17.767  0.00  0.00    +0.000 C 
ATOM     11  C   UNL     1       5.783   4.371  18.964  0.00  0.00    +0.000 C 
ATOM     12  C   UNL     1       4.471   3.587  18.776  0.00  0.00    +0.000 C 
ATOM     13  C   UNL     1       4.487   2.874  17.409  0.00  0.00    +0.000 C 
ATOM     14  C   UNL     1       4.881   3.764  16.246  0.00  0.00    +0.000 C 
BRANCH   7  15
ATOM     15  O   UNL     1       6.530   4.408  14.268  0.00  0.00    +0.000 OA
BRANCH  15  17
ATOM     16  C   UNL     1       6.989   3.889  11.991  0.00  0.00    +0.000 C 
ATOM     17  C   UNL     1       7.252   4.866  13.121  0.00  0.00    +0.000 C 
ENDBRANCH  15  17
ENDBRANCH   7  15
ENDBRANCH   1  12
BRANCH   5  18
ATOM     18  C   UNL     1       2.342   7.960  18.634  0.00  0.00    +0.000 C 
ATOM     19  O   UNL     1       3.250   8.263  17.865  0.00  0.00    +0.000 OA
BRANCH  18  20
ATOM     20  C   UNL     1       1.398   9.017  19.091  0.00  0.00    +0.000 A 
ATOM     21  C   UNL     1       0.584   9.664  18.156  0.00  0.00    +0.000 A 
ATOM     22  C   UNL     1      -0.345  10.612  18.588  0.00  0.00    +0.000 A 
ATOM     23  C   UNL     1      -0.455  10.910  19.949  0.00  0.00    +0.000 A 
ATOM     24  C   UNL     1       0.365  10.276  20.884  0.00  0.00    +0.000 A 
ATOM     25  C   UNL     1       1.301   9.341  20.448  0.00  0.00    +0.000 A 
BRANCH  24  26
ATOM     26  O   UNL     1       0.170  10.642  22.189  0.00  0.00    +0.000 OA
ATOM     27  C   UNL     1      -0.109   9.588  23.108  0.00  0.00    +0.000 C 
ENDBRANCH  24  26
ENDBRANCH  18  20
ENDBRANCH   5  18
TORSDOF 6
ENDMDL
MODEL 5
REMARK VINA RESULT:      -6.9      2.278      9.291
REMARK  Name = 
REMARK  8 active torsions:
REMARK  status: ('A' for Active; 'I' for Inactive)
REMARK    1  A    between atoms: C_1  and  C_2
REMARK    2  A    between atoms: C_2  and  O_3
REMARK    3  A    between atoms: O_3  and  C_4
REMARK    4  A    between atoms: C_9  and  N_10
REMARK    5  A    between atoms: C_14  and  C_15
REMARK    6  A    between atoms: C_15  and  C_17
REMARK    7  A    between atoms: C_21  and  O_22
REMARK    8  A    between atoms: O_22  and  C_23
REMARK                            x       y       z     vdW  Elec       q    Type
REMARK                         _______ _______ _______ _____ _____    ______ ____
ROOT
ATOM      1  N   UNL     1       3.020   7.097  19.020  0.00  0.00    +0.000 NA
ATOM      2  C   UNL     1       2.716   7.645  17.696  0.00  0.00    +0.000 C 
ATOM      3  C   UNL     1       2.291   9.119  17.752  0.00  0.00    +0.000 C 
ATOM      4  C   UNL     1       1.118   9.332  18.703  0.00  0.00    +0.000 C 
ATOM      5  C   UNL     1       1.465   8.763  20.075  0.00  0.00    +0.000 C 
ATOM      6  C   UNL     1       1.907   7.305  19.959  0.00  0.00    +0.000 C 
ENDROOT
BRANCH   1  12
ATOM      7  C   UNL     1       6.613   4.331  16.401  0.00  0.00    +0.000 C 
ATOM      8  O   UNL     1       7.801   4.538  16.607  0.00  0.00    +0.000 OA
ATOM      9  N   UNL     1       5.595   4.697  17.271  0.00  0.00    +0.000 N 
ATOM     10  C   UNL     1       5.973   5.531  18.402  0.00  0.00    +0.000 C 
ATOM     11  C   UNL     1       4.953   5.500  19.532  0.00  0.00    +0.000 C 
ATOM     12  C   UNL     1       3.493   5.689  19.082  0.00  0.00    +0.000 C 
ATOM     13  C   UNL     1       3.202   4.777  17.873  0.00  0.00    +0.000 C 
ATOM     14  C   UNL     1       4.236   4.860  16.767  0.00  0.00    +0.000 C 
BRANCH   7  15
ATOM     15  O   UNL     1       6.128   3.757  15.266  0.00  0.00    +0.000 OA
BRANCH  15  17
ATOM     16  C   UNL     1       5.921   3.574  12.902  0.00  0.00    +0.000 C 
ATOM     17  C   UNL     1       6.605   4.312  14.038  0.00  0.00    +0.000 C 
ENDBRANCH  15  17
ENDBRANCH   7  15
ENDBRANCH   1  12
BRANCH   5  18
ATOM     18  C   UNL     1       0.277   8.774  21.036  0.00  0.00    +0.000 C 
ATOM     19  O   UNL     1      -0.183   7.749  21.532  0.00  0.00    +0.000 OA
BRANCH  18  20
ATOM     20  C   UNL     1      -0.230  10.094  21.503  0.00  0.00    +0.000 A 
ATOM     21  C   UNL     1      -0.763  10.210  22.791  0.00  0.00    +0.000 A 
ATOM     22  C   UNL     1      -1.183  11.458  23.254  0.00  0.00    +0.000 A 
ATOM     23  C   UNL     1      -1.071  12.581  22.431  0.00  0.00    +0.000 A 
ATOM     24  C   UNL     1      -0.552  12.467  21.140  0.00  0.00    +0.000 A 
ATOM     25  C   UNL     1      -0.147  11.219  20.675  0.00  0.00    +0.000 A 
BRANCH  24  26
ATOM     26  O   UNL     1      -0.485  13.631  20.423  0.00  0.00    +0.000 OA
ATOM     27  C   UNL     1      -1.502  14.596  20.685  0.00  0.00    +0.000 C 
ENDBRANCH  24  26
ENDBRANCH  18  20
ENDBRANCH   5  18
TORSDOF 6
ENDMDL
MODEL 6
REMARK VINA RESULT:      -6.9      2.853      7.819
REMARK  Name = 
REMARK  8 active torsions:
REMARK  status: ('A' for Active; 'I' for Inactive)
REMARK    1  A    between atoms: C_1  and  C_2
REMARK    2  A    between atoms: C_2  and  O_3
REMARK    3  A    between atoms: O_3  and  C_4
REMARK    4  A    between atoms: C_9  and  N_10
REMARK    5  A    between atoms: C_14  and  C_15
REMARK    6  A    between atoms: C_15  and  C_17
REMARK    7  A    between atoms: C_21  and  O_22
REMARK    8  A    between atoms: O_22  and  C_23
REMARK                            x       y       z     vdW  Elec       q    Type
REMARK                         _______ _______ _______ _____ _____    ______ ____
ROOT
ATOM      1  N   UNL     1       3.554   4.129  17.096  0.00  0.00    +0.000 NA
ATOM      2  C   UNL     1       2.992   2.824  17.449  0.00  0.00    +0.000 C 
ATOM      3  C   UNL     1       1.554   2.924  17.974  0.00  0.00    +0.000 C 
ATOM      4  C   UNL     1       1.447   3.888  19.151  0.00  0.00    +0.000 C 
ATOM      5  C   UNL     1       2.029   5.242  18.752  0.00  0.00    +0.000 C 
ATOM      6  C   UNL     1       3.449   5.081  18.212  0.00  0.00    +0.000 C 
ENDROOT
BRANCH   1  12
ATOM      7  C   UNL     1       7.801   7.082  17.912  0.00  0.00    +0.000 C 
ATOM      8  O   UNL     1       8.437   6.949  18.949  0.00  0.00    +0.000 OA
ATOM      9  N   UNL     1       6.921   6.132  17.410  0.00  0.00    +0.000 N 
ATOM     10  C   UNL     1       6.621   5.000  18.273  0.00  0.00    +0.000 C 
ATOM     11  C   UNL     1       6.058   3.807  17.516  0.00  0.00    +0.000 C 
ATOM     12  C   UNL     1       4.928   4.149  16.528  0.00  0.00    +0.000 C 
ATOM     13  C   UNL     1       5.337   5.368  15.677  0.00  0.00    +0.000 C 
ATOM     14  C   UNL     1       5.872   6.538  16.480  0.00  0.00    +0.000 C 
BRANCH   7  15
ATOM     15  O   UNL     1       7.833   8.201  17.140  0.00  0.00    +0.000 OA
BRANCH  15  17
ATOM     16  C   UNL     1       8.959  10.011  18.200  0.00  0.00    +0.000 C 
ATOM     17  C   UNL     1       7.606   9.436  17.825  0.00  0.00    +0.000 C 
ENDBRANCH  15  17
ENDBRANCH   7  15
ENDBRANCH   1  12
BRANCH   5  18
ATOM     18  C   UNL     1       2.125   6.211  19.930  0.00  0.00    +0.000 C 
ATOM     19  O   UNL     1       2.582   5.882  21.021  0.00  0.00    +0.000 OA
BRANCH  18  20
ATOM     20  C   UNL     1       1.797   7.642  19.685  0.00  0.00    +0.000 A 
ATOM     21  C   UNL     1       2.124   8.222  18.455  0.00  0.00    +0.000 A 
ATOM     22  C   UNL     1       1.765   9.546  18.199  0.00  0.00    +0.000 A 
ATOM     23  C   UNL     1       1.083  10.284  19.170  0.00  0.00    +0.000 A 
ATOM     24  C   UNL     1       0.766   9.713  20.405  0.00  0.00    +0.000 A 
ATOM     25  C   UNL     1       1.140   8.396  20.662  0.00  0.00    +0.000 A 
BRANCH  24  26
ATOM     26  O   UNL     1       0.096  10.525  21.279  0.00  0.00    +0.000 OA
ATOM     27  C   UNL     1      -0.100  10.013  22.596  0.00  0.00    +0.000 C 
ENDBRANCH  24  26
ENDBRANCH  18  20
ENDBRANCH   5  18
TORSDOF 6
ENDMDL
MODEL 7
REMARK VINA RESULT:      -6.8      4.001      8.454
REMARK  Name = 
REMARK  8 active torsions:
REMARK  status: ('A' for Active; 'I' for Inactive)
REMARK    1  A    between atoms: C_1  and  C_2
REMARK    2  A    between atoms: C_2  and  O_3
REMARK    3  A    between atoms: O_3  and  C_4
REMARK    4  A    between atoms: C_9  and  N_10
REMARK    5  A    between atoms: C_14  and  C_15
REMARK    6  A    between atoms: C_15  and  C_17
REMARK    7  A    between atoms: C_21  and  O_22
REMARK    8  A    between atoms: O_22  and  C_23
REMARK                            x       y       z     vdW  Elec       q    Type
REMARK                         _______ _______ _______ _____ _____    ______ ____
ROOT
ATOM      1  N   UNL     1       4.662   6.625  18.398  0.00  0.00    +0.000 NA
ATOM      2  C   UNL     1       4.051   7.210  17.203  0.00  0.00    +0.000 C 
ATOM      3  C   UNL     1       2.995   8.271  17.539  0.00  0.00    +0.000 C 
ATOM      4  C   UNL     1       1.922   7.722  18.474  0.00  0.00    +0.000 C 
ATOM      5  C   UNL     1       2.584   7.129  19.715  0.00  0.00    +0.000 C 
ATOM      6  C   UNL     1       3.644   6.102  19.323  0.00  0.00    +0.000 C 
ENDROOT
BRANCH   1  12
ATOM      7  C   UNL     1       7.097   4.694  14.184  0.00  0.00    +0.000 C 
ATOM      8  O   UNL     1       7.895   5.393  13.577  0.00  0.00    +0.000 OA
ATOM      9  N   UNL     1       6.690   4.929  15.491  0.00  0.00    +0.000 N 
ATOM     10  C   UNL     1       7.118   6.184  16.091  0.00  0.00    +0.000 C 
ATOM     11  C   UNL     1       7.054   6.169  17.611  0.00  0.00    +0.000 C 
ATOM     12  C   UNL     1       5.738   5.620  18.192  0.00  0.00    +0.000 C 
ATOM     13  C   UNL     1       5.368   4.304  17.480  0.00  0.00    +0.000 C 
ATOM     14  C   UNL     1       5.426   4.377  15.966  0.00  0.00    +0.000 C 
BRANCH   7  15
ATOM     15  O   UNL     1       6.461   3.620  13.641  0.00  0.00    +0.000 OA
BRANCH  15  17
ATOM     16  C   UNL     1       4.969   3.239  11.826  0.00  0.00    +0.000 C 
ATOM     17  C   UNL     1       6.392   3.596  12.213  0.00  0.00    +0.000 C 
ENDBRANCH  15  17
ENDBRANCH   7  15
ENDBRANCH   1  12
BRANCH   5  18
ATOM     18  C   UNL     1       1.592   6.398  20.618  0.00  0.00    +0.000 C 
ATOM     19  O   UNL     1       0.724   6.984  21.259  0.00  0.00    +0.000 OA
BRANCH  18  20
ATOM     20  C   UNL     1       1.586   4.909  20.588  0.00  0.00    +0.000 A 
ATOM     21  C   UNL     1       0.659   4.241  19.781  0.00  0.00    +0.000 A 
ATOM     22  C   UNL     1       0.690   2.848  19.702  0.00  0.00    +0.000 A 
ATOM     23  C   UNL     1       1.643   2.130  20.428  0.00  0.00    +0.000 A 
ATOM     24  C   UNL     1       2.562   2.792  21.245  0.00  0.00    +0.000 A 
ATOM     25  C   UNL     1       2.519   4.181  21.333  0.00  0.00    +0.000 A 
BRANCH  24  26
ATOM     26  O   UNL     1       3.452   1.990  21.908  0.00  0.00    +0.000 OA
ATOM     27  C   UNL     1       4.588   1.554  21.165  0.00  0.00    +0.000 C 
ENDBRANCH  24  26
ENDBRANCH  18  20
ENDBRANCH   5  18
TORSDOF 6
ENDMDL
MODEL 8
REMARK VINA RESULT:      -6.8      2.157      9.162
REMARK  Name = 
REMARK  8 active torsions:
REMARK  status: ('A' for Active; 'I' for Inactive)
REMARK    1  A    between atoms: C_1  and  C_2
REMARK    2  A    between atoms: C_2  and  O_3
REMARK    3  A    between atoms: O_3  and  C_4
REMARK    4  A    between atoms: C_9  and  N_10
REMARK    5  A    between atoms: C_14  and  C_15
REMARK    6  A    between atoms: C_15  and  C_17
REMARK    7  A    between atoms: C_21  and  O_22
REMARK    8  A    between atoms: O_22  and  C_23
REMARK                            x       y       z     vdW  Elec       q    Type
REMARK                         _______ _______ _______ _____ _____    ______ ____
ROOT
ATOM      1  N   UNL     1       2.348   7.438  19.128  0.00  0.00    +0.000 NA
ATOM      2  C   UNL     1       2.043   8.040  17.828  0.00  0.00    +0.000 C 
ATOM      3  C   UNL     1       1.856   9.561  17.912  0.00  0.00    +0.000 C 
ATOM      4  C   UNL     1       0.797   9.944  18.941  0.00  0.00    +0.000 C 
ATOM      5  C   UNL     1       1.145   9.314  20.287  0.00  0.00    +0.000 C 
ATOM      6  C   UNL     1       1.347   7.807  20.141  0.00  0.00    +0.000 C 
ENDROOT
BRANCH   1  12
ATOM      7  C   UNL     1       6.259   4.370  17.482  0.00  0.00    +0.000 C 
ATOM      8  O   UNL     1       7.322   4.373  18.087  0.00  0.00    +0.000 OA
ATOM      9  N   UNL     1       5.058   4.818  18.015  0.00  0.00    +0.000 N 
ATOM     10  C   UNL     1       5.126   5.488  19.304  0.00  0.00    +0.000 C 
ATOM     11  C   UNL     1       3.788   5.525  20.029  0.00  0.00    +0.000 C 
ATOM     12  C   UNL     1       2.600   5.974  19.159  0.00  0.00    +0.000 C 
ATOM     13  C   UNL     1       2.630   5.219  17.815  0.00  0.00    +0.000 C 
ATOM     14  C   UNL     1       3.979   5.230  17.123  0.00  0.00    +0.000 C 
BRANCH   7  15
ATOM     15  O   UNL     1       6.122   3.973  16.188  0.00  0.00    +0.000 OA
BRANCH  15  17
ATOM     16  C   UNL     1       6.491   4.267  13.855  0.00  0.00    +0.000 C 
ATOM     17  C   UNL     1       6.983   4.618  15.246  0.00  0.00    +0.000 C 
ENDBRANCH  15  17
ENDBRANCH   7  15
ENDBRANCH   1  12
BRANCH   5  18
ATOM     18  C   UNL     1       0.041   9.500  21.327  0.00  0.00    +0.000 C 
ATOM     19  O   UNL     1      -0.496   8.554  21.897  0.00  0.00    +0.000 OA
BRANCH  18  20
ATOM     20  C   UNL     1      -0.273  10.885  21.771  0.00  0.00    +0.000 A 
ATOM     21  C   UNL     1      -1.241  11.088  22.760  0.00  0.00    +0.000 A 
ATOM     22  C   UNL     1      -1.495  12.380  23.223  0.00  0.00    +0.000 A 
ATOM     23  C   UNL     1      -0.784  13.461  22.697  0.00  0.00    +0.000 A 
ATOM     24  C   UNL     1       0.175  13.265  21.700  0.00  0.00    +0.000 A 
ATOM     25  C   UNL     1       0.415  11.976  21.230  0.00  0.00    +0.000 A 
BRANCH  24  26
ATOM     26  O   UNL     1       0.812  14.393  21.260  0.00  0.00    +0.000 OA
ATOM     27  C   UNL     1       1.165  14.424  19.879  0.00  0.00    +0.000 C 
ENDBRANCH  24  26
ENDBRANCH  18  20
ENDBRANCH   5  18
TORSDOF 6
ENDMDL
MODEL 9
REMARK VINA RESULT:      -6.8      1.154      1.735
REMARK  Name = 
REMARK  8 active torsions:
REMARK  status: ('A' for Active; 'I' for Inactive)
REMARK    1  A    between atoms: C_1  and  C_2
REMARK    2  A    between atoms: C_2  and  O_3
REMARK    3  A    between atoms: O_3  and  C_4
REMARK    4  A    between atoms: C_9  and  N_10
REMARK    5  A    between atoms: C_14  and  C_15
REMARK    6  A    between atoms: C_15  and  C_17
REMARK    7  A    between atoms: C_21  and  O_22
REMARK    8  A    between atoms: O_22  and  C_23
REMARK                            x       y       z     vdW  Elec       q    Type
REMARK                         _______ _______ _______ _____ _____    ______ ____
ROOT
ATOM      1  N   UNL     1       1.811   8.813  19.075  0.00  0.00    +0.000 NA
ATOM      2  C   UNL     1       0.967   8.388  20.195  0.00  0.00    +0.000 C 
ATOM      3  C   UNL     1       1.647   7.332  21.076  0.00  0.00    +0.000 C 
ATOM      4  C   UNL     1       2.105   6.126  20.262  0.00  0.00    +0.000 C 
ATOM      5  C   UNL     1       2.990   6.597  19.111  0.00  0.00    +0.000 C 
ATOM      6  C   UNL     1       2.277   7.665  18.284  0.00  0.00    +0.000 C 
ENDROOT
BRANCH   1  12
ATOM      7  C   UNL     1      -1.358  12.923  19.776  0.00  0.00    +0.000 C 
ATOM      8  O   UNL     1      -0.946  13.905  20.378  0.00  0.00    +0.000 OA
ATOM      9  N   UNL     1      -0.539  11.962  19.200  0.00  0.00    +0.000 N 
ATOM     10  C   UNL     1       0.883  12.057  19.492  0.00  0.00    +0.000 C 
ATOM     11  C   UNL     1       1.748  11.304  18.491  0.00  0.00    +0.000 C 
ATOM     12  C   UNL     1       1.273   9.873  18.182  0.00  0.00    +0.000 C 
ATOM     13  C   UNL     1      -0.243   9.881  17.905  0.00  0.00    +0.000 C 
ATOM     14  C   UNL     1      -1.063  10.625  18.941  0.00  0.00    +0.000 C 
BRANCH   7  15
ATOM     15  O   UNL     1      -2.676  12.615  19.637  0.00  0.00    +0.000 OA
BRANCH  15  17
ATOM     16  C   UNL     1      -4.867  13.206  20.357  0.00  0.00    +0.000 C 
ATOM     17  C   UNL     1      -3.481  12.784  20.807  0.00  0.00    +0.000 C 
ENDBRANCH  15  17
ENDBRANCH   7  15
ENDBRANCH   1  12
BRANCH   5  18
ATOM     18  C   UNL     1       3.344   5.469  18.142  0.00  0.00    +0.000 C 
ATOM     19  O   UNL     1       2.491   4.812  17.552  0.00  0.00    +0.000 OA
BRANCH  18  20
ATOM     20  C   UNL     1       4.777   5.277  17.787  0.00  0.00    +0.000 A 
ATOM     21  C   UNL     1       5.739   5.250  18.802  0.00  0.00    +0.000 A 
ATOM     22  C   UNL     1       7.076   5.010  18.479  0.00  0.00    +0.000 A 
ATOM     23  C   UNL     1       7.445   4.799  17.148  0.00  0.00    +0.000 A 
ATOM     24  C   UNL     1       6.489   4.839  16.131  0.00  0.00    +0.000 A 
ATOM     25  C   UNL     1       5.159   5.094  16.454  0.00  0.00    +0.000 A 
BRANCH  24  26
ATOM     26  O   UNL     1       6.961   4.617  14.865  0.00  0.00    +0.000 OA
ATOM     27  C   UNL     1       6.095   3.909  13.981  0.00  0.00    +0.000 C 
ENDBRANCH  24  26
ENDBRANCH  18  20
ENDBRANCH   5  18
TORSDOF 6
ENDMDL
