MODEL 1
REMARK VINA RESULT:      -7.2      0.000      0.000
REMARK  Name = 
REMARK  4 active torsions:
REMARK  status: ('A' for Active; 'I' for Inactive)
REMARK    1  A    between atoms: C_1  and  C_2
REMARK    2  A    between atoms: C_3  and  C_4
REMARK    3  A    between atoms: N_6  and  C_7
REMARK    4  A    between atoms: C_15  and  C_16
REMARK                            x       y       z     vdW  Elec       q    Type
REMARK                         _______ _______ _______ _____ _____    ______ ____
ROOT
ATOM      1  C   UNL     1      -1.604   9.948  17.119  0.00  0.00    +0.000 C 
ATOM      2  C   UNL     1      -1.345  10.773  18.360  0.00  0.00    +0.000 C 
ATOM      3  C   UNL     1      -0.186  10.886  19.062  0.00  0.00    +0.000 C 
ATOM      4  C   UNL     1      -0.117  11.821  20.289  0.00  0.00    +0.000 C 
ATOM      5  C   UNL     1      -1.441  12.493  20.620  0.00  0.00    +0.000 C 
ATOM      6  C   UNL     1      -2.546  12.283  19.884  0.00  0.00    +0.000 C 
ATOM      7  C   UNL     1      -3.894  12.883  20.205  0.00  0.00    +0.000 C 
ATOM      8  C   UNL     1      -3.965  13.488  21.603  0.00  0.00    +0.000 C 
ATOM      9  C   UNL     1      -2.718  14.301  21.898  0.00  0.00    +0.000 C 
ATOM     10  C   UNL     1      -1.513  13.400  21.797  0.00  0.00    +0.000 C 
ATOM     11  O   UNL     1      -0.612  13.438  22.629  0.00  0.00    +0.000 OA
ATOM     12  N   UNL     1      -2.481  11.459  18.784  0.00  0.00    +0.000 N 
ATOM     13  H   UNL     1      -3.338  11.304  18.260  0.00  0.00    +0.000 HD
ENDROOT
BRANCH   4  14
ATOM     14  C   UNL     1       1.060  12.791  20.236  0.00  0.00    +0.000 A 
ATOM     15  N   UNL     1       2.108  12.685  21.029  0.00  0.00    +0.000 NA
ATOM     16  C   UNL     1       2.987  13.720  20.788  0.00  0.00    +0.000 A 
ATOM     17  C   UNL     1       2.638  14.561  19.757  0.00  0.00    +0.000 A 
ATOM     18  S   UNL     1       1.135  14.072  19.087  0.00  0.00    +0.000 S 
ENDBRANCH   4  14
BRANCH   3  19
ATOM     19  C   UNL     1       1.082  10.159  18.662  0.00  0.00    +0.000 C 
ATOM     20  O   UNL     1       1.966  10.747  18.050  0.00  0.00    +0.000 OA
ATOM     21  N   UNL     1       1.161   8.836  19.060  0.00  0.00    +0.000 N 
ATOM     22  H   UNL     1       0.440   8.446  19.660  0.00  0.00    +0.000 HD
BRANCH  21  23
ATOM     23  C   UNL     1       2.195   7.899  18.799  0.00  0.00    +0.000 A 
ATOM     24  C   UNL     1       3.018   7.956  17.673  0.00  0.00    +0.000 A 
ATOM     25  C   UNL     1       3.968   6.957  17.444  0.00  0.00    +0.000 A 
ATOM     26 CL   UNL     1       4.955   7.024  16.032  0.00  0.00    +0.000 Cl
ATOM     27  C   UNL     1       4.122   5.896  18.334  0.00  0.00    +0.000 A 
ATOM     28  C   UNL     1       3.332   5.844  19.480  0.00  0.00    +0.000 A 
ATOM     29  C   UNL     1       2.379   6.835  19.708  0.00  0.00    +0.000 A 
ATOM     30 CL   UNL     1       1.415   6.691  21.139  0.00  0.00    +0.000 Cl
ENDBRANCH  21  23
ENDBRANCH   3  19
TORSDOF 3
ENDMDL
MODEL 2
REMARK VINA RESULT:      -6.9      3.248      5.998
REMARK  Name = 
REMARK  4 active torsions:
REMARK  status: ('A' for Active; 'I' for Inactive)
REMARK    1  A    between atoms: C_1  and  C_2
REMARK    2  A    between atoms: C_3  and  C_4
REMARK    3  A    between atoms: N_6  and  C_7
REMARK    4  A    between atoms: C_15  and  C_16
REMARK                            x       y       z     vdW  Elec       q    Type
REMARK                         _______ _______ _______ _____ _____    ______ ____
ROOT
ATOM      1  C   UNL     1      -1.327  14.806  21.019  0.00  0.00    +0.000 C 
ATOM      2  C   UNL     1      -1.366  13.612  20.091  0.00  0.00    +0.000 C 
ATOM      3  C   UNL     1      -0.320  12.976  19.503  0.00  0.00    +0.000 C 
ATOM      4  C   UNL     1      -0.571  11.738  18.614  0.00  0.00    +0.000 C 
ATOM      5  C   UNL     1      -2.043  11.398  18.444  0.00  0.00    +0.000 C 
ATOM      6  C   UNL     1      -3.011  12.118  19.038  0.00  0.00    +0.000 C 
ATOM      7  C   UNL     1      -4.486  11.853  18.855  0.00  0.00    +0.000 C 
ATOM      8  C   UNL     1      -4.788  10.905  17.699  0.00  0.00    +0.000 C 
ATOM      9  C   UNL     1      -3.833   9.726  17.711  0.00  0.00    +0.000 C 
ATOM     10  C   UNL     1      -2.421  10.240  17.588  0.00  0.00    +0.000 C 
ATOM     11  O   UNL     1      -1.605   9.706  16.842  0.00  0.00    +0.000 OA
ATOM     12  N   UNL     1      -2.668  13.178  19.844  0.00  0.00    +0.000 N 
ATOM     13  H   UNL     1      -3.422  13.716  20.263  0.00  0.00    +0.000 HD
ENDROOT
BRANCH   4  14
ATOM     14  C   UNL     1       0.289  10.539  19.001  0.00  0.00    +0.000 A 
ATOM     15  N   UNL     1       1.249  10.070  18.228  0.00  0.00    +0.000 NA
ATOM     16  C   UNL     1       1.823   8.960  18.812  0.00  0.00    +0.000 A 
ATOM     17  C   UNL     1       1.348   8.640  20.062  0.00  0.00    +0.000 A 
ATOM     18  S   UNL     1       0.107   9.737  20.515  0.00  0.00    +0.000 S 
ENDBRANCH   4  14
BRANCH   3  19
ATOM     19  C   UNL     1       1.118  13.402  19.719  0.00  0.00    +0.000 C 
ATOM     20  O   UNL     1       1.763  12.952  20.659  0.00  0.00    +0.000 OA
ATOM     21  N   UNL     1       1.626  14.286  18.783  0.00  0.00    +0.000 N 
ATOM     22  H   UNL     1       1.070  14.531  17.969  0.00  0.00    +0.000 HD
BRANCH  21  23
ATOM     23  C   UNL     1       2.911  14.889  18.747  0.00  0.00    +0.000 A 
ATOM     24  C   UNL     1       4.025  14.288  18.159  0.00  0.00    +0.000 A 
ATOM     25  C   UNL     1       5.276  14.909  18.226  0.00  0.00    +0.000 A 
ATOM     26 CL   UNL     1       6.650  14.139  17.525  0.00  0.00    +0.000 Cl
ATOM     27  C   UNL     1       5.435  16.136  18.866  0.00  0.00    +0.000 A 
ATOM     28  C   UNL     1       4.324  16.765  19.426  0.00  0.00    +0.000 A 
ATOM     29  C   UNL     1       3.077  16.146  19.366  0.00  0.00    +0.000 A 
ATOM     30 CL   UNL     1       1.749  16.972  20.107  0.00  0.00    +0.000 Cl
ENDBRANCH  21  23
ENDBRANCH   3  19
TORSDOF 3
ENDMDL
MODEL 3
REMARK VINA RESULT:      -6.8      2.437      4.061
REMARK  Name = 
REMARK  4 active torsions:
REMARK  status: ('A' for Active; 'I' for Inactive)
REMARK    1  A    between atoms: C_1  and  C_2
REMARK    2  A    between atoms: C_3  and  C_4
REMARK    3  A    between atoms: N_6  and  C_7
REMARK    4  A    between atoms: C_15  and  C_16
REMARK                            x       y       z     vdW  Elec       q    Type
REMARK                         _______ _______ _______ _____ _____    ______ ____
ROOT
ATOM      1  C   UNL     1      -0.436   9.998  23.706  0.00  0.00    +0.000 C 
ATOM      2  C   UNL     1      -0.358  10.795  22.423  0.00  0.00    +0.000 C 
ATOM      3  C   UNL     1      -0.114  10.336  21.167  0.00  0.00    +0.000 C 
ATOM      4  C   UNL     1      -0.117  11.316  19.974  0.00  0.00    +0.000 C 
ATOM      5  C   UNL     1      -0.343  12.766  20.376  0.00  0.00    +0.000 C 
ATOM      6  C   UNL     1      -0.534  13.125  21.657  0.00  0.00    +0.000 C 
ATOM      7  C   UNL     1      -0.707  14.554  22.111  0.00  0.00    +0.000 C 
ATOM      8  C   UNL     1      -0.334  15.574  21.040  0.00  0.00    +0.000 C 
ATOM      9  C   UNL     1      -0.898  15.165  19.692  0.00  0.00    +0.000 C 
ATOM     10  C   UNL     1      -0.342  13.814  19.319  0.00  0.00    +0.000 C 
ATOM     11  O   UNL     1       0.061  13.576  18.185  0.00  0.00    +0.000 OA
ATOM     12  N   UNL     1      -0.553  12.158  22.635  0.00  0.00    +0.000 N 
ATOM     13  H   UNL     1      -0.680  12.463  23.597  0.00  0.00    +0.000 HD
ENDROOT
BRANCH   4  14
ATOM     14  C   UNL     1      -1.011  10.858  18.825  0.00  0.00    +0.000 A 
ATOM     15  N   UNL     1      -0.588  10.052  17.871  0.00  0.00    +0.000 NA
ATOM     16  C   UNL     1      -1.594   9.847  16.949  0.00  0.00    +0.000 A 
ATOM     17  C   UNL     1      -2.799  10.436  17.252  0.00  0.00    +0.000 A 
ATOM     18  S   UNL     1      -2.668  11.315  18.720  0.00  0.00    +0.000 S 
ENDBRANCH   4  14
BRANCH   3  19
ATOM     19  C   UNL     1       0.118   8.869  20.868  0.00  0.00    +0.000 C 
ATOM     20  O   UNL     1      -0.744   8.039  21.132  0.00  0.00    +0.000 OA
ATOM     21  N   UNL     1       1.328   8.567  20.267  0.00  0.00    +0.000 N 
ATOM     22  H   UNL     1       1.947   9.317  19.976  0.00  0.00    +0.000 HD
BRANCH  21  23
ATOM     23  C   UNL     1       1.839   7.291  19.910  0.00  0.00    +0.000 A 
ATOM     24  C   UNL     1       1.762   6.172  20.740  0.00  0.00    +0.000 A 
ATOM     25  C   UNL     1       2.353   4.966  20.352  0.00  0.00    +0.000 A 
ATOM     26 CL   UNL     1       2.277   3.602  21.404  0.00  0.00    +0.000 Cl
ATOM     27  C   UNL     1       3.016   4.852  19.133  0.00  0.00    +0.000 A 
ATOM     28  C   UNL     1       3.071   5.950  18.277  0.00  0.00    +0.000 A 
ATOM     29  C   UNL     1       2.488   7.156  18.664  0.00  0.00    +0.000 A 
ATOM     30 CL   UNL     1       2.619   8.485  17.563  0.00  0.00    +0.000 Cl
ENDBRANCH  21  23
ENDBRANCH   3  19
TORSDOF 3
ENDMDL
MODEL 4
REMARK VINA RESULT:      -6.7      3.866      7.124
REMARK  Name = 
REMARK  4 active torsions:
REMARK  status: ('A' for Active; 'I' for Inactive)
REMARK    1  A    between atoms: C_1  and  C_2
REMARK    2  A    between atoms: C_3  and  C_4
REMARK    3  A    between atoms: N_6  and  C_7
REMARK    4  A    between atoms: C_15  and  C_16
REMARK                            x       y       z     vdW  Elec       q    Type
REMARK                         _______ _______ _______ _____ _____    ______ ____
ROOT
ATOM      1  C   UNL     1       0.237  10.500  18.812  0.00  0.00    +0.000 C 
ATOM      2  C   UNL     1       0.292  12.008  18.909  0.00  0.00    +0.000 C 
ATOM      3  C   UNL     1      -0.677  12.853  19.351  0.00  0.00    +0.000 C 
ATOM      4  C   UNL     1      -0.406  14.372  19.411  0.00  0.00    +0.000 C 
ATOM      5  C   UNL     1       0.964  14.769  18.884  0.00  0.00    +0.000 C 
ATOM      6  C   UNL     1       1.841  13.857  18.429  0.00  0.00    +0.000 C 
ATOM      7  C   UNL     1       3.189  14.207  17.845  0.00  0.00    +0.000 C 
ATOM      8  C   UNL     1       3.340  15.691  17.529  0.00  0.00    +0.000 C 
ATOM      9  C   UNL     1       2.797  16.538  18.664  0.00  0.00    +0.000 C 
ATOM     10  C   UNL     1       1.339  16.210  18.864  0.00  0.00    +0.000 C 
ATOM     11  O   UNL     1       0.501  17.089  19.040  0.00  0.00    +0.000 OA
ATOM     12  N   UNL     1       1.507  12.523  18.460  0.00  0.00    +0.000 N 
ATOM     13  H   UNL     1       2.182  11.859  18.091  0.00  0.00    +0.000 HD
ENDROOT
BRANCH   4  14
ATOM     14  C   UNL     1      -0.735  14.985  20.770  0.00  0.00    +0.000 A 
ATOM     15  N   UNL     1      -1.788  15.753  20.969  0.00  0.00    +0.000 NA
ATOM     16  C   UNL     1      -1.806  16.197  22.275  0.00  0.00    +0.000 A 
ATOM     17  C   UNL     1      -0.807  15.699  23.080  0.00  0.00    +0.000 A 
ATOM     18  S   UNL     1       0.220  14.669  22.168  0.00  0.00    +0.000 S 
ENDBRANCH   4  14
BRANCH   3  19
ATOM     19  C   UNL     1      -2.024  12.362  19.842  0.00  0.00    +0.000 C 
ATOM     20  O   UNL     1      -2.130  11.851  20.951  0.00  0.00    +0.000 OA
ATOM     21  N   UNL     1      -3.083  12.560  18.973  0.00  0.00    +0.000 N 
ATOM     22  H   UNL     1      -2.942  13.089  18.118  0.00  0.00    +0.000 HD
BRANCH  21  23
ATOM     23  C   UNL     1      -4.439  12.172  19.137  0.00  0.00    +0.000 A 
ATOM     24  C   UNL     1      -5.204  12.502  20.257  0.00  0.00    +0.000 A 
ATOM     25  C   UNL     1      -6.511  12.023  20.382  0.00  0.00    +0.000 A 
ATOM     26 CL   UNL     1      -7.431  12.412  21.788  0.00  0.00    +0.000 Cl
ATOM     27  C   UNL     1      -7.079  11.222  19.395  0.00  0.00    +0.000 A 
ATOM     28  C   UNL     1      -6.341  10.913  18.255  0.00  0.00    +0.000 A 
ATOM     29  C   UNL     1      -5.035  11.384  18.129  0.00  0.00    +0.000 A 
ATOM     30 CL   UNL     1      -4.169  10.938  16.698  0.00  0.00    +0.000 Cl
ENDBRANCH  21  23
ENDBRANCH   3  19
TORSDOF 3
ENDMDL
MODEL 5
REMARK VINA RESULT:      -6.4      3.720      8.049
REMARK  Name = 
REMARK  4 active torsions:
REMARK  status: ('A' for Active; 'I' for Inactive)
REMARK    1  A    between atoms: C_1  and  C_2
REMARK    2  A    between atoms: C_3  and  C_4
REMARK    3  A    between atoms: N_6  and  C_7
REMARK    4  A    between atoms: C_15  and  C_16
REMARK                            x       y       z     vdW  Elec       q    Type
REMARK                         _______ _______ _______ _____ _____    ______ ____
ROOT
ATOM      1  C   UNL     1       1.069   7.691  21.358  0.00  0.00    +0.000 C 
ATOM      2  C   UNL     1       1.589   6.730  20.313  0.00  0.00    +0.000 C 
ATOM      3  C   UNL     1       2.102   7.022  19.089  0.00  0.00    +0.000 C 
ATOM      4  C   UNL     1       2.621   5.887  18.179  0.00  0.00    +0.000 C 
ATOM      5  C   UNL     1       2.430   4.498  18.768  0.00  0.00    +0.000 C 
ATOM      6  C   UNL     1       1.872   4.310  19.977  0.00  0.00    +0.000 C 
ATOM      7  C   UNL     1       1.612   2.950  20.578  0.00  0.00    +0.000 C 
ATOM      8  C   UNL     1       1.747   1.812  19.572  0.00  0.00    +0.000 C 
ATOM      9  C   UNL     1       2.981   2.002  18.710  0.00  0.00    +0.000 C 
ATOM     10  C   UNL     1       2.866   3.315  17.977  0.00  0.00    +0.000 C 
ATOM     11  O   UNL     1       3.155   3.414  16.788  0.00  0.00    +0.000 OA
ATOM     12  N   UNL     1       1.483   5.400  20.719  0.00  0.00    +0.000 N 
ATOM     13  H   UNL     1       1.046   5.226  21.620  0.00  0.00    +0.000 HD
ENDROOT
BRANCH   4  14
ATOM     14  C   UNL     1       4.033   6.138  17.657  0.00  0.00    +0.000 A 
ATOM     15  N   UNL     1       4.276   6.556  16.431  0.00  0.00    +0.000 NA
ATOM     16  C   UNL     1       5.637   6.650  16.227  0.00  0.00    +0.000 A 
ATOM     17  C   UNL     1       6.417   6.379  17.327  0.00  0.00    +0.000 A 
ATOM     18  S   UNL     1       5.422   5.948  18.657  0.00  0.00    +0.000 S 
ENDBRANCH   4  14
BRANCH   3  19
ATOM     19  C   UNL     1       2.234   8.444  18.581  0.00  0.00    +0.000 C 
ATOM     20  O   UNL     1       3.158   8.752  17.837  0.00  0.00    +0.000 OA
ATOM     21  N   UNL     1       1.243   9.319  18.991  0.00  0.00    +0.000 N 
ATOM     22  H   UNL     1       0.449   8.969  19.517  0.00  0.00    +0.000 HD
BRANCH  21  23
ATOM     23  C   UNL     1       1.125  10.706  18.715  0.00  0.00    +0.000 A 
ATOM     24  C   UNL     1       2.222  11.555  18.559  0.00  0.00    +0.000 A 
ATOM     25  C   UNL     1       2.028  12.926  18.360  0.00  0.00    +0.000 A 
ATOM     26 CL   UNL     1       3.393  13.966  18.202  0.00  0.00    +0.000 Cl
ATOM     27  C   UNL     1       0.747  13.468  18.303  0.00  0.00    +0.000 A 
ATOM     28  C   UNL     1      -0.359  12.628  18.422  0.00  0.00    +0.000 A 
ATOM     29  C   UNL     1      -0.169  11.262  18.626  0.00  0.00    +0.000 A 
ATOM     30 CL   UNL     1      -1.587  10.284  18.792  0.00  0.00    +0.000 Cl
ENDBRANCH  21  23
ENDBRANCH   3  19
TORSDOF 3
ENDMDL
MODEL 6
REMARK VINA RESULT:      -6.4      6.830     10.570
REMARK  Name = 
REMARK  4 active torsions:
REMARK  status: ('A' for Active; 'I' for Inactive)
REMARK    1  A    between atoms: C_1  and  C_2
REMARK    2  A    between atoms: C_3  and  C_4
REMARK    3  A    between atoms: N_6  and  C_7
REMARK    4  A    between atoms: C_15  and  C_16
REMARK                            x       y       z     vdW  Elec       q    Type
REMARK                         _______ _______ _______ _____ _____    ______ ____
ROOT
ATOM      1  C   UNL     1       6.935  13.349  22.388  0.00  0.00    +0.000 C 
ATOM      2  C   UNL     1       7.845  13.668  21.223  0.00  0.00    +0.000 C 
ATOM      3  C   UNL     1       7.639  14.564  20.222  0.00  0.00    +0.000 C 
ATOM      4  C   UNL     1       8.720  14.772  19.139  0.00  0.00    +0.000 C 
ATOM      5  C   UNL     1       9.924  13.856  19.295  0.00  0.00    +0.000 C 
ATOM      6  C   UNL     1      10.015  12.969  20.302  0.00  0.00    +0.000 C 
ATOM      7  C   UNL     1      11.163  12.002  20.466  0.00  0.00    +0.000 C 
ATOM      8  C   UNL     1      12.047  11.902  19.228  0.00  0.00    +0.000 C 
ATOM      9  C   UNL     1      12.333  13.281  18.661  0.00  0.00    +0.000 C 
ATOM     10  C   UNL     1      11.026  13.939  18.298  0.00  0.00    +0.000 C 
ATOM     11  O   UNL     1      10.886  14.550  17.243  0.00  0.00    +0.000 OA
ATOM     12  N   UNL     1       9.008  12.899  21.235  0.00  0.00    +0.000 N 
ATOM     13  H   UNL     1       9.096  12.205  21.973  0.00  0.00    +0.000 HD
ENDROOT
BRANCH   4  14
ATOM     14  C   UNL     1       9.093  16.238  18.940  0.00  0.00    +0.000 A 
ATOM     15  N   UNL     1       8.695  16.940  17.898  0.00  0.00    +0.000 NA
ATOM     16  C   UNL     1       9.219  18.214  17.962  0.00  0.00    +0.000 A 
ATOM     17  C   UNL     1       9.948  18.495  19.093  0.00  0.00    +0.000 A 
ATOM     18  S   UNL     1      10.021  17.108  20.101  0.00  0.00    +0.000 S 
ENDBRANCH   4  14
BRANCH   3  19
ATOM     19  C   UNL     1       6.392  15.422  20.142  0.00  0.00    +0.000 C 
ATOM     20  O   UNL     1       6.348  16.504  20.716  0.00  0.00    +0.000 OA
ATOM     21  N   UNL     1       5.364  14.909  19.370  0.00  0.00    +0.000 N 
ATOM     22  H   UNL     1       5.512  14.060  18.835  0.00  0.00    +0.000 HD
BRANCH  21  23
ATOM     23  C   UNL     1       4.074  15.459  19.145  0.00  0.00    +0.000 A 
ATOM     24  C   UNL     1       3.755  16.240  18.033  0.00  0.00    +0.000 A 
ATOM     25  C   UNL     1       2.484  16.809  17.915  0.00  0.00    +0.000 A 
ATOM     26 CL   UNL     1       2.115  17.798  16.552  0.00  0.00    +0.000 Cl
ATOM     27  C   UNL     1       1.511  16.601  18.890  0.00  0.00    +0.000 A 
ATOM     28  C   UNL     1       1.804  15.795  19.988  0.00  0.00    +0.000 A 
ATOM     29  C   UNL     1       3.072  15.231  20.113  0.00  0.00    +0.000 A 
ATOM     30 CL   UNL     1       3.373  14.263  21.516  0.00  0.00    +0.000 Cl
ENDBRANCH  21  23
ENDBRANCH   3  19
TORSDOF 3
ENDMDL
MODEL 7
REMARK VINA RESULT:      -6.4      3.417      7.455
REMARK  Name = 
REMARK  4 active torsions:
REMARK  status: ('A' for Active; 'I' for Inactive)
REMARK    1  A    between atoms: C_1  and  C_2
REMARK    2  A    between atoms: C_3  and  C_4
REMARK    3  A    between atoms: N_6  and  C_7
REMARK    4  A    between atoms: C_15  and  C_16
REMARK                            x       y       z     vdW  Elec       q    Type
REMARK                         _______ _______ _______ _____ _____    ______ ____
ROOT
ATOM      1  C   UNL     1      -0.542   9.557  23.510  0.00  0.00    +0.000 C 
ATOM      2  C   UNL     1      -0.069   9.714  22.082  0.00  0.00    +0.000 C 
ATOM      3  C   UNL     1      -0.348  10.723  21.215  0.00  0.00    +0.000 C 
ATOM      4  C   UNL     1       0.273  10.718  19.801  0.00  0.00    +0.000 C 
ATOM      5  C   UNL     1       1.119   9.487  19.510  0.00  0.00    +0.000 C 
ATOM      6  C   UNL     1       1.301   8.520  20.426  0.00  0.00    +0.000 C 
ATOM      7  C   UNL     1       2.085   7.256  20.165  0.00  0.00    +0.000 C 
ATOM      8  C   UNL     1       2.384   7.028  18.687  0.00  0.00    +0.000 C 
ATOM      9  C   UNL     1       2.841   8.316  18.028  0.00  0.00    +0.000 C 
ATOM     10  C   UNL     1       1.752   9.350  18.171  0.00  0.00    +0.000 C 
ATOM     11  O   UNL     1       1.427  10.073  17.234  0.00  0.00    +0.000 OA
ATOM     12  N   UNL     1       0.732   8.650  21.671  0.00  0.00    +0.000 N 
ATOM     13  H   UNL     1       0.871   7.892  22.335  0.00  0.00    +0.000 HD
ENDROOT
BRANCH   4  14
ATOM     14  C   UNL     1       0.968  12.030  19.448  0.00  0.00    +0.000 A 
ATOM     15  N   UNL     1       2.178  12.332  19.875  0.00  0.00    +0.000 NA
ATOM     16  C   UNL     1       2.529  13.593  19.438  0.00  0.00    +0.000 A 
ATOM     17  C   UNL     1       1.613  14.207  18.616  0.00  0.00    +0.000 A 
ATOM     18  S   UNL     1       0.241  13.196  18.411  0.00  0.00    +0.000 S 
ENDBRANCH   4  14
BRANCH   3  19
ATOM     19  C   UNL     1      -1.220  11.903  21.593  0.00  0.00    +0.000 C 
ATOM     20  O   UNL     1      -2.218  12.171  20.936  0.00  0.00    +0.000 OA
ATOM     21  N   UNL     1      -0.821  12.603  22.719  0.00  0.00    +0.000 N 
ATOM     22  H   UNL     1      -0.047  12.258  23.278  0.00  0.00    +0.000 HD
BRANCH  21  23
ATOM     23  C   UNL     1      -1.407  13.765  23.286  0.00  0.00    +0.000 A 
ATOM     24  C   UNL     1      -0.798  15.020  23.268  0.00  0.00    +0.000 A 
ATOM     25  C   UNL     1      -1.402  16.105  23.911  0.00  0.00    +0.000 A 
ATOM     26 CL   UNL     1      -0.621  17.642  23.908  0.00  0.00    +0.000 Cl
ATOM     27  C   UNL     1      -2.621  15.961  24.568  0.00  0.00    +0.000 A 
ATOM     28  C   UNL     1      -3.259  14.722  24.564  0.00  0.00    +0.000 A 
ATOM     29  C   UNL     1      -2.657  13.637  23.930  0.00  0.00    +0.000 A 
ATOM     30 CL   UNL     1      -3.493  12.123  23.989  0.00  0.00    +0.000 Cl
ENDBRANCH  21  23
ENDBRANCH   3  19
TORSDOF 3
ENDMDL
MODEL 8
REMARK VINA RESULT:      -6.3      2.481      3.894
REMARK  Name = 
REMARK  4 active torsions:
REMARK  status: ('A' for Active; 'I' for Inactive)
REMARK    1  A    between atoms: C_1  and  C_2
REMARK    2  A    between atoms: C_3  and  C_4
REMARK    3  A    between atoms: N_6  and  C_7
REMARK    4  A    between atoms: C_15  and  C_16
REMARK                            x       y       z     vdW  Elec       q    Type
REMARK                         _______ _______ _______ _____ _____    ______ ____
ROOT
ATOM      1  C   UNL     1      -0.475   9.913  23.447  0.00  0.00    +0.000 C 
ATOM      2  C   UNL     1      -0.588  11.018  22.420  0.00  0.00    +0.000 C 
ATOM      3  C   UNL     1      -0.460  10.922  21.070  0.00  0.00    +0.000 C 
ATOM      4  C   UNL     1      -0.654  12.172  20.186  0.00  0.00    +0.000 C 
ATOM      5  C   UNL     1      -0.919  13.444  20.977  0.00  0.00    +0.000 C 
ATOM      6  C   UNL     1      -0.987  13.442  22.320  0.00  0.00    +0.000 C 
ATOM      7  C   UNL     1      -1.193  14.686  23.151  0.00  0.00    +0.000 C 
ATOM      8  C   UNL     1      -1.003  15.976  22.360  0.00  0.00    +0.000 C 
ATOM      9  C   UNL     1      -1.689  15.881  21.009  0.00  0.00    +0.000 C 
ATOM     10  C   UNL     1      -1.098  14.726  20.242  0.00  0.00    +0.000 C 
ATOM     11  O   UNL     1      -0.812  14.824  19.053  0.00  0.00    +0.000 OA
ATOM     12  N   UNL     1      -0.839  12.258  23.004  0.00  0.00    +0.000 N 
ATOM     13  H   UNL     1      -0.876  12.292  24.020  0.00  0.00    +0.000 HD
ENDROOT
BRANCH   4  14
ATOM     14  C   UNL     1      -1.641  11.951  19.044  0.00  0.00    +0.000 A 
ATOM     15  N   UNL     1      -1.257  11.717  17.805  0.00  0.00    +0.000 NA
ATOM     16  C   UNL     1      -2.360  11.601  16.984  0.00  0.00    +0.000 A 
ATOM     17  C   UNL     1      -3.577  11.670  17.621  0.00  0.00    +0.000 A 
ATOM     18  S   UNL     1      -3.344  11.930  19.302  0.00  0.00    +0.000 S 
ENDBRANCH   4  14
BRANCH   3  19
ATOM     19  C   UNL     1      -0.175   9.607  20.372  0.00  0.00    +0.000 C 
ATOM     20  O   UNL     1      -1.055   9.043  19.731  0.00  0.00    +0.000 OA
ATOM     21  N   UNL     1       1.121   9.136  20.493  0.00  0.00    +0.000 N 
ATOM     22  H   UNL     1       1.825   9.710  20.945  0.00  0.00    +0.000 HD
BRANCH  21  23
ATOM     23  C   UNL     1       1.668   7.926  19.989  0.00  0.00    +0.000 A 
ATOM     24  C   UNL     1       1.692   6.734  20.714  0.00  0.00    +0.000 A 
ATOM     25  C   UNL     1       2.313   5.600  20.182  0.00  0.00    +0.000 A 
ATOM     26 CL   UNL     1       2.365   4.143  21.103  0.00  0.00    +0.000 Cl
ATOM     27  C   UNL     1       2.906   5.631  18.922  0.00  0.00    +0.000 A 
ATOM     28  C   UNL     1       2.858   6.804  18.171  0.00  0.00    +0.000 A 
ATOM     29  C   UNL     1       2.245   7.938  18.701  0.00  0.00    +0.000 A 
ATOM     30 CL   UNL     1       2.247   9.367  17.724  0.00  0.00    +0.000 Cl
ENDBRANCH  21  23
ENDBRANCH   3  19
TORSDOF 3
ENDMDL
MODEL 9
REMARK VINA RESULT:      -6.2      3.343      6.289
REMARK  Name = 
REMARK  4 active torsions:
REMARK  status: ('A' for Active; 'I' for Inactive)
REMARK    1  A    between atoms: C_1  and  C_2
REMARK    2  A    between atoms: C_3  and  C_4
REMARK    3  A    between atoms: N_6  and  C_7
REMARK    4  A    between atoms: C_15  and  C_16
REMARK                            x       y       z     vdW  Elec       q    Type
REMARK                         _______ _______ _______ _____ _____    ______ ____
ROOT
ATOM      1  C   UNL     1      -2.167  14.781  21.754  0.00  0.00    +0.000 C 
ATOM      2  C   UNL     1      -2.057  13.723  20.679  0.00  0.00    +0.000 C 
ATOM      3  C   UNL     1      -0.930  13.239  20.093  0.00  0.00    +0.000 C 
ATOM      4  C   UNL     1      -1.030  12.119  19.035  0.00  0.00    +0.000 C 
ATOM      5  C   UNL     1      -2.459  11.711  18.712  0.00  0.00    +0.000 C 
ATOM      6  C   UNL     1      -3.514  12.281  19.320  0.00  0.00    +0.000 C 
ATOM      7  C   UNL     1      -4.951  11.949  18.994  0.00  0.00    +0.000 C 
ATOM      8  C   UNL     1      -5.105  11.148  17.706  0.00  0.00    +0.000 C 
ATOM      9  C   UNL     1      -4.069  10.041  17.636  0.00  0.00    +0.000 C 
ATOM     10  C   UNL     1      -2.693  10.657  17.687  0.00  0.00    +0.000 C 
ATOM     11  O   UNL     1      -1.793  10.282  16.943  0.00  0.00    +0.000 OA
ATOM     12  N   UNL     1      -3.304  13.243  20.280  0.00  0.00    +0.000 N 
ATOM     13  H   UNL     1      -4.121  13.670  20.708  0.00  0.00    +0.000 HD
ENDROOT
BRANCH   4  14
ATOM     14  C   UNL     1      -0.112  10.936  19.327  0.00  0.00    +0.000 A 
ATOM     15  N   UNL     1       0.894  10.603  18.543  0.00  0.00    +0.000 NA
ATOM     16  C   UNL     1       1.517   9.473  19.030  0.00  0.00    +0.000 A 
ATOM     17  C   UNL     1       1.028   9.001  20.225  0.00  0.00    +0.000 A 
ATOM     18  S   UNL     1      -0.286   9.975  20.746  0.00  0.00    +0.000 S 
ENDBRANCH   4  14
BRANCH   3  19
ATOM     19  C   UNL     1       0.455  13.724  20.471  0.00  0.00    +0.000 C 
ATOM     20  O   UNL     1       0.988  13.335  21.504  0.00  0.00    +0.000 OA
ATOM     21  N   UNL     1       1.052  14.586  19.567  0.00  0.00    +0.000 N 
ATOM     22  H   UNL     1       0.599  14.779  18.680  0.00  0.00    +0.000 HD
BRANCH  21  23
ATOM     23  C   UNL     1       2.313  15.231  19.667  0.00  0.00    +0.000 A 
ATOM     24  C   UNL     1       2.519  16.409  20.386  0.00  0.00    +0.000 A 
ATOM     25  C   UNL     1       3.773  17.027  20.380  0.00  0.00    +0.000 A 
ATOM     26 CL   UNL     1       4.003  18.500  21.246  0.00  0.00    +0.000 Cl
ATOM     27  C   UNL     1       4.840  16.479  19.672  0.00  0.00    +0.000 A 
ATOM     28  C   UNL     1       4.659  15.284  18.979  0.00  0.00    +0.000 A 
ATOM     29  C   UNL     1       3.408  14.668  18.977  0.00  0.00    +0.000 A 
ATOM     30 CL   UNL     1       3.250  13.201  18.072  0.00  0.00    +0.000 Cl
ENDBRANCH  21  23
ENDBRANCH   3  19
TORSDOF 3
ENDMDL
