MODEL 1
REMARK VINA RESULT:      -8.2      0.000      0.000
REMARK  Name = 
REMARK  9 active torsions:
REMARK  status: ('A' for Active; 'I' for Inactive)
REMARK    1  A    between atoms: C_2  and  O_3
REMARK    2  A    between atoms: C_2  and  C_4
REMARK    3  A    between atoms: C_4  and  O_5
REMARK    4  A    between atoms: O_5  and  C_6
REMARK    5  A    between atoms: C_6  and  C_7
REMARK    6  A    between atoms: C_10  and  C_11
REMARK    7  A    between atoms: C_11  and  N_12
REMARK    8  A    between atoms: N_15  and  C_16
REMARK    9  A    between atoms: N_15  and  C_22
REMARK                            x       y       z     vdW  Elec       q    Type
REMARK                         _______ _______ _______ _____ _____    ______ ____
ROOT
ATOM      1  N   UNL     1       0.361   9.256  20.306  0.00  0.00    +0.000 N 
ATOM      2  C   UNL     1       0.599  10.616  20.463  0.00  0.00    +0.000 C 
ATOM      3  O   UNL     1       1.209  11.043  21.441  0.00  0.00    +0.000 OA
ATOM      4  N   UNL     1       0.159  11.400  19.376  0.00  0.00    +0.000 N 
ATOM      5  H   UNL     1       0.288   8.978  19.337  0.00  0.00    +0.000 HD
ENDROOT
BRANCH   4   6
ATOM      6  C   UNL     1       0.747  12.693  19.106  0.00  0.00    +0.000 A 
ATOM      7  C   UNL     1       0.012  13.871  19.334  0.00  0.00    +0.000 A 
ATOM      8  C   UNL     1       0.555  15.139  19.081  0.00  0.00    +0.000 A 
ATOM      9  C   UNL     1       1.852  15.252  18.595  0.00  0.00    +0.000 A 
ATOM     10 CL   UNL     1       2.514  16.809  18.286  0.00  0.00    +0.000 Cl
ATOM     11  C   UNL     1       2.596  14.100  18.366  0.00  0.00    +0.000 A 
ATOM     12  F   UNL     1       3.850  14.179  17.894  0.00  0.00    +0.000 F 
ATOM     13  C   UNL     1       2.057  12.837  18.616  0.00  0.00    +0.000 A 
ENDBRANCH   4   6
BRANCH   4  14
ATOM     14  C   UNL     1      -1.031  11.066  18.662  0.00  0.00    +0.000 A 
ATOM     15  C   UNL     1      -2.260  11.626  19.033  0.00  0.00    +0.000 A 
ATOM     16  C   UNL     1      -3.409  11.354  18.289  0.00  0.00    +0.000 A 
ATOM     17  C   UNL     1      -3.346  10.494  17.193  0.00  0.00    +0.000 A 
ATOM     18  C   UNL     1      -2.133   9.909  16.834  0.00  0.00    +0.000 A 
ATOM     19  C   UNL     1      -0.975  10.199  17.558  0.00  0.00    +0.000 A 
ENDBRANCH   4  14
BRANCH   1  20
ATOM     20  C   UNL     1       0.982   8.319  21.228  0.00  0.00    +0.000 C 
BRANCH  20  24
ATOM     21  C   UNL     1       2.689   5.323  18.476  0.00  0.00    +0.000 C 
ATOM     22  C   UNL     1       2.490   4.946  19.952  0.00  0.00    +0.000 C 
ATOM     23  C   UNL     1       1.527   5.896  20.665  0.00  0.00    +0.000 C 
ATOM     24  C   UNL     1       1.975   7.361  20.548  0.00  0.00    +0.000 C 
ATOM     25  C   UNL     1       2.140   7.731  19.062  0.00  0.00    +0.000 C 
ATOM     26  C   UNL     1       3.113   6.792  18.350  0.00  0.00    +0.000 C 
BRANCH  21  27
ATOM     27  C   UNL     1       3.713   4.399  17.799  0.00  0.00    +0.000 C 
BRANCH  27  28
ATOM     28  O   UNL     1       4.929   5.123  17.575  0.00  0.00    +0.000 OA
BRANCH  28  29
ATOM     29  C   UNL     1       5.663   4.572  16.469  0.00  0.00    +0.000 C 
BRANCH  29  31
ATOM     30  O   UNL     1       7.468   6.175  16.163  0.00  0.00    +0.000 OA
ATOM     31  C   UNL     1       7.099   5.072  16.537  0.00  0.00    +0.000 C 
BRANCH  31  32
ATOM     32  O   UNL     1       7.938   4.146  17.068  0.00  0.00    +0.000 OA
ATOM     33  H   UNL     1       8.448   4.592  17.786  0.00  0.00    +0.000 HD
ENDBRANCH  31  32
ENDBRANCH  29  31
ENDBRANCH  28  29
ENDBRANCH  27  28
ENDBRANCH  21  27
ENDBRANCH  20  24
ENDBRANCH   1  20
TORSDOF 9
ENDMDL
MODEL 2
REMARK VINA RESULT:      -8.1      0.892      1.511
REMARK  Name = 
REMARK  9 active torsions:
REMARK  status: ('A' for Active; 'I' for Inactive)
REMARK    1  A    between atoms: C_2  and  O_3
REMARK    2  A    between atoms: C_2  and  C_4
REMARK    3  A    between atoms: C_4  and  O_5
REMARK    4  A    between atoms: O_5  and  C_6
REMARK    5  A    between atoms: C_6  and  C_7
REMARK    6  A    between atoms: C_10  and  C_11
REMARK    7  A    between atoms: C_11  and  N_12
REMARK    8  A    between atoms: N_15  and  C_16
REMARK    9  A    between atoms: N_15  and  C_22
REMARK                            x       y       z     vdW  Elec       q    Type
REMARK                         _______ _______ _______ _____ _____    ______ ____
ROOT
ATOM      1  N   UNL     1       0.343   9.339  20.334  0.00  0.00    +0.000 N 
ATOM      2  C   UNL     1       0.655  10.688  20.455  0.00  0.00    +0.000 C 
ATOM      3  O   UNL     1       1.308  11.105  21.409  0.00  0.00    +0.000 OA
ATOM      4  N   UNL     1       0.230  11.471  19.360  0.00  0.00    +0.000 N 
ATOM      5  H   UNL     1       0.234   9.045  19.373  0.00  0.00    +0.000 HD
ENDROOT
BRANCH   4   6
ATOM      6  C   UNL     1       0.878  12.725  19.047  0.00  0.00    +0.000 A 
ATOM      7  C   UNL     1       2.130  12.738  18.405  0.00  0.00    +0.000 A 
ATOM      8  C   UNL     1       2.784  13.937  18.089  0.00  0.00    +0.000 A 
ATOM      9  C   UNL     1       2.191  15.154  18.408  0.00  0.00    +0.000 A 
ATOM     10 CL   UNL     1       2.996  16.622  18.017  0.00  0.00    +0.000 Cl
ATOM     11  C   UNL     1       0.952  15.162  19.038  0.00  0.00    +0.000 A 
ATOM     12  F   UNL     1       0.357  16.321  19.360  0.00  0.00    +0.000 F 
ATOM     13  C   UNL     1       0.300  13.969  19.355  0.00  0.00    +0.000 A 
ENDBRANCH   4   6
BRANCH   4  14
ATOM     14  C   UNL     1      -0.991  11.183  18.680  0.00  0.00    +0.000 A 
ATOM     15  C   UNL     1      -1.011  10.264  17.623  0.00  0.00    +0.000 A 
ATOM     16  C   UNL     1      -2.218   9.929  17.006  0.00  0.00    +0.000 A 
ATOM     17  C   UNL     1      -3.405  10.536  17.416  0.00  0.00    +0.000 A 
ATOM     18  C   UNL     1      -3.390  11.474  18.447  0.00  0.00    +0.000 A 
ATOM     19  C   UNL     1      -2.189  11.791  19.085  0.00  0.00    +0.000 A 
ENDBRANCH   4  14
BRANCH   1  20
ATOM     20  C   UNL     1       0.936   8.393  21.264  0.00  0.00    +0.000 C 
BRANCH  20  24
ATOM     21  C   UNL     1       2.580   5.325  18.553  0.00  0.00    +0.000 C 
ATOM     22  C   UNL     1       2.386   4.976  20.036  0.00  0.00    +0.000 C 
ATOM     23  C   UNL     1       1.442   5.952  20.740  0.00  0.00    +0.000 C 
ATOM     24  C   UNL     1       1.910   7.408  20.594  0.00  0.00    +0.000 C 
ATOM     25  C   UNL     1       2.071   7.750  19.100  0.00  0.00    +0.000 C 
ATOM     26  C   UNL     1       3.025   6.785  18.398  0.00  0.00    +0.000 C 
BRANCH  21  27
ATOM     27  C   UNL     1       3.586   4.375  17.885  0.00  0.00    +0.000 C 
BRANCH  27  28
ATOM     28  O   UNL     1       4.587   5.144  17.208  0.00  0.00    +0.000 OA
BRANCH  28  29
ATOM     29  C   UNL     1       5.362   4.320  16.320  0.00  0.00    +0.000 C 
BRANCH  29  31
ATOM     30  O   UNL     1       7.703   4.807  15.872  0.00  0.00    +0.000 OA
ATOM     31  C   UNL     1       6.835   4.478  16.666  0.00  0.00    +0.000 C 
BRANCH  31  32
ATOM     32  O   UNL     1       7.085   4.213  17.974  0.00  0.00    +0.000 OA
ATOM     33  H   UNL     1       7.427   3.288  18.025  0.00  0.00    +0.000 HD
ENDBRANCH  31  32
ENDBRANCH  29  31
ENDBRANCH  28  29
ENDBRANCH  27  28
ENDBRANCH  21  27
ENDBRANCH  20  24
ENDBRANCH   1  20
TORSDOF 9
ENDMDL
MODEL 3
REMARK VINA RESULT:      -7.9      0.530      1.094
REMARK  Name = 
REMARK  9 active torsions:
REMARK  status: ('A' for Active; 'I' for Inactive)
REMARK    1  A    between atoms: C_2  and  O_3
REMARK    2  A    between atoms: C_2  and  C_4
REMARK    3  A    between atoms: C_4  and  O_5
REMARK    4  A    between atoms: O_5  and  C_6
REMARK    5  A    between atoms: C_6  and  C_7
REMARK    6  A    between atoms: C_10  and  C_11
REMARK    7  A    between atoms: C_11  and  N_12
REMARK    8  A    between atoms: N_15  and  C_16
REMARK    9  A    between atoms: N_15  and  C_22
REMARK                            x       y       z     vdW  Elec       q    Type
REMARK                         _______ _______ _______ _____ _____    ______ ____
ROOT
ATOM      1  N   UNL     1       0.433   9.361  20.284  0.00  0.00    +0.000 N 
ATOM      2  C   UNL     1       0.608  10.720  20.514  0.00  0.00    +0.000 C 
ATOM      3  O   UNL     1       1.194  11.123  21.517  0.00  0.00    +0.000 OA
ATOM      4  N   UNL     1       0.136  11.540  19.467  0.00  0.00    +0.000 N 
ATOM      5  H   UNL     1       0.377   9.132  19.302  0.00  0.00    +0.000 HD
ENDROOT
BRANCH   4   6
ATOM      6  C   UNL     1       0.666  12.870  19.268  0.00  0.00    +0.000 A 
ATOM      7  C   UNL     1       0.044  13.981  19.867  0.00  0.00    +0.000 A 
ATOM      8  C   UNL     1       0.532  15.284  19.692  0.00  0.00    +0.000 A 
ATOM      9  C   UNL     1       1.663  15.500  18.913  0.00  0.00    +0.000 A 
ATOM     10 CL   UNL     1       2.260  17.098  18.702  0.00  0.00    +0.000 Cl
ATOM     11  C   UNL     1       2.295  14.415  18.316  0.00  0.00    +0.000 A 
ATOM     12  F   UNL     1       3.387  14.594  17.555  0.00  0.00    +0.000 F 
ATOM     13  C   UNL     1       1.809  13.117  18.487  0.00  0.00    +0.000 A 
ENDBRANCH   4   6
BRANCH   4  14
ATOM     14  C   UNL     1      -1.034  11.190  18.729  0.00  0.00    +0.000 A 
ATOM     15  C   UNL     1      -0.957  10.261  17.682  0.00  0.00    +0.000 A 
ATOM     16  C   UNL     1      -2.114   9.865  17.009  0.00  0.00    +0.000 A 
ATOM     17  C   UNL     1      -3.347  10.420  17.351  0.00  0.00    +0.000 A 
ATOM     18  C   UNL     1      -3.428  11.367  18.371  0.00  0.00    +0.000 A 
ATOM     19  C   UNL     1      -2.278  11.745  19.066  0.00  0.00    +0.000 A 
ENDBRANCH   4  14
BRANCH   1  20
ATOM     20  C   UNL     1       1.093   8.407  21.160  0.00  0.00    +0.000 C 
BRANCH  20  24
ATOM     21  C   UNL     1       2.564   5.406  18.280  0.00  0.00    +0.000 C 
ATOM     22  C   UNL     1       2.441   5.015  19.761  0.00  0.00    +0.000 C 
ATOM     23  C   UNL     1       1.544   5.978  20.539  0.00  0.00    +0.000 C 
ATOM     24  C   UNL     1       2.021   7.433  20.414  0.00  0.00    +0.000 C 
ATOM     25  C   UNL     1       2.111   7.819  18.924  0.00  0.00    +0.000 C 
ATOM     26  C   UNL     1       3.018   6.865  18.147  0.00  0.00    +0.000 C 
BRANCH  21  27
ATOM     27  C   UNL     1       3.525   4.467  17.535  0.00  0.00    +0.000 C 
BRANCH  27  28
ATOM     28  O   UNL     1       4.532   5.244  16.877  0.00  0.00    +0.000 OA
BRANCH  28  29
ATOM     29  C   UNL     1       5.588   4.405  16.376  0.00  0.00    +0.000 C 
BRANCH  29  31
ATOM     30  O   UNL     1       6.672   4.544  18.550  0.00  0.00    +0.000 OA
ATOM     31  C   UNL     1       6.768   4.479  17.333  0.00  0.00    +0.000 C 
BRANCH  31  32
ATOM     32  O   UNL     1       7.958   4.460  16.680  0.00  0.00    +0.000 OA
ATOM     33  H   UNL     1       8.661   4.651  17.347  0.00  0.00    +0.000 HD
ENDBRANCH  31  32
ENDBRANCH  29  31
ENDBRANCH  28  29
ENDBRANCH  27  28
ENDBRANCH  21  27
ENDBRANCH  20  24
ENDBRANCH   1  20
TORSDOF 9
ENDMDL
MODEL 4
REMARK VINA RESULT:      -7.9      0.921      1.059
REMARK  Name = 
REMARK  9 active torsions:
REMARK  status: ('A' for Active; 'I' for Inactive)
REMARK    1  A    between atoms: C_2  and  O_3
REMARK    2  A    between atoms: C_2  and  C_4
REMARK    3  A    between atoms: C_4  and  O_5
REMARK    4  A    between atoms: O_5  and  C_6
REMARK    5  A    between atoms: C_6  and  C_7
REMARK    6  A    between atoms: C_10  and  C_11
REMARK    7  A    between atoms: C_11  and  N_12
REMARK    8  A    between atoms: N_15  and  C_16
REMARK    9  A    between atoms: N_15  and  C_22
REMARK                            x       y       z     vdW  Elec       q    Type
REMARK                         _______ _______ _______ _____ _____    ______ ____
ROOT
ATOM      1  N   UNL     1       0.440   9.343  20.274  0.00  0.00    +0.000 N 
ATOM      2  C   UNL     1       0.606  10.708  20.474  0.00  0.00    +0.000 C 
ATOM      3  O   UNL     1       1.199  11.136  21.461  0.00  0.00    +0.000 OA
ATOM      4  N   UNL     1       0.115  11.502  19.415  0.00  0.00    +0.000 N 
ATOM      5  H   UNL     1       0.375   9.093  19.297  0.00  0.00    +0.000 HD
ENDROOT
BRANCH   4   6
ATOM      6  C   UNL     1       0.631  12.832  19.183  0.00  0.00    +0.000 A 
ATOM      7  C   UNL     1      -0.075  13.960  19.642  0.00  0.00    +0.000 A 
ATOM      8  C   UNL     1       0.398  15.262  19.431  0.00  0.00    +0.000 A 
ATOM      9  C   UNL     1       1.597  15.462  18.757  0.00  0.00    +0.000 A 
ATOM     10 CL   UNL     1       2.175  17.061  18.502  0.00  0.00    +0.000 Cl
ATOM     11  C   UNL     1       2.313  14.361  18.300  0.00  0.00    +0.000 A 
ATOM     12  F   UNL     1       3.472  14.525  17.644  0.00  0.00    +0.000 F 
ATOM     13  C   UNL     1       1.842  13.063  18.507  0.00  0.00    +0.000 A 
ENDBRANCH   4   6
BRANCH   4  14
ATOM     14  C   UNL     1      -1.060  11.127  18.698  0.00  0.00    +0.000 A 
ATOM     15  C   UNL     1      -2.302  11.679  19.037  0.00  0.00    +0.000 A 
ATOM     16  C   UNL     1      -3.438  11.367  18.288  0.00  0.00    +0.000 A 
ATOM     17  C   UNL     1      -3.348  10.473  17.221  0.00  0.00    +0.000 A 
ATOM     18  C   UNL     1      -2.122   9.896  16.894  0.00  0.00    +0.000 A 
ATOM     19  C   UNL     1      -0.978  10.227  17.623  0.00  0.00    +0.000 A 
ENDBRANCH   4  14
BRANCH   1  20
ATOM     20  C   UNL     1       1.118   8.413  21.162  0.00  0.00    +0.000 C 
BRANCH  20  24
ATOM     21  C   UNL     1       2.586   5.391  18.302  0.00  0.00    +0.000 C 
ATOM     22  C   UNL     1       2.450   5.006  19.782  0.00  0.00    +0.000 C 
ATOM     23  C   UNL     1       1.555   5.978  20.552  0.00  0.00    +0.000 C 
ATOM     24  C   UNL     1       2.043   7.430  20.424  0.00  0.00    +0.000 C 
ATOM     25  C   UNL     1       2.146   7.809  18.934  0.00  0.00    +0.000 C 
ATOM     26  C   UNL     1       3.051   6.847  18.166  0.00  0.00    +0.000 C 
BRANCH  21  27
ATOM     27  C   UNL     1       3.544   4.442  17.565  0.00  0.00    +0.000 C 
BRANCH  27  28
ATOM     28  O   UNL     1       4.843   5.042  17.494  0.00  0.00    +0.000 OA
BRANCH  28  29
ATOM     29  C   UNL     1       5.752   4.421  18.419  0.00  0.00    +0.000 C 
BRANCH  29  31
ATOM     30  O   UNL     1       7.317   5.404  20.002  0.00  0.00    +0.000 OA
ATOM     31  C   UNL     1       6.718   5.475  18.939  0.00  0.00    +0.000 C 
BRANCH  31  32
ATOM     32  O   UNL     1       6.849   6.517  18.079  0.00  0.00    +0.000 OA
ATOM     33  H   UNL     1       6.647   6.178  17.174  0.00  0.00    +0.000 HD
ENDBRANCH  31  32
ENDBRANCH  29  31
ENDBRANCH  28  29
ENDBRANCH  27  28
ENDBRANCH  21  27
ENDBRANCH  20  24
ENDBRANCH   1  20
TORSDOF 9
ENDMDL
MODEL 5
REMARK VINA RESULT:      -7.8      0.965      1.302
REMARK  Name = 
REMARK  9 active torsions:
REMARK  status: ('A' for Active; 'I' for Inactive)
REMARK    1  A    between atoms: C_2  and  O_3
REMARK    2  A    between atoms: C_2  and  C_4
REMARK    3  A    between atoms: C_4  and  O_5
REMARK    4  A    between atoms: O_5  and  C_6
REMARK    5  A    between atoms: C_6  and  C_7
REMARK    6  A    between atoms: C_10  and  C_11
REMARK    7  A    between atoms: C_11  and  N_12
REMARK    8  A    between atoms: N_15  and  C_16
REMARK    9  A    between atoms: N_15  and  C_22
REMARK                            x       y       z     vdW  Elec       q    Type
REMARK                         _______ _______ _______ _____ _____    ______ ____
ROOT
ATOM      1  N   UNL     1       0.461   9.258  20.226  0.00  0.00    +0.000 N 
ATOM      2  C   UNL     1       0.706  10.615  20.401  0.00  0.00    +0.000 C 
ATOM      3  O   UNL     1       1.354  11.024  21.362  0.00  0.00    +0.000 OA
ATOM      4  N   UNL     1       0.222  11.421  19.348  0.00  0.00    +0.000 N 
ATOM      5  H   UNL     1       0.350   9.000  19.255  0.00  0.00    +0.000 HD
ENDROOT
BRANCH   4   6
ATOM      6  C   UNL     1       0.799  12.718  19.079  0.00  0.00    +0.000 A 
ATOM      7  C   UNL     1       2.029  12.825  18.404  0.00  0.00    +0.000 A 
ATOM      8  C   UNL     1       2.615  14.069  18.130  0.00  0.00    +0.000 A 
ATOM      9  C   UNL     1       1.975  15.237  18.525  0.00  0.00    +0.000 A 
ATOM     10 CL   UNL     1       2.696  16.761  18.186  0.00  0.00    +0.000 Cl
ATOM     11  C   UNL     1       0.756  15.154  19.190  0.00  0.00    +0.000 A 
ATOM     12  F   UNL     1       0.117  16.266  19.586  0.00  0.00    +0.000 F 
ATOM     13  C   UNL     1       0.172  13.916  19.465  0.00  0.00    +0.000 A 
ENDBRANCH   4   6
BRANCH   4  14
ATOM     14  C   UNL     1      -0.995  11.099  18.675  0.00  0.00    +0.000 A 
ATOM     15  C   UNL     1      -2.200  11.694  19.071  0.00  0.00    +0.000 A 
ATOM     16  C   UNL     1      -3.376  11.435  18.366  0.00  0.00    +0.000 A 
ATOM     17  C   UNL     1      -3.364  10.552  17.286  0.00  0.00    +0.000 A 
ATOM     18  C   UNL     1      -2.175   9.933  16.903  0.00  0.00    +0.000 A 
ATOM     19  C   UNL     1      -0.991  10.211  17.588  0.00  0.00    +0.000 A 
ENDBRANCH   4  14
BRANCH   1  20
ATOM     20  C   UNL     1       1.119   8.305  21.104  0.00  0.00    +0.000 C 
BRANCH  20  24
ATOM     21  C   UNL     1       2.699   5.353  18.232  0.00  0.00    +0.000 C 
ATOM     22  C   UNL     1       2.565   4.952  19.708  0.00  0.00    +0.000 C 
ATOM     23  C   UNL     1       1.636   5.890  20.479  0.00  0.00    +0.000 C 
ATOM     24  C   UNL     1       2.079   7.357  20.366  0.00  0.00    +0.000 C 
ATOM     25  C   UNL     1       2.180   7.751  18.880  0.00  0.00    +0.000 C 
ATOM     26  C   UNL     1       3.120   6.823  18.111  0.00  0.00    +0.000 C 
BRANCH  21  27
ATOM     27  C   UNL     1       3.692   4.440  17.495  0.00  0.00    +0.000 C 
BRANCH  27  28
ATOM     28  O   UNL     1       4.705   5.242  16.877  0.00  0.00    +0.000 OA
BRANCH  28  29
ATOM     29  C   UNL     1       5.963   4.547  16.837  0.00  0.00    +0.000 C 
BRANCH  29  31
ATOM     30  O   UNL     1       7.589   6.331  17.139  0.00  0.00    +0.000 OA
ATOM     31  C   UNL     1       7.047   5.521  16.402  0.00  0.00    +0.000 C 
BRANCH  31  32
ATOM     32  O   UNL     1       7.355   5.390  15.086  0.00  0.00    +0.000 OA
ATOM     33  H   UNL     1       6.724   5.956  14.580  0.00  0.00    +0.000 HD
ENDBRANCH  31  32
ENDBRANCH  29  31
ENDBRANCH  28  29
ENDBRANCH  27  28
ENDBRANCH  21  27
ENDBRANCH  20  24
ENDBRANCH   1  20
TORSDOF 9
ENDMDL
MODEL 6
REMARK VINA RESULT:      -7.8      1.267      1.638
REMARK  Name = 
REMARK  9 active torsions:
REMARK  status: ('A' for Active; 'I' for Inactive)
REMARK    1  A    between atoms: C_2  and  O_3
REMARK    2  A    between atoms: C_2  and  C_4
REMARK    3  A    between atoms: C_4  and  O_5
REMARK    4  A    between atoms: O_5  and  C_6
REMARK    5  A    between atoms: C_6  and  C_7
REMARK    6  A    between atoms: C_10  and  C_11
REMARK    7  A    between atoms: C_11  and  N_12
REMARK    8  A    between atoms: N_15  and  C_16
REMARK    9  A    between atoms: N_15  and  C_22
REMARK                            x       y       z     vdW  Elec       q    Type
REMARK                         _______ _______ _______ _____ _____    ______ ____
ROOT
ATOM      1  N   UNL     1       0.406   9.375  20.347  0.00  0.00    +0.000 N 
ATOM      2  C   UNL     1       0.646  10.729  20.543  0.00  0.00    +0.000 C 
ATOM      3  O   UNL     1       1.303  11.124  21.504  0.00  0.00    +0.000 OA
ATOM      4  N   UNL     1       0.144  11.552  19.512  0.00  0.00    +0.000 N 
ATOM      5  H   UNL     1       0.285   9.134  19.373  0.00  0.00    +0.000 HD
ENDROOT
BRANCH   4   6
ATOM      6  C   UNL     1       0.711  12.858  19.261  0.00  0.00    +0.000 A 
ATOM      7  C   UNL     1       1.831  12.999  18.421  0.00  0.00    +0.000 A 
ATOM      8  C   UNL     1       2.403  14.251  18.159  0.00  0.00    +0.000 A 
ATOM      9  C   UNL     1       1.859  15.394  18.733  0.00  0.00    +0.000 A 
ATOM     10 CL   UNL     1       2.564  16.929  18.408  0.00  0.00    +0.000 Cl
ATOM     11  C   UNL     1       0.750  15.277  19.562  0.00  0.00    +0.000 A 
ATOM     12  F   UNL     1       0.206  16.364  20.133  0.00  0.00    +0.000 F 
ATOM     13  C   UNL     1       0.179  14.031  19.826  0.00  0.00    +0.000 A 
ENDBRANCH   4   6
BRANCH   4  14
ATOM     14  C   UNL     1      -1.079  11.236  18.849  0.00  0.00    +0.000 A 
ATOM     15  C   UNL     1      -2.275  11.850  19.242  0.00  0.00    +0.000 A 
ATOM     16  C   UNL     1      -3.458  11.595  18.545  0.00  0.00    +0.000 A 
ATOM     17  C   UNL     1      -3.461  10.698  17.477  0.00  0.00    +0.000 A 
ATOM     18  C   UNL     1      -2.281  10.060  17.097  0.00  0.00    +0.000 A 
ATOM     19  C   UNL     1      -1.090  10.333  17.773  0.00  0.00    +0.000 A 
ENDBRANCH   4  14
BRANCH   1  20
ATOM     20  C   UNL     1       1.080   8.409  21.199  0.00  0.00    +0.000 C 
BRANCH  20  24
ATOM     21  C   UNL     1       2.506   5.493  18.210  0.00  0.00    +0.000 C 
ATOM     22  C   UNL     1       2.349   5.041  19.670  0.00  0.00    +0.000 C 
ATOM     23  C   UNL     1       1.469   5.997  20.478  0.00  0.00    +0.000 C 
ATOM     24  C   UNL     1       1.990   7.441  20.423  0.00  0.00    +0.000 C 
ATOM     25  C   UNL     1       2.114   7.888  18.953  0.00  0.00    +0.000 C 
ATOM     26  C   UNL     1       3.004   6.942  18.147  0.00  0.00    +0.000 C 
BRANCH  21  27
ATOM     27  C   UNL     1       3.450   4.558  17.438  0.00  0.00    +0.000 C 
BRANCH  27  28
ATOM     28  O   UNL     1       4.653   5.264  17.111  0.00  0.00    +0.000 OA
BRANCH  28  29
ATOM     29  C   UNL     1       5.816   4.485  17.443  0.00  0.00    +0.000 C 
BRANCH  29  31
ATOM     30  O   UNL     1       6.346   5.264  19.686  0.00  0.00    +0.000 OA
ATOM     31  C   UNL     1       5.919   4.381  18.957  0.00  0.00    +0.000 C 
BRANCH  31  32
ATOM     32  O   UNL     1       5.477   3.184  19.419  0.00  0.00    +0.000 OA
ATOM     33  H   UNL     1       6.090   2.492  19.073  0.00  0.00    +0.000 HD
ENDBRANCH  31  32
ENDBRANCH  29  31
ENDBRANCH  28  29
ENDBRANCH  27  28
ENDBRANCH  21  27
ENDBRANCH  20  24
ENDBRANCH   1  20
TORSDOF 9
ENDMDL
MODEL 7
REMARK VINA RESULT:      -7.7      1.246      1.530
REMARK  Name = 
REMARK  9 active torsions:
REMARK  status: ('A' for Active; 'I' for Inactive)
REMARK    1  A    between atoms: C_2  and  O_3
REMARK    2  A    between atoms: C_2  and  C_4
REMARK    3  A    between atoms: C_4  and  O_5
REMARK    4  A    between atoms: O_5  and  C_6
REMARK    5  A    between atoms: C_6  and  C_7
REMARK    6  A    between atoms: C_10  and  C_11
REMARK    7  A    between atoms: C_11  and  N_12
REMARK    8  A    between atoms: N_15  and  C_16
REMARK    9  A    between atoms: N_15  and  C_22
REMARK                            x       y       z     vdW  Elec       q    Type
REMARK                         _______ _______ _______ _____ _____    ______ ____
ROOT
ATOM      1  N   UNL     1       0.056   9.586  20.370  0.00  0.00    +0.000 N 
ATOM      2  C   UNL     1       0.474  10.908  20.478  0.00  0.00    +0.000 C 
ATOM      3  O   UNL     1       1.226  11.263  21.383  0.00  0.00    +0.000 OA
ATOM      4  N   UNL     1       0.025  11.734  19.426  0.00  0.00    +0.000 N 
ATOM      5  H   UNL     1      -0.146   9.314  19.418  0.00  0.00    +0.000 HD
ENDROOT
BRANCH   4   6
ATOM      6  C   UNL     1       0.736  12.942  19.074  0.00  0.00    +0.000 A 
ATOM      7  C   UNL     1       2.003  12.871  18.466  0.00  0.00    +0.000 A 
ATOM      8  C   UNL     1       2.718  14.025  18.114  0.00  0.00    +0.000 A 
ATOM      9  C   UNL     1       2.174  15.279  18.363  0.00  0.00    +0.000 A 
ATOM     10 CL   UNL     1       3.053  16.691  17.929  0.00  0.00    +0.000 Cl
ATOM     11  C   UNL     1       0.921  15.371  18.959  0.00  0.00    +0.000 A 
ATOM     12  F   UNL     1       0.372  16.569  19.214  0.00  0.00    +0.000 F 
ATOM     13  C   UNL     1       0.208  14.224  19.312  0.00  0.00    +0.000 A 
ENDBRANCH   4   6
BRANCH   4  14
ATOM     14  C   UNL     1      -1.262  11.544  18.839  0.00  0.00    +0.000 A 
ATOM     15  C   UNL     1      -2.408  12.038  19.475  0.00  0.00    +0.000 A 
ATOM     16  C   UNL     1      -3.658  11.915  18.865  0.00  0.00    +0.000 A 
ATOM     17  C   UNL     1      -3.775  11.267  17.635  0.00  0.00    +0.000 A 
ATOM     18  C   UNL     1      -2.644  10.747  17.009  0.00  0.00    +0.000 A 
ATOM     19  C   UNL     1      -1.389  10.891  17.602  0.00  0.00    +0.000 A 
ENDBRANCH   4  14
BRANCH   1  20
ATOM     20  C   UNL     1       0.648   8.586  21.244  0.00  0.00    +0.000 C 
BRANCH  20  24
ATOM     21  C   UNL     1       2.703   5.808  18.501  0.00  0.00    +0.000 C 
ATOM     22  C   UNL     1       2.566   5.422  19.982  0.00  0.00    +0.000 C 
ATOM     23  C   UNL     1       1.496   6.247  20.696  0.00  0.00    +0.000 C 
ATOM     24  C   UNL     1       1.750   7.757  20.563  0.00  0.00    +0.000 C 
ATOM     25  C   UNL     1       1.855   8.131  19.071  0.00  0.00    +0.000 C 
ATOM     26  C   UNL     1       2.934   7.318  18.358  0.00  0.00    +0.000 C 
BRANCH  21  27
ATOM     27  C   UNL     1       3.832   5.017  17.822  0.00  0.00    +0.000 C 
BRANCH  27  28
ATOM     28  O   UNL     1       5.065   5.730  17.970  0.00  0.00    +0.000 OA
BRANCH  28  29
ATOM     29  C   UNL     1       5.897   5.122  18.973  0.00  0.00    +0.000 C 
BRANCH  29  31
ATOM     30  O   UNL     1       7.778   5.317  17.443  0.00  0.00    +0.000 OA
ATOM     31  C   UNL     1       7.355   5.325  18.589  0.00  0.00    +0.000 C 
BRANCH  31  32
ATOM     32  O   UNL     1       8.148   5.521  19.673  0.00  0.00    +0.000 OA
ATOM     33  H   UNL     1       7.638   5.226  20.466  0.00  0.00    +0.000 HD
ENDBRANCH  31  32
ENDBRANCH  29  31
ENDBRANCH  28  29
ENDBRANCH  27  28
ENDBRANCH  21  27
ENDBRANCH  20  24
ENDBRANCH   1  20
TORSDOF 9
ENDMDL
MODEL 8
REMARK VINA RESULT:      -7.6      4.194      9.200
REMARK  Name = 
REMARK  9 active torsions:
REMARK  status: ('A' for Active; 'I' for Inactive)
REMARK    1  A    between atoms: C_2  and  O_3
REMARK    2  A    between atoms: C_2  and  C_4
REMARK    3  A    between atoms: C_4  and  O_5
REMARK    4  A    between atoms: O_5  and  C_6
REMARK    5  A    between atoms: C_6  and  C_7
REMARK    6  A    between atoms: C_10  and  C_11
REMARK    7  A    between atoms: C_11  and  N_12
REMARK    8  A    between atoms: N_15  and  C_16
REMARK    9  A    between atoms: N_15  and  C_22
REMARK                            x       y       z     vdW  Elec       q    Type
REMARK                         _______ _______ _______ _____ _____    ______ ____
ROOT
ATOM      1  N   UNL     1       1.790   8.389  19.203  0.00  0.00    +0.000 N 
ATOM      2  C   UNL     1       2.486   7.915  18.098  0.00  0.00    +0.000 C 
ATOM      3  O   UNL     1       2.660   8.623  17.108  0.00  0.00    +0.000 OA
ATOM      4  N   UNL     1       3.022   6.621  18.274  0.00  0.00    +0.000 N 
ATOM      5  H   UNL     1       2.084   7.958  20.069  0.00  0.00    +0.000 HD
ENDROOT
BRANCH   4   6
ATOM      6  C   UNL     1       4.162   6.178  17.504  0.00  0.00    +0.000 A 
ATOM      7  C   UNL     1       4.063   5.047  16.672  0.00  0.00    +0.000 A 
ATOM      8  C   UNL     1       5.151   4.591  15.915  0.00  0.00    +0.000 A 
ATOM      9  C   UNL     1       6.365   5.266  15.972  0.00  0.00    +0.000 A 
ATOM     10 CL   UNL     1       7.696   4.704  15.040  0.00  0.00    +0.000 Cl
ATOM     11  C   UNL     1       6.482   6.388  16.785  0.00  0.00    +0.000 A 
ATOM     12  F   UNL     1       7.643   7.056  16.862  0.00  0.00    +0.000 F 
ATOM     13  C   UNL     1       5.401   6.842  17.541  0.00  0.00    +0.000 A 
ENDBRANCH   4   6
BRANCH   4  14
ATOM     14  C   UNL     1       2.321   5.632  19.026  0.00  0.00    +0.000 A 
ATOM     15  C   UNL     1       1.497   4.703  18.377  0.00  0.00    +0.000 A 
ATOM     16  C   UNL     1       0.870   3.691  19.106  0.00  0.00    +0.000 A 
ATOM     17  C   UNL     1       1.031   3.622  20.490  0.00  0.00    +0.000 A 
ATOM     18  C   UNL     1       1.826   4.560  21.148  0.00  0.00    +0.000 A 
ATOM     19  C   UNL     1       2.477   5.557  20.420  0.00  0.00    +0.000 A 
ENDBRANCH   4  14
BRANCH   1  20
ATOM     20  C   UNL     1       1.405   9.790  19.247  0.00  0.00    +0.000 C 
BRANCH  20  24
ATOM     21  C   UNL     1      -2.608  11.497  18.583  0.00  0.00    +0.000 C 
ATOM     22  C   UNL     1      -1.994  11.573  19.989  0.00  0.00    +0.000 C 
ATOM     23  C   UNL     1      -0.483  11.339  19.972  0.00  0.00    +0.000 C 
ATOM     24  C   UNL     1      -0.117  10.004  19.304  0.00  0.00    +0.000 C 
ATOM     25  C   UNL     1      -0.716   9.957  17.885  0.00  0.00    +0.000 C 
ATOM     26  C   UNL     1      -2.228  10.177  17.901  0.00  0.00    +0.000 C 
BRANCH  21  27
ATOM     27  C   UNL     1      -4.135  11.664  18.634  0.00  0.00    +0.000 C 
BRANCH  27  28
ATOM     28  O   UNL     1      -4.759  10.401  18.377  0.00  0.00    +0.000 OA
BRANCH  28  29
ATOM     29  C   UNL     1      -6.190  10.532  18.318  0.00  0.00    +0.000 C 
BRANCH  29  31
ATOM     30  O   UNL     1      -7.013  10.489  20.607  0.00  0.00    +0.000 OA
ATOM     31  C   UNL     1      -6.792   9.896  19.562  0.00  0.00    +0.000 C 
BRANCH  31  32
ATOM     32  O   UNL     1      -7.063   8.578  19.382  0.00  0.00    +0.000 OA
ATOM     33  H   UNL     1      -7.340   8.214  20.257  0.00  0.00    +0.000 HD
ENDBRANCH  31  32
ENDBRANCH  29  31
ENDBRANCH  28  29
ENDBRANCH  27  28
ENDBRANCH  21  27
ENDBRANCH  20  24
ENDBRANCH   1  20
TORSDOF 9
ENDMDL
MODEL 9
REMARK VINA RESULT:      -7.6      3.106      4.560
REMARK  Name = 
REMARK  9 active torsions:
REMARK  status: ('A' for Active; 'I' for Inactive)
REMARK    1  A    between atoms: C_2  and  O_3
REMARK    2  A    between atoms: C_2  and  C_4
REMARK    3  A    between atoms: C_4  and  O_5
REMARK    4  A    between atoms: O_5  and  C_6
REMARK    5  A    between atoms: C_6  and  C_7
REMARK    6  A    between atoms: C_10  and  C_11
REMARK    7  A    between atoms: C_11  and  N_12
REMARK    8  A    between atoms: N_15  and  C_16
REMARK    9  A    between atoms: N_15  and  C_22
REMARK                            x       y       z     vdW  Elec       q    Type
REMARK                         _______ _______ _______ _____ _____    ______ ____
ROOT
ATOM      1  N   UNL     1       1.505  10.125  18.529  0.00  0.00    +0.000 N 
ATOM      2  C   UNL     1       0.281  10.525  19.050  0.00  0.00    +0.000 C 
ATOM      3  O   UNL     1      -0.754   9.921  18.772  0.00  0.00    +0.000 OA
ATOM      4  N   UNL     1       0.373  11.598  19.962  0.00  0.00    +0.000 N 
ATOM      5  H   UNL     1       2.283  10.354  19.131  0.00  0.00    +0.000 HD
ENDROOT
BRANCH   4   6
ATOM      6  C   UNL     1      -0.645  11.810  20.966  0.00  0.00    +0.000 A 
ATOM      7  C   UNL     1      -0.598  11.112  22.187  0.00  0.00    +0.000 A 
ATOM      8  C   UNL     1      -1.571  11.296  23.179  0.00  0.00    +0.000 A 
ATOM      9  C   UNL     1      -2.614  12.190  22.968  0.00  0.00    +0.000 A 
ATOM     10 CL   UNL     1      -3.805  12.413  24.188  0.00  0.00    +0.000 Cl
ATOM     11  C   UNL     1      -2.677  12.893  21.770  0.00  0.00    +0.000 A 
ATOM     12  F   UNL     1      -3.674  13.760  21.538  0.00  0.00    +0.000 F 
ATOM     13  C   UNL     1      -1.710  12.710  20.780  0.00  0.00    +0.000 A 
ENDBRANCH   4   6
BRANCH   4  14
ATOM     14  C   UNL     1       1.330  12.641  19.776  0.00  0.00    +0.000 A 
ATOM     15  C   UNL     1       2.226  12.968  20.802  0.00  0.00    +0.000 A 
ATOM     16  C   UNL     1       3.207  13.939  20.593  0.00  0.00    +0.000 A 
ATOM     17  C   UNL     1       3.277  14.612  19.374  0.00  0.00    +0.000 A 
ATOM     18  C   UNL     1       2.371  14.313  18.358  0.00  0.00    +0.000 A 
ATOM     19  C   UNL     1       1.405  13.324  18.552  0.00  0.00    +0.000 A 
ENDBRANCH   4  14
BRANCH   1  20
ATOM     20  C   UNL     1       1.580   8.883  17.778  0.00  0.00    +0.000 C 
BRANCH  20  24
ATOM     21  C   UNL     1       4.267   5.401  18.127  0.00  0.00    +0.000 C 
ATOM     22  C   UNL     1       3.397   5.790  19.332  0.00  0.00    +0.000 C 
ATOM     23  C   UNL     1       2.245   6.715  18.937  0.00  0.00    +0.000 C 
ATOM     24  C   UNL     1       2.743   7.975  18.214  0.00  0.00    +0.000 C 
ATOM     25  C   UNL     1       3.588   7.567  16.992  0.00  0.00    +0.000 C 
ATOM     26  C   UNL     1       4.749   6.655  17.386  0.00  0.00    +0.000 C 
BRANCH  21  27
ATOM     27  C   UNL     1       5.458   4.531  18.559  0.00  0.00    +0.000 C 
BRANCH  27  28
ATOM     28  O   UNL     1       6.507   4.650  17.590  0.00  0.00    +0.000 OA
BRANCH  28  29
ATOM     29  C   UNL     1       7.800   4.594  18.218  0.00  0.00    +0.000 C 
BRANCH  29  31
ATOM     30  O   UNL     1       8.056   6.977  18.636  0.00  0.00    +0.000 OA
ATOM     31  C   UNL     1       7.982   5.839  19.073  0.00  0.00    +0.000 C 
BRANCH  31  32
ATOM     32  O   UNL     1       8.054   5.544  20.397  0.00  0.00    +0.000 OA
ATOM     33  H   UNL     1       8.880   5.956  20.744  0.00  0.00    +0.000 HD
ENDBRANCH  31  32
ENDBRANCH  29  31
ENDBRANCH  28  29
ENDBRANCH  27  28
ENDBRANCH  21  27
ENDBRANCH  20  24
ENDBRANCH   1  20
TORSDOF 9
ENDMDL
