MODEL 1
REMARK VINA RESULT:      -8.2      0.000      0.000
REMARK  Name = 
REMARK  2 active torsions:
REMARK  status: ('A' for Active; 'I' for Inactive)
REMARK    1  A    between atoms: N_9  and  C_10
REMARK    2  A    between atoms: C_10  and  C_11
REMARK                            x       y       z     vdW  Elec       q    Type
REMARK                         _______ _______ _______ _____ _____    ______ ____
ROOT
ATOM      1  C   UNL     1      -1.351  11.656  19.212  0.00  0.00    +0.000 A 
ATOM      2  C   UNL     1      -0.969  10.655  18.335  0.00  0.00    +0.000 A 
ATOM      3  C   UNL     1      -0.152   9.624  18.793  0.00  0.00    +0.000 A 
ATOM      4  C   UNL     1       0.327   9.599  20.130  0.00  0.00    +0.000 A 
ATOM      5  C   UNL     1       1.143   8.590  20.692  0.00  0.00    +0.000 A 
ATOM      6  N   UNL     1       1.488   7.457  19.943  0.00  0.00    +0.000 N 
ATOM      7  C   UNL     1       1.768   6.252  20.744  0.00  0.00    +0.000 C 
ATOM      8  C   UNL     1       1.782   5.014  19.810  0.00  0.00    +0.000 C 
ATOM      9  N   UNL     1       2.693   5.112  18.635  0.00  0.00    +0.000 NA
ATOM     10  C   UNL     1       2.430   6.404  17.950  0.00  0.00    +0.000 C 
ATOM     11  C   UNL     1       2.478   7.651  18.869  0.00  0.00    +0.000 C 
ATOM     12  N   UNL     1       1.512   8.622  21.989  0.00  0.00    +0.000 NA
ATOM     13  C   UNL     1       1.072   9.652  22.719  0.00  0.00    +0.000 A 
ATOM     14  N   UNL     1       0.301  10.657  22.293  0.00  0.00    +0.000 NA
ATOM     15  C   UNL     1      -0.064  10.619  21.009  0.00  0.00    +0.000 A 
ATOM     16  C   UNL     1      -0.904  11.623  20.535  0.00  0.00    +0.000 A 
ENDROOT
BRANCH   9  17
ATOM     17  C   UNL     1       4.090   4.966  19.071  0.00  0.00    +0.000 C 
BRANCH  17  18
ATOM     18  C   UNL     1       5.104   5.092  17.954  0.00  0.00    +0.000 A 
ATOM     19  C   UNL     1       6.271   5.869  18.126  0.00  0.00    +0.000 A 
ATOM     20  C   UNL     1       7.208   6.001  17.093  0.00  0.00    +0.000 A 
ATOM     21  C   UNL     1       6.952   5.342  15.910  0.00  0.00    +0.000 A 
ATOM     22  C   UNL     1       5.824   4.577  15.736  0.00  0.00    +0.000 A 
ATOM     23  C   UNL     1       4.883   4.433  16.732  0.00  0.00    +0.000 A 
ATOM     24  O   UNL     1       5.766   4.009  14.501  0.00  0.00    +0.000 OA
ATOM     25  C   UNL     1       6.989   4.505  13.918  0.00  0.00    +0.000 C 
ATOM     26  O   UNL     1       7.742   5.357  14.803  0.00  0.00    +0.000 OA
ENDBRANCH  17  18
ENDBRANCH   9  17
TORSDOF 2
ENDMDL
MODEL 2
REMARK VINA RESULT:      -7.5      0.957      1.012
REMARK  Name = 
REMARK  2 active torsions:
REMARK  status: ('A' for Active; 'I' for Inactive)
REMARK    1  A    between atoms: N_9  and  C_10
REMARK    2  A    between atoms: C_10  and  C_11
REMARK                            x       y       z     vdW  Elec       q    Type
REMARK                         _______ _______ _______ _____ _____    ______ ____
ROOT
ATOM      1  C   UNL     1      -2.028  12.205  19.985  0.00  0.00    +0.000 A 
ATOM      2  C   UNL     1      -1.482  11.399  19.000  0.00  0.00    +0.000 A 
ATOM      3  C   UNL     1      -0.618  10.370  19.363  0.00  0.00    +0.000 A 
ATOM      4  C   UNL     1      -0.257  10.153  20.720  0.00  0.00    +0.000 A 
ATOM      5  C   UNL     1       0.596   9.127  21.190  0.00  0.00    +0.000 A 
ATOM      6  N   UNL     1       1.106   8.167  20.305  0.00  0.00    +0.000 N 
ATOM      7  C   UNL     1       1.424   6.868  20.924  0.00  0.00    +0.000 C 
ATOM      8  C   UNL     1       1.631   5.812  19.807  0.00  0.00    +0.000 C 
ATOM      9  N   UNL     1       2.628   6.176  18.761  0.00  0.00    +0.000 NA
ATOM     10  C   UNL     1       2.309   7.543  18.272  0.00  0.00    +0.000 C 
ATOM     11  C   UNL     1       2.164   8.616  19.382  0.00  0.00    +0.000 C 
ATOM     12  N   UNL     1       0.847   8.965  22.505  0.00  0.00    +0.000 NA
ATOM     13  C   UNL     1       0.253   9.819  23.345  0.00  0.00    +0.000 A 
ATOM     14  N   UNL     1      -0.566  10.821  23.013  0.00  0.00    +0.000 NA
ATOM     15  C   UNL     1      -0.814  10.976  21.709  0.00  0.00    +0.000 A 
ATOM     16  C   UNL     1      -1.696  11.980  21.323  0.00  0.00    +0.000 A 
ENDROOT
BRANCH   9  17
ATOM     17  C   UNL     1       3.989   6.064  19.307  0.00  0.00    +0.000 C 
BRANCH  17  18
ATOM     18  C   UNL     1       5.029   5.635  18.293  0.00  0.00    +0.000 A 
ATOM     19  C   UNL     1       6.320   5.239  18.709  0.00  0.00    +0.000 A 
ATOM     20  C   UNL     1       7.291   4.854  17.777  0.00  0.00    +0.000 A 
ATOM     21  C   UNL     1       6.941   4.870  16.444  0.00  0.00    +0.000 A 
ATOM     22  C   UNL     1       5.686   5.245  16.030  0.00  0.00    +0.000 A 
ATOM     23  C   UNL     1       4.711   5.633  16.924  0.00  0.00    +0.000 A 
ATOM     24  O   UNL     1       5.544   5.184  14.678  0.00  0.00    +0.000 OA
ATOM     25  C   UNL     1       6.856   4.727  14.290  0.00  0.00    +0.000 C 
ATOM     26  O   UNL     1       7.750   4.533  15.404  0.00  0.00    +0.000 OA
ENDBRANCH  17  18
ENDBRANCH   9  17
TORSDOF 2
ENDMDL
MODEL 3
REMARK VINA RESULT:      -7.4      1.247      1.580
REMARK  Name = 
REMARK  2 active torsions:
REMARK  status: ('A' for Active; 'I' for Inactive)
REMARK    1  A    between atoms: N_9  and  C_10
REMARK    2  A    between atoms: C_10  and  C_11
REMARK                            x       y       z     vdW  Elec       q    Type
REMARK                         _______ _______ _______ _____ _____    ______ ____
ROOT
ATOM      1  C   UNL     1      -2.802  11.453  17.691  0.00  0.00    +0.000 A 
ATOM      2  C   UNL     1      -2.196  10.320  17.170  0.00  0.00    +0.000 A 
ATOM      3  C   UNL     1      -1.133   9.741  17.856  0.00  0.00    +0.000 A 
ATOM      4  C   UNL     1      -0.632  10.308  19.059  0.00  0.00    +0.000 A 
ATOM      5  C   UNL     1       0.429   9.786  19.835  0.00  0.00    +0.000 A 
ATOM      6  N   UNL     1       1.035   8.572  19.484  0.00  0.00    +0.000 N 
ATOM      7  C   UNL     1       1.633   7.834  20.611  0.00  0.00    +0.000 C 
ATOM      8  C   UNL     1       1.941   6.383  20.160  0.00  0.00    +0.000 C 
ATOM      9  N   UNL     1       2.769   6.260  18.927  0.00  0.00    +0.000 NA
ATOM     10  C   UNL     1       2.168   7.122  17.876  0.00  0.00    +0.000 C 
ATOM     11  C   UNL     1       1.916   8.591  18.303  0.00  0.00    +0.000 C 
ATOM     12  N   UNL     1       0.808  10.365  20.993  0.00  0.00    +0.000 NA
ATOM     13  C   UNL     1       0.135  11.457  21.372  0.00  0.00    +0.000 A 
ATOM     14  N   UNL     1      -0.877  12.034  20.720  0.00  0.00    +0.000 NA
ATOM     15  C   UNL     1      -1.251  11.455  19.575  0.00  0.00    +0.000 A 
ATOM     16  C   UNL     1      -2.330  12.000  18.886  0.00  0.00    +0.000 A 
ENDROOT
BRANCH   9  17
ATOM     17  C   UNL     1       4.167   6.608  19.225  0.00  0.00    +0.000 C 
BRANCH  17  18
ATOM     18  C   UNL     1       5.172   6.015  18.260  0.00  0.00    +0.000 A 
ATOM     19  C   UNL     1       6.312   5.332  18.739  0.00  0.00    +0.000 A 
ATOM     20  C   UNL     1       7.253   4.792  17.854  0.00  0.00    +0.000 A 
ATOM     21  C   UNL     1       7.024   4.947  16.504  0.00  0.00    +0.000 A 
ATOM     22  C   UNL     1       5.914   5.602  16.028  0.00  0.00    +0.000 A 
ATOM     23  C   UNL     1       4.973   6.148  16.875  0.00  0.00    +0.000 A 
ATOM     24  O   UNL     1       5.873   5.638  14.669  0.00  0.00    +0.000 OA
ATOM     25  C   UNL     1       7.087   4.930  14.344  0.00  0.00    +0.000 C 
ATOM     26  O   UNL     1       7.826   4.494  15.503  0.00  0.00    +0.000 OA
ENDBRANCH  17  18
ENDBRANCH   9  17
TORSDOF 2
ENDMDL
MODEL 4
REMARK VINA RESULT:      -7.3      4.660      9.137
REMARK  Name = 
REMARK  2 active torsions:
REMARK  status: ('A' for Active; 'I' for Inactive)
REMARK    1  A    between atoms: N_9  and  C_10
REMARK    2  A    between atoms: C_10  and  C_11
REMARK                            x       y       z     vdW  Elec       q    Type
REMARK                         _______ _______ _______ _____ _____    ______ ____
ROOT
ATOM      1  C   UNL     1       2.777   2.611  17.948  0.00  0.00    +0.000 A 
ATOM      2  C   UNL     1       1.793   3.340  18.595  0.00  0.00    +0.000 A 
ATOM      3  C   UNL     1       1.878   4.729  18.617  0.00  0.00    +0.000 A 
ATOM      4  C   UNL     1       2.973   5.412  18.021  0.00  0.00    +0.000 A 
ATOM      5  C   UNL     1       3.140   6.815  17.975  0.00  0.00    +0.000 A 
ATOM      6  N   UNL     1       2.146   7.666  18.479  0.00  0.00    +0.000 N 
ATOM      7  C   UNL     1       2.104   9.000  17.855  0.00  0.00    +0.000 C 
ATOM      8  C   UNL     1       0.770   9.695  18.234  0.00  0.00    +0.000 C 
ATOM      9  N   UNL     1       0.481   9.766  19.694  0.00  0.00    +0.000 NA
ATOM     10  C   UNL     1       0.658   8.408  20.269  0.00  0.00    +0.000 C 
ATOM     11  C   UNL     1       2.017   7.734  19.945  0.00  0.00    +0.000 C 
ATOM     12  N   UNL     1       4.190   7.381  17.345  0.00  0.00    +0.000 NA
ATOM     13  C   UNL     1       5.066   6.554  16.766  0.00  0.00    +0.000 A 
ATOM     14  N   UNL     1       5.008   5.219  16.748  0.00  0.00    +0.000 NA
ATOM     15  C   UNL     1       3.965   4.664  17.371  0.00  0.00    +0.000 A 
ATOM     16  C   UNL     1       3.842   3.278  17.339  0.00  0.00    +0.000 A 
ENDROOT
BRANCH   9  17
ATOM     17  C   UNL     1       1.342  10.776  20.327  0.00  0.00    +0.000 C 
BRANCH  17  18
ATOM     18  C   UNL     1       0.587  11.857  21.071  0.00  0.00    +0.000 A 
ATOM     19  C   UNL     1       0.993  13.207  20.987  0.00  0.00    +0.000 A 
ATOM     20  C   UNL     1       0.308  14.210  21.683  0.00  0.00    +0.000 A 
ATOM     21  C   UNL     1      -0.777  13.834  22.445  0.00  0.00    +0.000 A 
ATOM     22  C   UNL     1      -1.185  12.525  22.526  0.00  0.00    +0.000 A 
ATOM     23  C   UNL     1      -0.528  11.515  21.857  0.00  0.00    +0.000 A 
ATOM     24  O   UNL     1      -2.277  12.368  23.323  0.00  0.00    +0.000 OA
ATOM     25  C   UNL     1      -2.508  13.732  23.734  0.00  0.00    +0.000 C 
ATOM     26  O   UNL     1      -1.557  14.665  23.186  0.00  0.00    +0.000 OA
ENDBRANCH  17  18
ENDBRANCH   9  17
TORSDOF 2
ENDMDL
MODEL 5
REMARK VINA RESULT:      -7.3      4.366      8.589
REMARK  Name = 
REMARK  2 active torsions:
REMARK  status: ('A' for Active; 'I' for Inactive)
REMARK    1  A    between atoms: N_9  and  C_10
REMARK    2  A    between atoms: C_10  and  C_11
REMARK                            x       y       z     vdW  Elec       q    Type
REMARK                         _______ _______ _______ _____ _____    ______ ____
ROOT
ATOM      1  C   UNL     1       1.978   2.607  19.864  0.00  0.00    +0.000 A 
ATOM      2  C   UNL     1       1.107   3.593  20.299  0.00  0.00    +0.000 A 
ATOM      3  C   UNL     1       1.334   4.915  19.925  0.00  0.00    +0.000 A 
ATOM      4  C   UNL     1       2.460   5.278  19.139  0.00  0.00    +0.000 A 
ATOM      5  C   UNL     1       2.767   6.585  18.695  0.00  0.00    +0.000 A 
ATOM      6  N   UNL     1       1.891   7.647  18.958  0.00  0.00    +0.000 N 
ATOM      7  C   UNL     1       1.953   8.750  17.983  0.00  0.00    +0.000 C 
ATOM      8  C   UNL     1       0.718   9.668  18.177  0.00  0.00    +0.000 C 
ATOM      9  N   UNL     1       0.512  10.176  19.563  0.00  0.00    +0.000 NA
ATOM     10  C   UNL     1       0.580   9.020  20.495  0.00  0.00    +0.000 C 
ATOM     11  C   UNL     1       1.844   8.136  20.347  0.00  0.00    +0.000 C 
ATOM     12  N   UNL     1       3.835   6.831  17.908  0.00  0.00    +0.000 NA
ATOM     13  C   UNL     1       4.592   5.783  17.569  0.00  0.00    +0.000 A 
ATOM     14  N   UNL     1       4.398   4.512  17.931  0.00  0.00    +0.000 NA
ATOM     15  C   UNL     1       3.337   4.272  18.707  0.00  0.00    +0.000 A 
ATOM     16  C   UNL     1       3.073   2.955  19.070  0.00  0.00    +0.000 A 
ENDROOT
BRANCH   9  17
ATOM     17  C   UNL     1       1.503  11.219  19.867  0.00  0.00    +0.000 C 
BRANCH  17  18
ATOM     18  C   UNL     1       1.042  12.624  19.542  0.00  0.00    +0.000 A 
ATOM     19  C   UNL     1      -0.320  12.980  19.662  0.00  0.00    +0.000 A 
ATOM     20  C   UNL     1      -0.757  14.274  19.352  0.00  0.00    +0.000 A 
ATOM     21  C   UNL     1       0.188  15.185  18.933  0.00  0.00    +0.000 A 
ATOM     22  C   UNL     1       1.516  14.851  18.821  0.00  0.00    +0.000 A 
ATOM     23  C   UNL     1       1.975  13.585  19.115  0.00  0.00    +0.000 A 
ATOM     24  O   UNL     1       2.281  15.893  18.399  0.00  0.00    +0.000 OA
ATOM     25  C   UNL     1       1.281  16.923  18.257  0.00  0.00    +0.000 C 
ATOM     26  O   UNL     1      -0.050  16.479  18.587  0.00  0.00    +0.000 OA
ENDBRANCH  17  18
ENDBRANCH   9  17
TORSDOF 2
ENDMDL
MODEL 6
REMARK VINA RESULT:      -7.3      4.512      8.602
REMARK  Name = 
REMARK  2 active torsions:
REMARK  status: ('A' for Active; 'I' for Inactive)
REMARK    1  A    between atoms: N_9  and  C_10
REMARK    2  A    between atoms: C_10  and  C_11
REMARK                            x       y       z     vdW  Elec       q    Type
REMARK                         _______ _______ _______ _____ _____    ______ ____
ROOT
ATOM      1  C   UNL     1       2.461   2.645  18.050  0.00  0.00    +0.000 A 
ATOM      2  C   UNL     1       1.523   3.423  18.709  0.00  0.00    +0.000 A 
ATOM      3  C   UNL     1       1.667   4.807  18.710  0.00  0.00    +0.000 A 
ATOM      4  C   UNL     1       2.775   5.436  18.082  0.00  0.00    +0.000 A 
ATOM      5  C   UNL     1       3.000   6.831  18.014  0.00  0.00    +0.000 A 
ATOM      6  N   UNL     1       2.054   7.728  18.528  0.00  0.00    +0.000 N 
ATOM      7  C   UNL     1       2.053   9.055  17.888  0.00  0.00    +0.000 C 
ATOM      8  C   UNL     1       0.759   9.810  18.287  0.00  0.00    +0.000 C 
ATOM      9  N   UNL     1       0.506   9.911  19.752  0.00  0.00    +0.000 NA
ATOM     10  C   UNL     1       0.639   8.554  20.341  0.00  0.00    +0.000 C 
ATOM     11  C   UNL     1       1.961   7.820  19.996  0.00  0.00    +0.000 C 
ATOM     12  N   UNL     1       4.057   7.344  17.353  0.00  0.00    +0.000 NA
ATOM     13  C   UNL     1       4.885   6.473  16.765  0.00  0.00    +0.000 A 
ATOM     14  N   UNL     1       4.770   5.142  16.767  0.00  0.00    +0.000 NA
ATOM     15  C   UNL     1       3.720   4.639  17.420  0.00  0.00    +0.000 A 
ATOM     16  C   UNL     1       3.539   3.259  17.409  0.00  0.00    +0.000 A 
ENDROOT
BRANCH   9  17
ATOM     17  C   UNL     1       1.423  10.892  20.352  0.00  0.00    +0.000 C 
BRANCH  17  18
ATOM     18  C   UNL     1       1.237  12.306  19.844  0.00  0.00    +0.000 A 
ATOM     19  C   UNL     1       2.219  12.913  19.030  0.00  0.00    +0.000 A 
ATOM     20  C   UNL     1       2.060  14.225  18.567  0.00  0.00    +0.000 A 
ATOM     21  C   UNL     1       0.913  14.897  18.928  0.00  0.00    +0.000 A 
ATOM     22  C   UNL     1      -0.052  14.312  19.712  0.00  0.00    +0.000 A 
ATOM     23  C   UNL     1       0.079  13.025  20.187  0.00  0.00    +0.000 A 
ATOM     24  O   UNL     1      -1.105  15.141  19.947  0.00  0.00    +0.000 OA
ATOM     25  C   UNL     1      -0.691  16.316  19.219  0.00  0.00    +0.000 C 
ATOM     26  O   UNL     1       0.591  16.170  18.576  0.00  0.00    +0.000 OA
ENDBRANCH  17  18
ENDBRANCH   9  17
TORSDOF 2
ENDMDL
MODEL 7
REMARK VINA RESULT:      -7.3      4.579      8.895
REMARK  Name = 
REMARK  2 active torsions:
REMARK  status: ('A' for Active; 'I' for Inactive)
REMARK    1  A    between atoms: N_9  and  C_10
REMARK    2  A    between atoms: C_10  and  C_11
REMARK                            x       y       z     vdW  Elec       q    Type
REMARK                         _______ _______ _______ _____ _____    ______ ____
ROOT
ATOM      1  C   UNL     1       2.033   2.588  20.462  0.00  0.00    +0.000 A 
ATOM      2  C   UNL     1       1.156   3.607  20.796  0.00  0.00    +0.000 A 
ATOM      3  C   UNL     1       1.374   4.886  20.289  0.00  0.00    +0.000 A 
ATOM      4  C   UNL     1       2.496   5.174  19.468  0.00  0.00    +0.000 A 
ATOM      5  C   UNL     1       2.794   6.431  18.892  0.00  0.00    +0.000 A 
ATOM      6  N   UNL     1       1.911   7.509  19.047  0.00  0.00    +0.000 N 
ATOM      7  C   UNL     1       1.965   8.508  17.965  0.00  0.00    +0.000 C 
ATOM      8  C   UNL     1       0.723   9.432  18.068  0.00  0.00    +0.000 C 
ATOM      9  N   UNL     1       0.516  10.077  19.395  0.00  0.00    +0.000 NA
ATOM     10  C   UNL     1       0.593   9.023  20.440  0.00  0.00    +0.000 C 
ATOM     11  C   UNL     1       1.863   8.136  20.380  0.00  0.00    +0.000 C 
ATOM     12  N   UNL     1       3.859   6.603  18.083  0.00  0.00    +0.000 NA
ATOM     13  C   UNL     1       4.622   5.530  17.851  0.00  0.00    +0.000 A 
ATOM     14  N   UNL     1       4.437   4.301  18.340  0.00  0.00    +0.000 NA
ATOM     15  C   UNL     1       3.379   4.135  19.138  0.00  0.00    +0.000 A 
ATOM     16  C   UNL     1       3.124   2.860  19.635  0.00  0.00    +0.000 A 
ENDROOT
BRANCH   9  17
ATOM     17  C   UNL     1       1.501  11.152  19.589  0.00  0.00    +0.000 C 
BRANCH  17  18
ATOM     18  C   UNL     1       1.046  12.245  20.534  0.00  0.00    +0.000 A 
ATOM     19  C   UNL     1       1.704  13.494  20.558  0.00  0.00    +0.000 A 
ATOM     20  C   UNL     1       1.299  14.506  21.438  0.00  0.00    +0.000 A 
ATOM     21  C   UNL     1       0.235  14.239  22.272  0.00  0.00    +0.000 A 
ATOM     22  C   UNL     1      -0.417  13.030  22.250  0.00  0.00    +0.000 A 
ATOM     23  C   UNL     1      -0.038  12.015  21.399  0.00  0.00    +0.000 A 
ATOM     24  O   UNL     1      -1.441  12.974  23.145  0.00  0.00    +0.000 OA
ATOM     25  C   UNL     1      -1.357  14.289  23.732  0.00  0.00    +0.000 C 
ATOM     26  O   UNL     1      -0.293  15.095  23.188  0.00  0.00    +0.000 OA
ENDBRANCH  17  18
ENDBRANCH   9  17
TORSDOF 2
ENDMDL
MODEL 8
REMARK VINA RESULT:      -7.3      1.990      3.424
REMARK  Name = 
REMARK  2 active torsions:
REMARK  status: ('A' for Active; 'I' for Inactive)
REMARK    1  A    between atoms: N_9  and  C_10
REMARK    2  A    between atoms: C_10  and  C_11
REMARK                            x       y       z     vdW  Elec       q    Type
REMARK                         _______ _______ _______ _____ _____    ______ ____
ROOT
ATOM      1  C   UNL     1      -1.992  12.993  22.659  0.00  0.00    +0.000 A 
ATOM      2  C   UNL     1      -0.854  12.214  22.791  0.00  0.00    +0.000 A 
ATOM      3  C   UNL     1      -0.455  11.407  21.729  0.00  0.00    +0.000 A 
ATOM      4  C   UNL     1      -1.212  11.337  20.529  0.00  0.00    +0.000 A 
ATOM      5  C   UNL     1      -0.881  10.564  19.392  0.00  0.00    +0.000 A 
ATOM      6  N   UNL     1       0.316   9.836  19.352  0.00  0.00    +0.000 N 
ATOM      7  C   UNL     1       0.851   9.605  17.999  0.00  0.00    +0.000 C 
ATOM      8  C   UNL     1       2.320   9.119  18.110  0.00  0.00    +0.000 C 
ATOM      9  N   UNL     1       2.535   7.937  18.991  0.00  0.00    +0.000 NA
ATOM     10  C   UNL     1       1.868   8.199  20.292  0.00  0.00    +0.000 C 
ATOM     11  C   UNL     1       0.380   8.624  20.189  0.00  0.00    +0.000 C 
ATOM     12  N   UNL     1      -1.634  10.595  18.273  0.00  0.00    +0.000 NA
ATOM     13  C   UNL     1      -2.709  11.390  18.289  0.00  0.00    +0.000 A 
ATOM     14  N   UNL     1      -3.114  12.159  19.303  0.00  0.00    +0.000 NA
ATOM     15  C   UNL     1      -2.364  12.127  20.408  0.00  0.00    +0.000 A 
ATOM     16  C   UNL     1      -2.726  12.947  21.472  0.00  0.00    +0.000 A 
ENDROOT
BRANCH   9  17
ATOM     17  C   UNL     1       2.042   6.721  18.326  0.00  0.00    +0.000 C 
BRANCH  17  18
ATOM     18  C   UNL     1       3.127   5.884  17.682  0.00  0.00    +0.000 A 
ATOM     19  C   UNL     1       3.024   4.475  17.650  0.00  0.00    +0.000 A 
ATOM     20  C   UNL     1       4.030   3.693  17.068  0.00  0.00    +0.000 A 
ATOM     21  C   UNL     1       5.114   4.346  16.524  0.00  0.00    +0.000 A 
ATOM     22  C   UNL     1       5.219   5.715  16.543  0.00  0.00    +0.000 A 
ATOM     23  C   UNL     1       4.248   6.511  17.113  0.00  0.00    +0.000 A 
ATOM     24  O   UNL     1       6.360   6.158  15.950  0.00  0.00    +0.000 OA
ATOM     25  C   UNL     1       6.962   4.908  15.556  0.00  0.00    +0.000 C 
ATOM     26  O   UNL     1       6.181   3.754  15.923  0.00  0.00    +0.000 OA
ENDBRANCH  17  18
ENDBRANCH   9  17
TORSDOF 2
ENDMDL
MODEL 9
REMARK VINA RESULT:      -7.3      4.362      9.100
REMARK  Name = 
REMARK  2 active torsions:
REMARK  status: ('A' for Active; 'I' for Inactive)
REMARK    1  A    between atoms: N_9  and  C_10
REMARK    2  A    between atoms: C_10  and  C_11
REMARK                            x       y       z     vdW  Elec       q    Type
REMARK                         _______ _______ _______ _____ _____    ______ ____
ROOT
ATOM      1  C   UNL     1       6.056   5.011  15.891  0.00  0.00    +0.000 A 
ATOM      2  C   UNL     1       5.815   6.338  16.208  0.00  0.00    +0.000 A 
ATOM      3  C   UNL     1       4.712   6.660  16.995  0.00  0.00    +0.000 A 
ATOM      4  C   UNL     1       3.809   5.662  17.447  0.00  0.00    +0.000 A 
ATOM      5  C   UNL     1       2.675   5.886  18.261  0.00  0.00    +0.000 A 
ATOM      6  N   UNL     1       2.400   7.168  18.757  0.00  0.00    +0.000 N 
ATOM      7  C   UNL     1       1.641   7.188  20.020  0.00  0.00    +0.000 C 
ATOM      8  C   UNL     1       1.714   8.611  20.632  0.00  0.00    +0.000 C 
ATOM      9  N   UNL     1       1.296   9.718  19.726  0.00  0.00    +0.000 NA
ATOM     10  C   UNL     1       2.017   9.559  18.437  0.00  0.00    +0.000 C 
ATOM     11  C   UNL     1       1.893   8.156  17.789  0.00  0.00    +0.000 C 
ATOM     12  N   UNL     1       1.897   4.868  18.684  0.00  0.00    +0.000 NA
ATOM     13  C   UNL     1       2.247   3.637  18.297  0.00  0.00    +0.000 A 
ATOM     14  N   UNL     1       3.291   3.311  17.531  0.00  0.00    +0.000 NA
ATOM     15  C   UNL     1       4.061   4.322  17.117  0.00  0.00    +0.000 A 
ATOM     16  C   UNL     1       5.185   4.022  16.354  0.00  0.00    +0.000 A 
ENDROOT
BRANCH   9  17
ATOM     17  C   UNL     1      -0.166   9.714  19.572  0.00  0.00    +0.000 C 
BRANCH  17  18
ATOM     18  C   UNL     1      -0.861  10.889  20.227  0.00  0.00    +0.000 A 
ATOM     19  C   UNL     1      -1.796  11.665  19.506  0.00  0.00    +0.000 A 
ATOM     20  C   UNL     1      -2.434  12.761  20.100  0.00  0.00    +0.000 A 
ATOM     21  C   UNL     1      -2.121  13.051  21.410  0.00  0.00    +0.000 A 
ATOM     22  C   UNL     1      -1.219  12.297  22.122  0.00  0.00    +0.000 A 
ATOM     23  C   UNL     1      -0.573  11.216  21.563  0.00  0.00    +0.000 A 
ATOM     24  O   UNL     1      -1.058  12.746  23.397  0.00  0.00    +0.000 OA
ATOM     25  C   UNL     1      -1.963  13.869  23.404  0.00  0.00    +0.000 C 
ATOM     26  O   UNL     1      -2.635  14.073  22.145  0.00  0.00    +0.000 OA
ENDBRANCH  17  18
ENDBRANCH   9  17
TORSDOF 2
ENDMDL
