MODEL 1
REMARK VINA RESULT:      -6.8      0.000      0.000
REMARK  Name = 
REMARK  7 active torsions:
REMARK  status: ('A' for Active; 'I' for Inactive)
REMARK    1  A    between atoms: C_1  and  C_2
REMARK    2  A    between atoms: C_2  and  C_3
REMARK    3  A    between atoms: C_5  and  C_6
REMARK    4  A    between atoms: C_6  and  N_7
REMARK    5  A    between atoms: C_10  and  C_11
REMARK    6  A    between atoms: C_10  and  O_12
REMARK    7  A    between atoms: C_13  and  C_14
REMARK                            x       y       z     vdW  Elec       q    Type
REMARK                         _______ _______ _______ _____ _____    ______ ____
ROOT
ATOM      1  N   UNL     1       2.831   6.129  18.040  0.00  0.00    +0.000 NA
ATOM      2  C   UNL     1       2.847   6.235  19.514  0.00  0.00    +0.000 C 
ATOM      3  C   UNL     1       1.879   5.305  20.222  0.00  0.00    +0.000 C 
ATOM      4  C   UNL     1       2.143   3.847  19.839  0.00  0.00    +0.000 C 
ATOM      5  C   UNL     1       1.158   2.958  20.608  0.00  0.00    +0.000 C 
ATOM      6  C   UNL     1       2.042   3.729  18.302  0.00  0.00    +0.000 C 
ATOM      7  C   UNL     1       2.293   2.299  17.801  0.00  0.00    +0.000 C 
ATOM      8  C   UNL     1       3.035   4.722  17.620  0.00  0.00    +0.000 C 
ENDROOT
BRANCH   4   9
ATOM      9  O   UNL     1       3.462   3.461  20.248  0.00  0.00    +0.000 OA
ATOM     10  H   UNL     1       3.938   3.110  19.478  0.00  0.00    +0.000 HD
ENDBRANCH   4   9
BRANCH   1  11
ATOM     11  C   UNL     1       3.932   7.021  17.599  0.00  0.00    +0.000 C 
BRANCH  11  14
ATOM     12  C   UNL     1       6.590   5.358  15.877  0.00  0.00    +0.000 A 
ATOM     13  N   UNL     1       5.617   6.234  15.985  0.00  0.00    +0.000 NA
ATOM     14  C   UNL     1       5.266   6.400  17.316  0.00  0.00    +0.000 A 
ATOM     15  C   UNL     1       6.067   5.708  18.210  0.00  0.00    +0.000 A 
ATOM     16  S   UNL     1       7.241   4.790  17.360  0.00  0.00    +0.000 S 
BRANCH  12  18
ATOM     17  C   UNL     1       5.980   3.921  13.944  0.00  0.00    +0.000 C 
ATOM     18  C   UNL     1       7.055   4.812  14.563  0.00  0.00    +0.000 C 
ENDBRANCH  12  18
ENDBRANCH  11  14
ENDBRANCH   1  11
TORSDOF 4
ENDMDL
MODEL 2
REMARK VINA RESULT:      -6.5      2.900      6.013
REMARK  Name = 
REMARK  7 active torsions:
REMARK  status: ('A' for Active; 'I' for Inactive)
REMARK    1  A    between atoms: C_1  and  C_2
REMARK    2  A    between atoms: C_2  and  C_3
REMARK    3  A    between atoms: C_5  and  C_6
REMARK    4  A    between atoms: C_6  and  N_7
REMARK    5  A    between atoms: C_10  and  C_11
REMARK    6  A    between atoms: C_10  and  O_12
REMARK    7  A    between atoms: C_13  and  C_14
REMARK                            x       y       z     vdW  Elec       q    Type
REMARK                         _______ _______ _______ _____ _____    ______ ____
ROOT
ATOM      1  N   UNL     1       4.709   5.298  17.515  0.00  0.00    +0.000 NA
ATOM      2  C   UNL     1       4.932   6.289  16.441  0.00  0.00    +0.000 C 
ATOM      3  C   UNL     1       5.764   7.489  16.857  0.00  0.00    +0.000 C 
ATOM      4  C   UNL     1       7.126   7.047  17.398  0.00  0.00    +0.000 C 
ATOM      5  C   UNL     1       7.929   8.300  17.769  0.00  0.00    +0.000 C 
ATOM      6  C   UNL     1       6.883   6.075  18.574  0.00  0.00    +0.000 C 
ATOM      7  C   UNL     1       8.189   5.564  19.197  0.00  0.00    +0.000 C 
ATOM      8  C   UNL     1       6.002   4.875  18.106  0.00  0.00    +0.000 C 
ENDROOT
BRANCH   4   9
ATOM      9  O   UNL     1       7.865   6.365  16.376  0.00  0.00    +0.000 OA
ATOM     10  H   UNL     1       7.239   5.955  15.758  0.00  0.00    +0.000 HD
ENDBRANCH   4   9
BRANCH   1  11
ATOM     11  C   UNL     1       3.999   4.183  16.839  0.00  0.00    +0.000 C 
BRANCH  11  14
ATOM     12  C   UNL     1       1.640   3.399  19.412  0.00  0.00    +0.000 A 
ATOM     13  N   UNL     1       2.310   4.216  18.631  0.00  0.00    +0.000 NA
ATOM     14  C   UNL     1       2.880   3.516  17.578  0.00  0.00    +0.000 A 
ATOM     15  C   UNL     1       2.535   2.174  17.531  0.00  0.00    +0.000 A 
ATOM     16  S   UNL     1       1.528   1.777  18.862  0.00  0.00    +0.000 S 
BRANCH  12  18
ATOM     17  C   UNL     1       1.447   2.793  21.813  0.00  0.00    +0.000 C 
ATOM     18  C   UNL     1       1.081   3.813  20.736  0.00  0.00    +0.000 C 
ENDBRANCH  12  18
ENDBRANCH  11  14
ENDBRANCH   1  11
TORSDOF 4
ENDMDL
MODEL 3
REMARK VINA RESULT:      -6.5      1.863      2.556
REMARK  Name = 
REMARK  7 active torsions:
REMARK  status: ('A' for Active; 'I' for Inactive)
REMARK    1  A    between atoms: C_1  and  C_2
REMARK    2  A    between atoms: C_2  and  C_3
REMARK    3  A    between atoms: C_5  and  C_6
REMARK    4  A    between atoms: C_6  and  N_7
REMARK    5  A    between atoms: C_10  and  C_11
REMARK    6  A    between atoms: C_10  and  O_12
REMARK    7  A    between atoms: C_13  and  C_14
REMARK                            x       y       z     vdW  Elec       q    Type
REMARK                         _______ _______ _______ _____ _____    ______ ____
ROOT
ATOM      1  N   UNL     1       4.311   4.441  17.315  0.00  0.00    +0.000 NA
ATOM      2  C   UNL     1       4.644   5.102  18.594  0.00  0.00    +0.000 C 
ATOM      3  C   UNL     1       3.442   5.583  19.385  0.00  0.00    +0.000 C 
ATOM      4  C   UNL     1       2.481   4.428  19.674  0.00  0.00    +0.000 C 
ATOM      5  C   UNL     1       1.307   4.969  20.501  0.00  0.00    +0.000 C 
ATOM      6  C   UNL     1       2.072   3.795  18.325  0.00  0.00    +0.000 C 
ATOM      7  C   UNL     1       1.103   2.616  18.496  0.00  0.00    +0.000 C 
ATOM      8  C   UNL     1       3.341   3.342  17.538  0.00  0.00    +0.000 C 
ENDROOT
BRANCH   4   9
ATOM      9  O   UNL     1       3.132   3.433  20.475  0.00  0.00    +0.000 OA
ATOM     10  H   UNL     1       2.711   2.574  20.310  0.00  0.00    +0.000 HD
ENDBRANCH   4   9
BRANCH   1  11
ATOM     11  C   UNL     1       5.617   3.954  16.805  0.00  0.00    +0.000 C 
BRANCH  11  14
ATOM     12  C   UNL     1       6.058   3.802  13.258  0.00  0.00    +0.000 A 
ATOM     13  N   UNL     1       5.373   3.669  14.371  0.00  0.00    +0.000 NA
ATOM     14  C   UNL     1       6.009   4.333  15.409  0.00  0.00    +0.000 A 
ATOM     15  C   UNL     1       7.129   5.053  15.027  0.00  0.00    +0.000 A 
ATOM     16  S   UNL     1       7.419   4.843  13.348  0.00  0.00    +0.000 S 
BRANCH  12  18
ATOM     17  C   UNL     1       4.310   3.319  11.560  0.00  0.00    +0.000 C 
ATOM     18  C   UNL     1       5.743   3.039  12.010  0.00  0.00    +0.000 C 
ENDBRANCH  12  18
ENDBRANCH  11  14
ENDBRANCH   1  11
TORSDOF 4
ENDMDL
MODEL 4
REMARK VINA RESULT:      -6.4      1.457      2.208
REMARK  Name = 
REMARK  7 active torsions:
REMARK  status: ('A' for Active; 'I' for Inactive)
REMARK    1  A    between atoms: C_1  and  C_2
REMARK    2  A    between atoms: C_2  and  C_3
REMARK    3  A    between atoms: C_5  and  C_6
REMARK    4  A    between atoms: C_6  and  N_7
REMARK    5  A    between atoms: C_10  and  C_11
REMARK    6  A    between atoms: C_10  and  O_12
REMARK    7  A    between atoms: C_13  and  C_14
REMARK                            x       y       z     vdW  Elec       q    Type
REMARK                         _______ _______ _______ _____ _____    ______ ____
ROOT
ATOM      1  N   UNL     1       2.201   5.721  18.479  0.00  0.00    +0.000 NA
ATOM      2  C   UNL     1       2.904   5.759  19.779  0.00  0.00    +0.000 C 
ATOM      3  C   UNL     1       2.227   4.967  20.883  0.00  0.00    +0.000 C 
ATOM      4  C   UNL     1       2.048   3.503  20.473  0.00  0.00    +0.000 C 
ATOM      5  C   UNL     1       1.391   2.751  21.637  0.00  0.00    +0.000 C 
ATOM      6  C   UNL     1       1.241   3.469  19.156  0.00  0.00    +0.000 C 
ATOM      7  C   UNL     1       1.001   2.041  18.647  0.00  0.00    +0.000 C 
ATOM      8  C   UNL     1       1.960   4.319  18.062  0.00  0.00    +0.000 C 
ENDROOT
BRANCH   4   9
ATOM      9  O   UNL     1       3.326   2.894  20.249  0.00  0.00    +0.000 OA
ATOM     10  H   UNL     1       3.792   3.388  19.556  0.00  0.00    +0.000 HD
ENDBRANCH   4   9
BRANCH   1  11
ATOM     11  C   UNL     1       3.109   6.444  17.553  0.00  0.00    +0.000 C 
BRANCH  11  14
ATOM     12  C   UNL     1       6.680   6.267  17.667  0.00  0.00    +0.000 A 
ATOM     13  N   UNL     1       5.493   6.529  18.165  0.00  0.00    +0.000 NA
ATOM     14  C   UNL     1       4.507   5.927  17.398  0.00  0.00    +0.000 A 
ATOM     15  C   UNL     1       4.987   5.122  16.378  0.00  0.00    +0.000 A 
ATOM     16  S   UNL     1       6.703   5.171  16.346  0.00  0.00    +0.000 S 
BRANCH  12  18
ATOM     17  C   UNL     1       7.930   8.412  17.763  0.00  0.00    +0.000 C 
ATOM     18  C   UNL     1       7.931   6.934  18.147  0.00  0.00    +0.000 C 
ENDBRANCH  12  18
ENDBRANCH  11  14
ENDBRANCH   1  11
TORSDOF 4
ENDMDL
MODEL 5
REMARK VINA RESULT:      -6.3      1.823      3.085
REMARK  Name = 
REMARK  7 active torsions:
REMARK  status: ('A' for Active; 'I' for Inactive)
REMARK    1  A    between atoms: C_1  and  C_2
REMARK    2  A    between atoms: C_2  and  C_3
REMARK    3  A    between atoms: C_5  and  C_6
REMARK    4  A    between atoms: C_6  and  N_7
REMARK    5  A    between atoms: C_10  and  C_11
REMARK    6  A    between atoms: C_10  and  O_12
REMARK    7  A    between atoms: C_13  and  C_14
REMARK                            x       y       z     vdW  Elec       q    Type
REMARK                         _______ _______ _______ _____ _____    ______ ____
ROOT
ATOM      1  N   UNL     1       3.716   3.422  18.351  0.00  0.00    +0.000 NA
ATOM      2  C   UNL     1       3.016   2.136  18.556  0.00  0.00    +0.000 C 
ATOM      3  C   UNL     1       2.564   1.887  19.983  0.00  0.00    +0.000 C 
ATOM      4  C   UNL     1       1.654   3.016  20.472  0.00  0.00    +0.000 C 
ATOM      5  C   UNL     1       1.206   2.691  21.903  0.00  0.00    +0.000 C 
ATOM      6  C   UNL     1       2.424   4.348  20.332  0.00  0.00    +0.000 C 
ATOM      7  C   UNL     1       1.600   5.558  20.796  0.00  0.00    +0.000 C 
ATOM      8  C   UNL     1       2.891   4.546  18.856  0.00  0.00    +0.000 C 
ENDROOT
BRANCH   4   9
ATOM      9  O   UNL     1       0.469   3.078  19.667  0.00  0.00    +0.000 OA
ATOM     10  H   UNL     1      -0.291   2.806  20.207  0.00  0.00    +0.000 HD
ENDBRANCH   4   9
BRANCH   1  11
ATOM     11  C   UNL     1       3.934   3.489  16.884  0.00  0.00    +0.000 C 
BRANCH  11  14
ATOM     12  C   UNL     1       6.790   5.615  16.545  0.00  0.00    +0.000 A 
ATOM     13  N   UNL     1       5.901   4.930  17.227  0.00  0.00    +0.000 NA
ATOM     14  C   UNL     1       5.237   4.041  16.394  0.00  0.00    +0.000 A 
ATOM     15  C   UNL     1       5.722   4.003  15.097  0.00  0.00    +0.000 A 
ATOM     16  S   UNL     1       6.991   5.143  14.908  0.00  0.00    +0.000 S 
BRANCH  12  18
ATOM     17  C   UNL     1       7.849   6.555  18.587  0.00  0.00    +0.000 C 
ATOM     18  C   UNL     1       7.526   6.788  17.112  0.00  0.00    +0.000 C 
ENDBRANCH  12  18
ENDBRANCH  11  14
ENDBRANCH   1  11
TORSDOF 4
ENDMDL
MODEL 6
REMARK VINA RESULT:      -6.3      1.365      2.109
REMARK  Name = 
REMARK  7 active torsions:
REMARK  status: ('A' for Active; 'I' for Inactive)
REMARK    1  A    between atoms: C_1  and  C_2
REMARK    2  A    between atoms: C_2  and  C_3
REMARK    3  A    between atoms: C_5  and  C_6
REMARK    4  A    between atoms: C_6  and  N_7
REMARK    5  A    between atoms: C_10  and  C_11
REMARK    6  A    between atoms: C_10  and  O_12
REMARK    7  A    between atoms: C_13  and  C_14
REMARK                            x       y       z     vdW  Elec       q    Type
REMARK                         _______ _______ _______ _____ _____    ______ ____
ROOT
ATOM      1  N   UNL     1       2.416   5.803  18.373  0.00  0.00    +0.000 NA
ATOM      2  C   UNL     1       2.887   5.910  19.770  0.00  0.00    +0.000 C 
ATOM      3  C   UNL     1       2.078   5.104  20.770  0.00  0.00    +0.000 C 
ATOM      4  C   UNL     1       2.048   3.624  20.382  0.00  0.00    +0.000 C 
ATOM      5  C   UNL     1       1.246   2.861  21.443  0.00  0.00    +0.000 C 
ATOM      6  C   UNL     1       1.476   3.515  18.951  0.00  0.00    +0.000 C 
ATOM      7  C   UNL     1       1.402   2.064  18.453  0.00  0.00    +0.000 C 
ATOM      8  C   UNL     1       2.324   4.380  17.965  0.00  0.00    +0.000 C 
ENDROOT
BRANCH   4   9
ATOM      9  O   UNL     1       3.376   3.084  20.393  0.00  0.00    +0.000 OA
ATOM     10  H   UNL     1       3.705   3.082  21.307  0.00  0.00    +0.000 HD
ENDBRANCH   4   9
BRANCH   1  11
ATOM     11  C   UNL     1       3.427   6.556  17.589  0.00  0.00    +0.000 C 
BRANCH  11  14
ATOM     12  C   UNL     1       6.682   5.078  17.462  0.00  0.00    +0.000 A 
ATOM     13  N   UNL     1       5.533   5.358  18.033  0.00  0.00    +0.000 NA
ATOM     14  C   UNL     1       4.624   5.807  17.087  0.00  0.00    +0.000 A 
ATOM     15  C   UNL     1       5.085   5.757  15.781  0.00  0.00    +0.000 A 
ATOM     16  S   UNL     1       6.705   5.193  15.750  0.00  0.00    +0.000 S 
BRANCH  12  18
ATOM     17  C   UNL     1       8.064   5.711  19.427  0.00  0.00    +0.000 C 
ATOM     18  C   UNL     1       7.923   4.764  18.237  0.00  0.00    +0.000 C 
ENDBRANCH  12  18
ENDBRANCH  11  14
ENDBRANCH   1  11
TORSDOF 4
ENDMDL
MODEL 7
REMARK VINA RESULT:      -6.3      1.740      2.581
REMARK  Name = 
REMARK  7 active torsions:
REMARK  status: ('A' for Active; 'I' for Inactive)
REMARK    1  A    between atoms: C_1  and  C_2
REMARK    2  A    between atoms: C_2  and  C_3
REMARK    3  A    between atoms: C_5  and  C_6
REMARK    4  A    between atoms: C_6  and  N_7
REMARK    5  A    between atoms: C_10  and  C_11
REMARK    6  A    between atoms: C_10  and  O_12
REMARK    7  A    between atoms: C_13  and  C_14
REMARK                            x       y       z     vdW  Elec       q    Type
REMARK                         _______ _______ _______ _____ _____    ______ ____
ROOT
ATOM      1  N   UNL     1       3.578   3.588  18.188  0.00  0.00    +0.000 NA
ATOM      2  C   UNL     1       2.925   2.283  18.421  0.00  0.00    +0.000 C 
ATOM      3  C   UNL     1       2.598   1.994  19.875  0.00  0.00    +0.000 C 
ATOM      4  C   UNL     1       1.709   3.092  20.463  0.00  0.00    +0.000 C 
ATOM      5  C   UNL     1       1.388   2.728  21.918  0.00  0.00    +0.000 C 
ATOM      6  C   UNL     1       2.437   4.443  20.290  0.00  0.00    +0.000 C 
ATOM      7  C   UNL     1       1.629   5.625  20.847  0.00  0.00    +0.000 C 
ATOM      8  C   UNL     1       2.775   4.683  18.785  0.00  0.00    +0.000 C 
ENDROOT
BRANCH   4   9
ATOM      9  O   UNL     1       0.460   3.144  19.761  0.00  0.00    +0.000 OA
ATOM     10  H   UNL     1      -0.069   2.367  20.005  0.00  0.00    +0.000 HD
ENDBRANCH   4   9
BRANCH   1  11
ATOM     11  C   UNL     1       3.671   3.689  16.710  0.00  0.00    +0.000 C 
BRANCH  11  14
ATOM     12  C   UNL     1       6.324   4.421  14.424  0.00  0.00    +0.000 A 
ATOM     13  N   UNL     1       5.068   4.217  14.752  0.00  0.00    +0.000 NA
ATOM     14  C   UNL     1       4.912   4.295  16.127  0.00  0.00    +0.000 A 
ATOM     15  C   UNL     1       6.058   4.664  16.813  0.00  0.00    +0.000 A 
ATOM     16  S   UNL     1       7.363   4.859  15.717  0.00  0.00    +0.000 S 
BRANCH  12  18
ATOM     17  C   UNL     1       5.910   3.302  12.244  0.00  0.00    +0.000 C 
ATOM     18  C   UNL     1       6.851   4.205  13.040  0.00  0.00    +0.000 C 
ENDBRANCH  12  18
ENDBRANCH  11  14
ENDBRANCH   1  11
TORSDOF 4
ENDMDL
MODEL 8
REMARK VINA RESULT:      -6.2      2.073      2.925
REMARK  Name = 
REMARK  7 active torsions:
REMARK  status: ('A' for Active; 'I' for Inactive)
REMARK    1  A    between atoms: C_1  and  C_2
REMARK    2  A    between atoms: C_2  and  C_3
REMARK    3  A    between atoms: C_5  and  C_6
REMARK    4  A    between atoms: C_6  and  N_7
REMARK    5  A    between atoms: C_10  and  C_11
REMARK    6  A    between atoms: C_10  and  O_12
REMARK    7  A    between atoms: C_13  and  C_14
REMARK                            x       y       z     vdW  Elec       q    Type
REMARK                         _______ _______ _______ _____ _____    ______ ____
ROOT
ATOM      1  N   UNL     1       4.434   4.586  16.545  0.00  0.00    +0.000 NA
ATOM      2  C   UNL     1       4.108   5.720  17.434  0.00  0.00    +0.000 C 
ATOM      3  C   UNL     1       2.758   5.613  18.120  0.00  0.00    +0.000 C 
ATOM      4  C   UNL     1       2.659   4.319  18.931  0.00  0.00    +0.000 C 
ATOM      5  C   UNL     1       1.291   4.285  19.624  0.00  0.00    +0.000 C 
ATOM      6  C   UNL     1       2.920   3.134  17.976  0.00  0.00    +0.000 C 
ATOM      7  C   UNL     1       2.848   1.775  18.688  0.00  0.00    +0.000 C 
ATOM      8  C   UNL     1       4.305   3.302  17.275  0.00  0.00    +0.000 C 
ENDROOT
BRANCH   4   9
ATOM      9  O   UNL     1       3.652   4.309  19.966  0.00  0.00    +0.000 OA
ATOM     10  H   UNL     1       3.568   5.123  20.488  0.00  0.00    +0.000 HD
ENDBRANCH   4   9
BRANCH   1  11
ATOM     11  C   UNL     1       5.827   4.855  16.107  0.00  0.00    +0.000 C 
BRANCH  11  14
ATOM     12  C   UNL     1       5.859   3.662  12.735  0.00  0.00    +0.000 A 
ATOM     13  N   UNL     1       5.281   3.978  13.871  0.00  0.00    +0.000 NA
ATOM     14  C   UNL     1       6.133   4.754  14.644  0.00  0.00    +0.000 A 
ATOM     15  C   UNL     1       7.319   5.099  14.017  0.00  0.00    +0.000 A 
ATOM     16  S   UNL     1       7.389   4.388  12.456  0.00  0.00    +0.000 S 
BRANCH  12  18
ATOM     17  C   UNL     1       3.993   3.212  11.157  0.00  0.00    +0.000 C 
ATOM     18  C   UNL     1       5.282   2.671  11.774  0.00  0.00    +0.000 C 
ENDBRANCH  12  18
ENDBRANCH  11  14
ENDBRANCH   1  11
TORSDOF 4
ENDMDL
MODEL 9
REMARK VINA RESULT:      -6.2      2.033      2.857
REMARK  Name = 
REMARK  7 active torsions:
REMARK  status: ('A' for Active; 'I' for Inactive)
REMARK    1  A    between atoms: C_1  and  C_2
REMARK    2  A    between atoms: C_2  and  C_3
REMARK    3  A    between atoms: C_5  and  C_6
REMARK    4  A    between atoms: C_6  and  N_7
REMARK    5  A    between atoms: C_10  and  C_11
REMARK    6  A    between atoms: C_10  and  O_12
REMARK    7  A    between atoms: C_13  and  C_14
REMARK                            x       y       z     vdW  Elec       q    Type
REMARK                         _______ _______ _______ _____ _____    ______ ____
ROOT
ATOM      1  N   UNL     1       4.003   4.646  16.603  0.00  0.00    +0.000 NA
ATOM      2  C   UNL     1       3.445   5.642  17.541  0.00  0.00    +0.000 C 
ATOM      3  C   UNL     1       2.169   5.204  18.237  0.00  0.00    +0.000 C 
ATOM      4  C   UNL     1       2.383   3.892  18.995  0.00  0.00    +0.000 C 
ATOM      5  C   UNL     1       1.073   3.521  19.701  0.00  0.00    +0.000 C 
ATOM      6  C   UNL     1       2.888   2.834  17.990  0.00  0.00    +0.000 C 
ATOM      7  C   UNL     1       3.140   1.469  18.646  0.00  0.00    +0.000 C 
ATOM      8  C   UNL     1       4.183   3.340  17.281  0.00  0.00    +0.000 C 
ENDROOT
BRANCH   4   9
ATOM      9  O   UNL     1       3.372   4.070  20.018  0.00  0.00    +0.000 OA
ATOM     10  H   UNL     1       3.316   4.979  20.353  0.00  0.00    +0.000 HD
ENDBRANCH   4   9
BRANCH   1  11
ATOM     11  C   UNL     1       5.289   5.242  16.162  0.00  0.00    +0.000 C 
BRANCH  11  14
ATOM     12  C   UNL     1       7.461   7.637  17.694  0.00  0.00    +0.000 A 
ATOM     13  N   UNL     1       6.441   7.271  16.950  0.00  0.00    +0.000 NA
ATOM     14  C   UNL     1       6.125   5.942  17.190  0.00  0.00    +0.000 A 
ATOM     15  C   UNL     1       6.863   5.352  18.203  0.00  0.00    +0.000 A 
ATOM     16  S   UNL     1       8.010   6.468  18.823  0.00  0.00    +0.000 S 
BRANCH  12  18
ATOM     17  C   UNL     1       8.827   9.372  18.832  0.00  0.00    +0.000 C 
ATOM     18  C   UNL     1       8.166   8.945  17.522  0.00  0.00    +0.000 C 
ENDBRANCH  12  18
ENDBRANCH  11  14
ENDBRANCH   1  11
TORSDOF 4
ENDMDL
