MODEL 1
REMARK VINA RESULT:      -7.3      0.000      0.000
REMARK  Name = 
REMARK  6 active torsions:
REMARK  status: ('A' for Active; 'I' for Inactive)
REMARK    1  A    between atoms: C_1  and  C_2
REMARK    2  A    between atoms: C_5  and  C_6
REMARK    3  A    between atoms: C_6  and  N_7
REMARK    4  A    between atoms: C_12  and  C_13
REMARK    5  A    between atoms: N_21  and  C_22
REMARK    6  A    between atoms: C_22  and  C_23
REMARK                            x       y       z     vdW  Elec       q    Type
REMARK                         _______ _______ _______ _____ _____    ______ ____
ROOT
ATOM      1  C   UNL     1       0.611  11.619  21.407  0.00  0.00    +0.000 C 
ATOM      2  O   UNL     1       1.734  12.125  21.351  0.00  0.00    +0.000 OA
ATOM      3  N   UNL     1      -0.527  12.350  21.767  0.00  0.00    +0.000 N 
ATOM      4  C   UNL     1      -0.290  13.774  22.002  0.00  0.00    +0.000 C 
ATOM      5  C   UNL     1      -1.476  14.552  22.577  0.00  0.00    +0.000 C 
ATOM      6  C   UNL     1      -2.015  13.744  23.748  0.00  0.00    +0.000 C 
ATOM      7  C   UNL     1      -2.649  12.500  23.158  0.00  0.00    +0.000 C 
ATOM      8  C   UNL     1      -3.768  12.789  22.143  0.00  0.00    +0.000 C 
ATOM      9  N   UNL     1      -3.755  14.060  21.437  0.00  0.00    +0.000 NA
ATOM     10  C   UNL     1      -2.555  14.888  21.524  0.00  0.00    +0.000 C 
ATOM     11  C   UNL     1      -1.546  11.647  22.550  0.00  0.00    +0.000 C 
ENDROOT
BRANCH   1  17
ATOM     12  N   UNL     1       0.789   9.970  19.639  0.00  0.00    +0.000 N 
ATOM     13  C   UNL     1       1.443   8.760  19.478  0.00  0.00    +0.000 C 
ATOM     14  O   UNL     1       1.857   8.297  18.441  0.00  0.00    +0.000 OA
ATOM     15  C   UNL     1       1.446   8.059  20.816  0.00  0.00    +0.000 C 
ATOM     16  C   UNL     1       1.185   9.181  21.805  0.00  0.00    +0.000 C 
ATOM     17  C   UNL     1       0.350  10.163  20.995  0.00  0.00    +0.000 C 
BRANCH  12  18
ATOM     18  C   UNL     1       0.331  10.819  18.550  0.00  0.00    +0.000 C 
BRANCH  18  23
ATOM     19  C   UNL     1      -5.413  10.995  17.563  0.00  0.00    +0.000 C 
ATOM     20  C   UNL     1      -3.951  10.930  17.898  0.00  0.00    +0.000 A 
ATOM     21  C   UNL     1      -3.319  11.966  18.587  0.00  0.00    +0.000 A 
ATOM     22  C   UNL     1      -1.941  11.925  18.832  0.00  0.00    +0.000 A 
ATOM     23  C   UNL     1      -1.169  10.840  18.387  0.00  0.00    +0.000 A 
ATOM     24  C   UNL     1      -1.817   9.782  17.738  0.00  0.00    +0.000 A 
ATOM     25  C   UNL     1      -3.189   9.828  17.485  0.00  0.00    +0.000 A 
ENDBRANCH  18  23
ENDBRANCH  12  18
ENDBRANCH   1  17
BRANCH   9  26
ATOM     26  C   UNL     1      -5.026  14.802  21.515  0.00  0.00    +0.000 C 
BRANCH  26  27
ATOM     27  C   UNL     1      -5.620  15.168  20.158  0.00  0.00    +0.000 A 
ATOM     28  C   UNL     1      -6.264  14.224  19.341  0.00  0.00    +0.000 A 
ATOM     29  C   UNL     1      -6.877  14.619  18.140  0.00  0.00    +0.000 A 
ATOM     30  C   UNL     1      -6.869  15.958  17.764  0.00  0.00    +0.000 A 
ATOM     31 CL   UNL     1      -7.663  16.456  16.319  0.00  0.00    +0.000 Cl
ATOM     32  C   UNL     1      -6.228  16.905  18.556  0.00  0.00    +0.000 A 
ATOM     33  C   UNL     1      -5.590  16.508  19.737  0.00  0.00    +0.000 A 
ENDBRANCH  26  27
ENDBRANCH   9  26
TORSDOF 5
ENDMDL
MODEL 2
REMARK VINA RESULT:      -6.7      6.330      9.530
REMARK  Name = 
REMARK  6 active torsions:
REMARK  status: ('A' for Active; 'I' for Inactive)
REMARK    1  A    between atoms: C_1  and  C_2
REMARK    2  A    between atoms: C_5  and  C_6
REMARK    3  A    between atoms: C_6  and  N_7
REMARK    4  A    between atoms: C_12  and  C_13
REMARK    5  A    between atoms: N_21  and  C_22
REMARK    6  A    between atoms: C_22  and  C_23
REMARK                            x       y       z     vdW  Elec       q    Type
REMARK                         _______ _______ _______ _____ _____    ______ ____
ROOT
ATOM      1  C   UNL     1       1.331  13.107  20.187  0.00  0.00    +0.000 C 
ATOM      2  O   UNL     1       0.941  12.968  21.348  0.00  0.00    +0.000 OA
ATOM      3  N   UNL     1       2.424  13.916  19.851  0.00  0.00    +0.000 N 
ATOM      4  C   UNL     1       3.106  14.524  20.992  0.00  0.00    +0.000 C 
ATOM      5  C   UNL     1       4.181  15.557  20.641  0.00  0.00    +0.000 C 
ATOM      6  C   UNL     1       3.572  16.506  19.621  0.00  0.00    +0.000 C 
ATOM      7  C   UNL     1       3.401  15.711  18.340  0.00  0.00    +0.000 C 
ATOM      8  C   UNL     1       4.708  15.105  17.800  0.00  0.00    +0.000 C 
ATOM      9  N   UNL     1       5.791  14.846  18.734  0.00  0.00    +0.000 NA
ATOM     10  C   UNL     1       5.506  14.922  20.165  0.00  0.00    +0.000 C 
ATOM     11  C   UNL     1       2.344  14.643  18.583  0.00  0.00    +0.000 C 
ENDROOT
BRANCH   1  17
ATOM     12  N   UNL     1       0.044  11.161  19.528  0.00  0.00    +0.000 N 
ATOM     13  C   UNL     1      -1.171  10.945  18.901  0.00  0.00    +0.000 C 
ATOM     14  O   UNL     1      -1.914  10.007  19.070  0.00  0.00    +0.000 OA
ATOM     15  C   UNL     1      -1.356  12.037  17.873  0.00  0.00    +0.000 C 
ATOM     16  C   UNL     1      -0.394  13.121  18.329  0.00  0.00    +0.000 C 
ATOM     17  C   UNL     1       0.709  12.330  19.018  0.00  0.00    +0.000 C 
BRANCH  12  18
ATOM     18  C   UNL     1       0.723  10.197  20.380  0.00  0.00    +0.000 C 
BRANCH  18  23
ATOM     19  C   UNL     1       3.707   6.023  17.609  0.00  0.00    +0.000 C 
ATOM     20  C   UNL     1       2.871   7.075  18.278  0.00  0.00    +0.000 A 
ATOM     21  C   UNL     1       2.547   8.266  17.626  0.00  0.00    +0.000 A 
ATOM     22  C   UNL     1       1.824   9.268  18.286  0.00  0.00    +0.000 A 
ATOM     23  C   UNL     1       1.415   9.094  19.617  0.00  0.00    +0.000 A 
ATOM     24  C   UNL     1       1.701   7.878  20.250  0.00  0.00    +0.000 A 
ATOM     25  C   UNL     1       2.430   6.882  19.595  0.00  0.00    +0.000 A 
ENDBRANCH  18  23
ENDBRANCH  12  18
ENDBRANCH   1  17
BRANCH   9  26
ATOM     26  C   UNL     1       7.084  15.425  18.329  0.00  0.00    +0.000 C 
BRANCH  26  27
ATOM     27  C   UNL     1       8.246  14.437  18.351  0.00  0.00    +0.000 A 
ATOM     28  C   UNL     1       8.177  13.181  17.724  0.00  0.00    +0.000 A 
ATOM     29  C   UNL     1       9.300  12.337  17.689  0.00  0.00    +0.000 A 
ATOM     30  C   UNL     1      10.499  12.753  18.259  0.00  0.00    +0.000 A 
ATOM     31 CL   UNL     1      11.892  11.744  18.175  0.00  0.00    +0.000 Cl
ATOM     32  C   UNL     1      10.583  13.989  18.892  0.00  0.00    +0.000 A 
ATOM     33  C   UNL     1       9.456  14.818  18.954  0.00  0.00    +0.000 A 
ENDBRANCH  26  27
ENDBRANCH   9  26
TORSDOF 5
ENDMDL
MODEL 3
REMARK VINA RESULT:      -6.6      6.125      9.303
REMARK  Name = 
REMARK  6 active torsions:
REMARK  status: ('A' for Active; 'I' for Inactive)
REMARK    1  A    between atoms: C_1  and  C_2
REMARK    2  A    between atoms: C_5  and  C_6
REMARK    3  A    between atoms: C_6  and  N_7
REMARK    4  A    between atoms: C_12  and  C_13
REMARK    5  A    between atoms: N_21  and  C_22
REMARK    6  A    between atoms: C_22  and  C_23
REMARK                            x       y       z     vdW  Elec       q    Type
REMARK                         _______ _______ _______ _____ _____    ______ ____
ROOT
ATOM      1  C   UNL     1       1.081  12.995  20.196  0.00  0.00    +0.000 C 
ATOM      2  O   UNL     1       0.887  12.450  21.284  0.00  0.00    +0.000 OA
ATOM      3  N   UNL     1       2.195  13.806  19.948  0.00  0.00    +0.000 N 
ATOM      4  C   UNL     1       3.144  13.897  21.057  0.00  0.00    +0.000 C 
ATOM      5  C   UNL     1       4.267  14.922  20.879  0.00  0.00    +0.000 C 
ATOM      6  C   UNL     1       3.619  16.220  20.423  0.00  0.00    +0.000 C 
ATOM      7  C   UNL     1       3.120  15.980  19.011  0.00  0.00    +0.000 C 
ATOM      8  C   UNL     1       4.218  15.550  18.023  0.00  0.00    +0.000 C 
ATOM      9  N   UNL     1       5.405  14.894  18.546  0.00  0.00    +0.000 NA
ATOM     10  C   UNL     1       5.391  14.439  19.935  0.00  0.00    +0.000 C 
ATOM     11  C   UNL     1       1.990  14.963  19.073  0.00  0.00    +0.000 C 
ENDROOT
BRANCH   1  17
ATOM     12  N   UNL     1       0.273  11.382  18.577  0.00  0.00    +0.000 N 
ATOM     13  C   UNL     1      -0.960  10.844  18.247  0.00  0.00    +0.000 C 
ATOM     14  O   UNL     1      -1.170   9.740  17.803  0.00  0.00    +0.000 OA
ATOM     15  C   UNL     1      -1.996  11.928  18.431  0.00  0.00    +0.000 C 
ATOM     16  C   UNL     1      -1.306  12.928  19.343  0.00  0.00    +0.000 C 
ATOM     17  C   UNL     1       0.164  12.756  18.988  0.00  0.00    +0.000 C 
BRANCH  12  18
ATOM     18  C   UNL     1       1.556  10.764  18.279  0.00  0.00    +0.000 C 
BRANCH  18  23
ATOM     19  C   UNL     1       2.358   5.410  20.446  0.00  0.00    +0.000 C 
ATOM     20  C   UNL     1       2.083   6.760  19.848  0.00  0.00    +0.000 A 
ATOM     21  C   UNL     1       2.387   7.036  18.515  0.00  0.00    +0.000 A 
ATOM     22  C   UNL     1       2.189   8.319  17.988  0.00  0.00    +0.000 A 
ATOM     23  C   UNL     1       1.683   9.352  18.794  0.00  0.00    +0.000 A 
ATOM     24  C   UNL     1       1.335   9.055  20.117  0.00  0.00    +0.000 A 
ATOM     25  C   UNL     1       1.541   7.778  20.645  0.00  0.00    +0.000 A 
ENDBRANCH  18  23
ENDBRANCH  12  18
ENDBRANCH   1  17
BRANCH   9  26
ATOM     26  C   UNL     1       6.671  15.508  18.110  0.00  0.00    +0.000 C 
BRANCH  26  27
ATOM     27  C   UNL     1       7.878  14.579  18.190  0.00  0.00    +0.000 A 
ATOM     28  C   UNL     1       7.908  13.330  17.546  0.00  0.00    +0.000 A 
ATOM     29  C   UNL     1       9.072  12.543  17.569  0.00  0.00    +0.000 A 
ATOM     30  C   UNL     1      10.213  13.009  18.215  0.00  0.00    +0.000 A 
ATOM     31 CL   UNL     1      11.657  12.071  18.203  0.00  0.00    +0.000 Cl
ATOM     32  C   UNL     1      10.197  14.238  18.866  0.00  0.00    +0.000 A 
ATOM     33  C   UNL     1       9.029  15.009  18.870  0.00  0.00    +0.000 A 
ENDBRANCH  26  27
ENDBRANCH   9  26
TORSDOF 5
ENDMDL
MODEL 4
REMARK VINA RESULT:      -6.5      5.674      8.848
REMARK  Name = 
REMARK  6 active torsions:
REMARK  status: ('A' for Active; 'I' for Inactive)
REMARK    1  A    between atoms: C_1  and  C_2
REMARK    2  A    between atoms: C_5  and  C_6
REMARK    3  A    between atoms: C_6  and  N_7
REMARK    4  A    between atoms: C_12  and  C_13
REMARK    5  A    between atoms: N_21  and  C_22
REMARK    6  A    between atoms: C_22  and  C_23
REMARK                            x       y       z     vdW  Elec       q    Type
REMARK                         _______ _______ _______ _____ _____    ______ ____
ROOT
ATOM      1  C   UNL     1       0.417  12.866  20.328  0.00  0.00    +0.000 C 
ATOM      2  O   UNL     1       0.225  12.261  21.384  0.00  0.00    +0.000 OA
ATOM      3  N   UNL     1       1.505  13.728  20.142  0.00  0.00    +0.000 N 
ATOM      4  C   UNL     1       2.431  13.796  21.271  0.00  0.00    +0.000 C 
ATOM      5  C   UNL     1       3.520  14.868  21.165  0.00  0.00    +0.000 C 
ATOM      6  C   UNL     1       2.833  16.164  20.762  0.00  0.00    +0.000 C 
ATOM      7  C   UNL     1       2.366  15.978  19.331  0.00  0.00    +0.000 C 
ATOM      8  C   UNL     1       3.496  15.637  18.344  0.00  0.00    +0.000 C 
ATOM      9  N   UNL     1       4.697  14.998  18.856  0.00  0.00    +0.000 NA
ATOM     10  C   UNL     1       4.676  14.473  20.219  0.00  0.00    +0.000 C 
ATOM     11  C   UNL     1       1.273  14.919  19.322  0.00  0.00    +0.000 C 
ENDROOT
BRANCH   1  17
ATOM     12  N   UNL     1      -0.193  11.363  18.527  0.00  0.00    +0.000 N 
ATOM     13  C   UNL     1      -1.351  10.718  18.127  0.00  0.00    +0.000 C 
ATOM     14  O   UNL     1      -1.424   9.655  17.557  0.00  0.00    +0.000 OA
ATOM     15  C   UNL     1      -2.513  11.636  18.426  0.00  0.00    +0.000 C 
ATOM     16  C   UNL     1      -1.948  12.601  19.453  0.00  0.00    +0.000 C 
ATOM     17  C   UNL     1      -0.470  12.656  19.093  0.00  0.00    +0.000 C 
BRANCH  12  18
ATOM     18  C   UNL     1       1.156  10.949  18.171  0.00  0.00    +0.000 C 
BRANCH  18  23
ATOM     19  C   UNL     1       2.770   5.676  20.065  0.00  0.00    +0.000 C 
ATOM     20  C   UNL     1       2.290   6.997  19.537  0.00  0.00    +0.000 A 
ATOM     21  C   UNL     1       2.527   7.377  18.216  0.00  0.00    +0.000 A 
ATOM     22  C   UNL     1       2.134   8.640  17.754  0.00  0.00    +0.000 A 
ATOM     23  C   UNL     1       1.498   9.548  18.615  0.00  0.00    +0.000 A 
ATOM     24  C   UNL     1       1.220   9.142  19.926  0.00  0.00    +0.000 A 
ATOM     25  C   UNL     1       1.620   7.887  20.388  0.00  0.00    +0.000 A 
ENDBRANCH  18  23
ENDBRANCH  12  18
ENDBRANCH   1  17
BRANCH   9  26
ATOM     26  C   UNL     1       5.947  15.677  18.474  0.00  0.00    +0.000 C 
BRANCH  26  27
ATOM     27  C   UNL     1       7.163  14.759  18.405  0.00  0.00    +0.000 A 
ATOM     28  C   UNL     1       8.233  14.861  19.310  0.00  0.00    +0.000 A 
ATOM     29  C   UNL     1       9.293  13.940  19.270  0.00  0.00    +0.000 A 
ATOM     30  C   UNL     1       9.276  12.902  18.343  0.00  0.00    +0.000 A 
ATOM     31 CL   UNL     1      10.547  11.740  18.323  0.00  0.00    +0.000 Cl
ATOM     32  C   UNL     1       8.230  12.792  17.434  0.00  0.00    +0.000 A 
ATOM     33  C   UNL     1       7.189  13.727  17.453  0.00  0.00    +0.000 A 
ENDBRANCH  26  27
ENDBRANCH   9  26
TORSDOF 5
ENDMDL
MODEL 5
REMARK VINA RESULT:      -6.4      5.453      8.504
REMARK  Name = 
REMARK  6 active torsions:
REMARK  status: ('A' for Active; 'I' for Inactive)
REMARK    1  A    between atoms: C_1  and  C_2
REMARK    2  A    between atoms: C_5  and  C_6
REMARK    3  A    between atoms: C_6  and  N_7
REMARK    4  A    between atoms: C_12  and  C_13
REMARK    5  A    between atoms: N_21  and  C_22
REMARK    6  A    between atoms: C_22  and  C_23
REMARK                            x       y       z     vdW  Elec       q    Type
REMARK                         _______ _______ _______ _____ _____    ______ ____
ROOT
ATOM      1  C   UNL     1      -0.171  12.910  20.355  0.00  0.00    +0.000 C 
ATOM      2  O   UNL     1      -0.425  12.337  21.416  0.00  0.00    +0.000 OA
ATOM      3  N   UNL     1       0.911  13.789  20.214  0.00  0.00    +0.000 N 
ATOM      4  C   UNL     1       1.753  13.916  21.402  0.00  0.00    +0.000 C 
ATOM      5  C   UNL     1       2.825  15.007  21.334  0.00  0.00    +0.000 C 
ATOM      6  C   UNL     1       2.143  16.273  20.838  0.00  0.00    +0.000 C 
ATOM      7  C   UNL     1       1.782  16.028  19.386  0.00  0.00    +0.000 C 
ATOM      8  C   UNL     1       2.985  15.679  18.493  0.00  0.00    +0.000 C 
ATOM      9  N   UNL     1       4.159  15.084  19.110  0.00  0.00    +0.000 NA
ATOM     10  C   UNL     1       4.052  14.606  20.486  0.00  0.00    +0.000 C 
ATOM     11  C   UNL     1       0.714  14.945  19.338  0.00  0.00    +0.000 C 
ENDROOT
BRANCH   1  17
ATOM     12  N   UNL     1      -0.524  11.394  18.497  0.00  0.00    +0.000 N 
ATOM     13  C   UNL     1      -1.585  10.642  18.022  0.00  0.00    +0.000 C 
ATOM     14  O   UNL     1      -1.516   9.591  17.430  0.00  0.00    +0.000 OA
ATOM     15  C   UNL     1      -2.851  11.427  18.273  0.00  0.00    +0.000 C 
ATOM     16  C   UNL     1      -2.445  12.422  19.346  0.00  0.00    +0.000 C 
ATOM     17  C   UNL     1      -0.964  12.638  19.070  0.00  0.00    +0.000 C 
BRANCH  12  18
ATOM     18  C   UNL     1       0.878  11.130  18.208  0.00  0.00    +0.000 C 
BRANCH  18  23
ATOM     19  C   UNL     1       2.476   5.838  20.064  0.00  0.00    +0.000 C 
ATOM     20  C   UNL     1       2.130   7.233  19.629  0.00  0.00    +0.000 A 
ATOM     21  C   UNL     1       1.500   8.127  20.496  0.00  0.00    +0.000 A 
ATOM     22  C   UNL     1       1.121   9.402  20.056  0.00  0.00    +0.000 A 
ATOM     23  C   UNL     1       1.365   9.802  18.733  0.00  0.00    +0.000 A 
ATOM     24  C   UNL     1       2.040   8.919  17.882  0.00  0.00    +0.000 A 
ATOM     25  C   UNL     1       2.410   7.644  18.318  0.00  0.00    +0.000 A 
ENDBRANCH  18  23
ENDBRANCH  12  18
ENDBRANCH   1  17
BRANCH   9  26
ATOM     26  C   UNL     1       5.419  15.778  18.792  0.00  0.00    +0.000 C 
BRANCH  26  27
ATOM     27  C   UNL     1       6.622  14.852  18.637  0.00  0.00    +0.000 A 
ATOM     28  C   UNL     1       6.744  13.952  17.564  0.00  0.00    +0.000 A 
ATOM     29  C   UNL     1       7.908  13.181  17.408  0.00  0.00    +0.000 A 
ATOM     30  C   UNL     1       8.960  13.321  18.307  0.00  0.00    +0.000 A 
ATOM     31 CL   UNL     1      10.409  12.415  18.092  0.00  0.00    +0.000 Cl
ATOM     32  C   UNL     1       8.852  14.199  19.381  0.00  0.00    +0.000 A 
ATOM     33  C   UNL     1       7.681  14.946  19.555  0.00  0.00    +0.000 A 
ENDBRANCH  26  27
ENDBRANCH   9  26
TORSDOF 5
ENDMDL
MODEL 6
REMARK VINA RESULT:      -6.4      5.346     10.295
REMARK  Name = 
REMARK  6 active torsions:
REMARK  status: ('A' for Active; 'I' for Inactive)
REMARK    1  A    between atoms: C_1  and  C_2
REMARK    2  A    between atoms: C_5  and  C_6
REMARK    3  A    between atoms: C_6  and  N_7
REMARK    4  A    between atoms: C_12  and  C_13
REMARK    5  A    between atoms: N_21  and  C_22
REMARK    6  A    between atoms: C_22  and  C_23
REMARK                            x       y       z     vdW  Elec       q    Type
REMARK                         _______ _______ _______ _____ _____    ______ ____
ROOT
ATOM      1  C   UNL     1       1.064   9.093  19.639  0.00  0.00    +0.000 C 
ATOM      2  O   UNL     1       0.568   9.877  18.827  0.00  0.00    +0.000 OA
ATOM      3  N   UNL     1       1.889   8.030  19.253  0.00  0.00    +0.000 N 
ATOM      4  C   UNL     1       2.174   7.967  17.820  0.00  0.00    +0.000 C 
ATOM      5  C   UNL     1       2.915   6.712  17.351  0.00  0.00    +0.000 C 
ATOM      6  C   UNL     1       2.201   5.517  17.962  0.00  0.00    +0.000 C 
ATOM      7  C   UNL     1       2.475   5.565  19.452  0.00  0.00    +0.000 C 
ATOM      8  C   UNL     1       3.970   5.541  19.814  0.00  0.00    +0.000 C 
ATOM      9  N   UNL     1       4.930   6.022  18.834  0.00  0.00    +0.000 NA
ATOM     10  C   UNL     1       4.427   6.742  17.667  0.00  0.00    +0.000 C 
ATOM     11  C   UNL     1       1.777   6.790  20.024  0.00  0.00    +0.000 C 
ENDROOT
BRANCH   1  17
ATOM     12  N   UNL     1       0.761  10.672  21.454  0.00  0.00    +0.000 N 
ATOM     13  C   UNL     1      -0.214  10.904  22.410  0.00  0.00    +0.000 C 
ATOM     14  O   UNL     1      -0.496  11.968  22.909  0.00  0.00    +0.000 OA
ATOM     15  C   UNL     1      -0.789   9.565  22.812  0.00  0.00    +0.000 C 
ATOM     16  C   UNL     1      -0.403   8.653  21.660  0.00  0.00    +0.000 C 
ATOM     17  C   UNL     1       0.893   9.271  21.154  0.00  0.00    +0.000 C 
BRANCH  12  18
ATOM     18  C   UNL     1       1.738  11.652  21.007  0.00  0.00    +0.000 C 
BRANCH  18  23
ATOM     19  C   UNL     1      -0.432  16.486  18.574  0.00  0.00    +0.000 C 
ATOM     20  C   UNL     1       0.080  15.257  19.268  0.00  0.00    +0.000 A 
ATOM     21  C   UNL     1       1.040  15.343  20.277  0.00  0.00    +0.000 A 
ATOM     22  C   UNL     1       1.558  14.184  20.870  0.00  0.00    +0.000 A 
ATOM     23  C   UNL     1       1.123  12.915  20.456  0.00  0.00    +0.000 A 
ATOM     24  C   UNL     1       0.125  12.838  19.478  0.00  0.00    +0.000 A 
ATOM     25  C   UNL     1      -0.385  13.993  18.881  0.00  0.00    +0.000 A 
ENDBRANCH  18  23
ENDBRANCH  12  18
ENDBRANCH   1  17
BRANCH   9  26
ATOM     26  C   UNL     1       6.025   5.077  18.554  0.00  0.00    +0.000 C 
BRANCH  26  27
ATOM     27  C   UNL     1       6.101   4.621  17.100  0.00  0.00    +0.000 A 
ATOM     28  C   UNL     1       5.146   3.762  16.531  0.00  0.00    +0.000 A 
ATOM     29  C   UNL     1       5.201   3.437  15.166  0.00  0.00    +0.000 A 
ATOM     30  C   UNL     1       6.195   3.984  14.361  0.00  0.00    +0.000 A 
ATOM     31 CL   UNL     1       6.238   3.629  12.676  0.00  0.00    +0.000 Cl
ATOM     32  C   UNL     1       7.155   4.828  14.910  0.00  0.00    +0.000 A 
ATOM     33  C   UNL     1       7.120   5.129  16.276  0.00  0.00    +0.000 A 
ENDBRANCH  26  27
ENDBRANCH   9  26
TORSDOF 5
ENDMDL
MODEL 7
REMARK VINA RESULT:      -6.3      5.070      8.087
REMARK  Name = 
REMARK  6 active torsions:
REMARK  status: ('A' for Active; 'I' for Inactive)
REMARK    1  A    between atoms: C_1  and  C_2
REMARK    2  A    between atoms: C_5  and  C_6
REMARK    3  A    between atoms: C_6  and  N_7
REMARK    4  A    between atoms: C_12  and  C_13
REMARK    5  A    between atoms: N_21  and  C_22
REMARK    6  A    between atoms: C_22  and  C_23
REMARK                            x       y       z     vdW  Elec       q    Type
REMARK                         _______ _______ _______ _____ _____    ______ ____
ROOT
ATOM      1  C   UNL     1      -0.840  12.683  20.379  0.00  0.00    +0.000 C 
ATOM      2  O   UNL     1      -1.170  12.020  21.364  0.00  0.00    +0.000 OA
ATOM      3  N   UNL     1       0.182  13.639  20.422  0.00  0.00    +0.000 N 
ATOM      4  C   UNL     1       0.872  13.738  21.707  0.00  0.00    +0.000 C 
ATOM      5  C   UNL     1       1.861  14.900  21.836  0.00  0.00    +0.000 C 
ATOM      6  C   UNL     1       1.148  16.149  21.342  0.00  0.00    +0.000 C 
ATOM      7  C   UNL     1       0.974  15.984  19.845  0.00  0.00    +0.000 C 
ATOM      8  C   UNL     1       2.293  15.780  19.080  0.00  0.00    +0.000 C 
ATOM      9  N   UNL     1       3.430  15.223  19.794  0.00  0.00    +0.000 NA
ATOM     10  C   UNL     1       3.203  14.643  21.115  0.00  0.00    +0.000 C 
ATOM     11  C   UNL     1       0.001  14.839  19.603  0.00  0.00    +0.000 C 
ENDROOT
BRANCH   1  17
ATOM     12  N   UNL     1      -0.857  11.289  18.396  0.00  0.00    +0.000 N 
ATOM     13  C   UNL     1      -1.794  10.498  17.751  0.00  0.00    +0.000 C 
ATOM     14  O   UNL     1      -1.573   9.502  17.103  0.00  0.00    +0.000 OA
ATOM     15  C   UNL     1      -3.140  11.167  17.903  0.00  0.00    +0.000 C 
ATOM     16  C   UNL     1      -2.939  12.105  19.080  0.00  0.00    +0.000 C 
ATOM     17  C   UNL     1      -1.459  12.450  18.994  0.00  0.00    +0.000 C 
BRANCH  12  18
ATOM     18  C   UNL     1       0.585  11.151  18.257  0.00  0.00    +0.000 C 
BRANCH  18  23
ATOM     19  C   UNL     1       2.888   6.073  19.963  0.00  0.00    +0.000 C 
ATOM     20  C   UNL     1       2.232   7.338  19.487  0.00  0.00    +0.000 A 
ATOM     21  C   UNL     1       2.333   7.749  18.158  0.00  0.00    +0.000 A 
ATOM     22  C   UNL     1       1.775   8.965  17.742  0.00  0.00    +0.000 A 
ATOM     23  C   UNL     1       1.106   9.793  18.657  0.00  0.00    +0.000 A 
ATOM     24  C   UNL     1       0.966   9.352  19.978  0.00  0.00    +0.000 A 
ATOM     25  C   UNL     1       1.531   8.144  20.395  0.00  0.00    +0.000 A 
ENDBRANCH  18  23
ENDBRANCH  12  18
ENDBRANCH   1  17
BRANCH   9  26
ATOM     26  C   UNL     1       4.663  16.019  19.671  0.00  0.00    +0.000 C 
BRANCH  26  27
ATOM     27  C   UNL     1       5.881  15.222  19.214  0.00  0.00    +0.000 A 
ATOM     28  C   UNL     1       5.987  14.690  17.918  0.00  0.00    +0.000 A 
ATOM     29  C   UNL     1       7.162  14.039  17.506  0.00  0.00    +0.000 A 
ATOM     30  C   UNL     1       8.241  13.937  18.379  0.00  0.00    +0.000 A 
ATOM     31 CL   UNL     1       9.702  13.185  17.864  0.00  0.00    +0.000 Cl
ATOM     32  C   UNL     1       8.150  14.448  19.669  0.00  0.00    +0.000 A 
ATOM     33  C   UNL     1       6.968  15.070  20.090  0.00  0.00    +0.000 A 
ENDBRANCH  26  27
ENDBRANCH   9  26
TORSDOF 5
ENDMDL
MODEL 8
REMARK VINA RESULT:      -6.0      9.827     12.667
REMARK  Name = 
REMARK  6 active torsions:
REMARK  status: ('A' for Active; 'I' for Inactive)
REMARK    1  A    between atoms: C_1  and  C_2
REMARK    2  A    between atoms: C_5  and  C_6
REMARK    3  A    between atoms: C_6  and  N_7
REMARK    4  A    between atoms: C_12  and  C_13
REMARK    5  A    between atoms: N_21  and  C_22
REMARK    6  A    between atoms: C_22  and  C_23
REMARK                            x       y       z     vdW  Elec       q    Type
REMARK                         _______ _______ _______ _____ _____    ______ ____
ROOT
ATOM      1  C   UNL     1       8.808  13.862  21.404  0.00  0.00    +0.000 C 
ATOM      2  O   UNL     1       9.616  13.992  22.325  0.00  0.00    +0.000 OA
ATOM      3  N   UNL     1       8.987  12.934  20.371  0.00  0.00    +0.000 N 
ATOM      4  C   UNL     1      10.169  12.084  20.511  0.00  0.00    +0.000 C 
ATOM      5  C   UNL     1      10.487  11.195  19.305  0.00  0.00    +0.000 C 
ATOM      6  C   UNL     1      10.420  12.079  18.069  0.00  0.00    +0.000 C 
ATOM      7  C   UNL     1       8.960  12.442  17.877  0.00  0.00    +0.000 C 
ATOM      8  C   UNL     1       8.028  11.228  17.723  0.00  0.00    +0.000 C 
ATOM      9  N   UNL     1       8.441   9.958  18.297  0.00  0.00    +0.000 NA
ATOM     10  C   UNL     1       9.581   9.948  19.210  0.00  0.00    +0.000 C 
ATOM     11  C   UNL     1       8.536  13.333  19.036  0.00  0.00    +0.000 C 
ENDROOT
BRANCH   1  17
ATOM     12  N   UNL     1       6.668  14.252  22.474  0.00  0.00    +0.000 N 
ATOM     13  C   UNL     1       6.037  15.339  23.056  0.00  0.00    +0.000 C 
ATOM     14  O   UNL     1       5.237  15.309  23.960  0.00  0.00    +0.000 OA
ATOM     15  C   UNL     1       6.438  16.571  22.278  0.00  0.00    +0.000 C 
ATOM     16  C   UNL     1       7.700  16.138  21.553  0.00  0.00    +0.000 C 
ATOM     17  C   UNL     1       7.488  14.643  21.358  0.00  0.00    +0.000 C 
BRANCH  12  18
ATOM     18  C   UNL     1       6.342  12.860  22.742  0.00  0.00    +0.000 C 
BRANCH  18  23
ATOM     19  C   UNL     1       7.045  11.450  28.356  0.00  0.00    +0.000 C 
ATOM     20  C   UNL     1       6.931  11.765  26.892  0.00  0.00    +0.000 A 
ATOM     21  C   UNL     1       7.789  12.679  26.279  0.00  0.00    +0.000 A 
ATOM     22  C   UNL     1       7.628  13.015  24.929  0.00  0.00    +0.000 A 
ATOM     23  C   UNL     1       6.597  12.440  24.168  0.00  0.00    +0.000 A 
ATOM     24  C   UNL     1       5.771  11.488  24.777  0.00  0.00    +0.000 A 
ATOM     25  C   UNL     1       5.925  11.160  26.126  0.00  0.00    +0.000 A 
ENDBRANCH  18  23
ENDBRANCH  12  18
ENDBRANCH   1  17
BRANCH   9  26
ATOM     26  C   UNL     1       8.396   8.830  17.351  0.00  0.00    +0.000 C 
BRANCH  26  27
ATOM     27  C   UNL     1       7.529   7.662  17.810  0.00  0.00    +0.000 A 
ATOM     28  C   UNL     1       6.257   7.411  17.267  0.00  0.00    +0.000 A 
ATOM     29  C   UNL     1       5.527   6.274  17.652  0.00  0.00    +0.000 A 
ATOM     30  C   UNL     1       6.074   5.373  18.561  0.00  0.00    +0.000 A 
ATOM     31 CL   UNL     1       5.206   3.952  18.998  0.00  0.00    +0.000 Cl
ATOM     32  C   UNL     1       7.327   5.611  19.116  0.00  0.00    +0.000 A 
ATOM     33  C   UNL     1       8.042   6.759  18.756  0.00  0.00    +0.000 A 
ENDBRANCH  26  27
ENDBRANCH   9  26
TORSDOF 5
ENDMDL
MODEL 9
REMARK VINA RESULT:      -6.0      3.775      7.851
REMARK  Name = 
REMARK  6 active torsions:
REMARK  status: ('A' for Active; 'I' for Inactive)
REMARK    1  A    between atoms: C_1  and  C_2
REMARK    2  A    between atoms: C_5  and  C_6
REMARK    3  A    between atoms: C_6  and  N_7
REMARK    4  A    between atoms: C_12  and  C_13
REMARK    5  A    between atoms: N_21  and  C_22
REMARK    6  A    between atoms: C_22  and  C_23
REMARK                            x       y       z     vdW  Elec       q    Type
REMARK                         _______ _______ _______ _____ _____    ______ ____
ROOT
ATOM      1  C   UNL     1      -2.797  12.706  21.376  0.00  0.00    +0.000 C 
ATOM      2  O   UNL     1      -3.244  12.455  22.497  0.00  0.00    +0.000 OA
ATOM      3  N   UNL     1      -1.582  12.183  20.915  0.00  0.00    +0.000 N 
ATOM      4  C   UNL     1      -0.925  11.260  21.839  0.00  0.00    +0.000 C 
ATOM      5  C   UNL     1       0.488  10.825  21.440  0.00  0.00    +0.000 C 
ATOM      6  C   UNL     1       1.254  12.084  21.065  0.00  0.00    +0.000 C 
ATOM      7  C   UNL     1       0.650  12.588  19.769  0.00  0.00    +0.000 C 
ATOM      8  C   UNL     1       0.695  11.568  18.619  0.00  0.00    +0.000 C 
ATOM      9  N   UNL     1       0.754  10.152  18.947  0.00  0.00    +0.000 NA
ATOM     10  C   UNL     1       0.505   9.751  20.329  0.00  0.00    +0.000 C 
ATOM     11  C   UNL     1      -0.772  13.048  20.056  0.00  0.00    +0.000 C 
ENDROOT
BRANCH   1  17
ATOM     12  N   UNL     1      -4.852  12.916  20.107  0.00  0.00    +0.000 N 
ATOM     13  C   UNL     1      -5.875  13.847  20.030  0.00  0.00    +0.000 C 
ATOM     14  O   UNL     1      -7.033  13.625  19.764  0.00  0.00    +0.000 OA
ATOM     15  C   UNL     1      -5.265  15.215  20.222  0.00  0.00    +0.000 C 
ATOM     16  C   UNL     1      -3.934  14.920  20.891  0.00  0.00    +0.000 C 
ATOM     17  C   UNL     1      -3.579  13.541  20.353  0.00  0.00    +0.000 C 
BRANCH  12  18
ATOM     18  C   UNL     1      -4.964  11.522  19.708  0.00  0.00    +0.000 C 
BRANCH  18  23
ATOM     19  C   UNL     1      -2.897  10.135  14.435  0.00  0.00    +0.000 C 
ATOM     20  C   UNL     1      -3.364  10.545  15.802  0.00  0.00    +0.000 A 
ATOM     21  C   UNL     1      -2.745  10.060  16.954  0.00  0.00    +0.000 A 
ATOM     22  C   UNL     1      -3.234  10.397  18.223  0.00  0.00    +0.000 A 
ATOM     23  C   UNL     1      -4.359  11.227  18.358  0.00  0.00    +0.000 A 
ATOM     24  C   UNL     1      -4.945  11.748  17.199  0.00  0.00    +0.000 A 
ATOM     25  C   UNL     1      -4.464  11.405  15.934  0.00  0.00    +0.000 A 
ENDBRANCH  18  23
ENDBRANCH  12  18
ENDBRANCH   1  17
BRANCH   9  26
ATOM     26  C   UNL     1       1.849   9.427  18.280  0.00  0.00    +0.000 C 
BRANCH  26  27
ATOM     27  C   UNL     1       2.039   7.994  18.767  0.00  0.00    +0.000 A 
ATOM     28  C   UNL     1       1.906   7.637  20.119  0.00  0.00    +0.000 A 
ATOM     29  C   UNL     1       2.000   6.292  20.516  0.00  0.00    +0.000 A 
ATOM     30  C   UNL     1       2.205   5.300  19.562  0.00  0.00    +0.000 A 
ATOM     31 CL   UNL     1       2.270   3.645  20.035  0.00  0.00    +0.000 Cl
ATOM     32  C   UNL     1       2.349   5.637  18.220  0.00  0.00    +0.000 A 
ATOM     33  C   UNL     1       2.286   6.979  17.828  0.00  0.00    +0.000 A 
ENDBRANCH  26  27
ENDBRANCH   9  26
TORSDOF 5
ENDMDL
