MODEL 1
REMARK VINA RESULT:      -7.5      0.000      0.000
REMARK  Name = 
REMARK  2 active torsions:
REMARK  status: ('A' for Active; 'I' for Inactive)
REMARK    1  A    between atoms: C_2  and  C_3
REMARK    2  A    between atoms: C_3  and  C_4
REMARK                            x       y       z     vdW  Elec       q    Type
REMARK                         _______ _______ _______ _____ _____    ______ ____
ROOT
ATOM      1  O   UNL     1       2.768   7.940  17.713  0.00  0.00    +0.000 OA
ATOM      2  C   UNL     1       2.396   7.693  18.865  0.00  0.00    +0.000 C 
ATOM      3  N   UNL     1       1.428   8.459  19.494  0.00  0.00    +0.000 N 
ATOM      4  C   UNL     1       0.953   8.302  20.873  0.00  0.00    +0.000 C 
ATOM      5  C   UNL     1       1.273   9.550  21.713  0.00  0.00    +0.000 C 
ATOM      6  N   UNL     1       0.747  10.750  21.049  0.00  0.00    +0.000 N 
ATOM      7  C   UNL     1      -0.192  11.581  21.632  0.00  0.00    +0.000 A 
ATOM      8  N   UNL     1      -0.588  11.307  22.944  0.00  0.00    +0.000 NA
ATOM      9  N   UNL     1      -1.427  12.026  23.543  0.00  0.00    +0.000 NA
ATOM     10  C   UNL     1      -1.967  13.079  22.896  0.00  0.00    +0.000 A 
ATOM     11  N   UNL     1      -2.858  13.989  23.240  0.00  0.00    +0.000 NA
ATOM     12  N   UNL     1      -3.049  14.827  22.157  0.00  0.00    +0.000 NA
ATOM     13  C   UNL     1      -2.267  14.400  21.190  0.00  0.00    +0.000 A 
ATOM     14  N   UNL     1      -1.566  13.311  21.612  0.00  0.00    +0.000 N 
ATOM     15  N   UNL     1      -0.668  12.580  20.929  0.00  0.00    +0.000 NA
ATOM     16  C   UNL     1       1.232  10.929  19.667  0.00  0.00    +0.000 C 
ATOM     17  C   UNL     1       0.925   9.672  18.828  0.00  0.00    +0.000 C 
ENDROOT
BRANCH   2  18
ATOM     18  C   UNL     1       3.034   6.539  19.629  0.00  0.00    +0.000 C 
BRANCH  18  19
ATOM     19  C   UNL     1       2.256   5.250  19.489  0.00  0.00    +0.000 A 
ATOM     20  C   UNL     1       1.646   4.647  20.596  0.00  0.00    +0.000 A 
ATOM     21  C   UNL     1       0.937   3.452  20.452  0.00  0.00    +0.000 A 
ATOM     22  C   UNL     1       0.822   2.853  19.200  0.00  0.00    +0.000 A 
ATOM     23  C   UNL     1       1.412   3.449  18.088  0.00  0.00    +0.000 A 
ATOM     24  C   UNL     1       2.125   4.641  18.230  0.00  0.00    +0.000 A 
ENDBRANCH  18  19
ENDBRANCH   2  18
TORSDOF 2
ENDMDL
MODEL 2
REMARK VINA RESULT:      -7.4      0.294      1.010
REMARK  Name = 
REMARK  2 active torsions:
REMARK  status: ('A' for Active; 'I' for Inactive)
REMARK    1  A    between atoms: C_2  and  C_3
REMARK    2  A    between atoms: C_3  and  C_4
REMARK                            x       y       z     vdW  Elec       q    Type
REMARK                         _______ _______ _______ _____ _____    ______ ____
ROOT
ATOM      1  O   UNL     1       2.861   7.776  17.747  0.00  0.00    +0.000 OA
ATOM      2  C   UNL     1       2.446   7.564  18.893  0.00  0.00    +0.000 C 
ATOM      3  N   UNL     1       1.493   8.378  19.480  0.00  0.00    +0.000 N 
ATOM      4  C   UNL     1       0.974   8.264  20.848  0.00  0.00    +0.000 C 
ATOM      5  C   UNL     1       1.319   9.512  21.677  0.00  0.00    +0.000 C 
ATOM      6  N   UNL     1       0.861  10.721  20.978  0.00  0.00    +0.000 N 
ATOM      7  C   UNL     1      -0.061  11.598  21.521  0.00  0.00    +0.000 A 
ATOM      8  N   UNL     1      -0.504  11.363  22.825  0.00  0.00    +0.000 NA
ATOM      9  N   UNL     1      -1.330  12.124  23.387  0.00  0.00    +0.000 NA
ATOM     10  C   UNL     1      -1.809  13.186  22.709  0.00  0.00    +0.000 A 
ATOM     11  N   UNL     1      -2.672  14.136  23.013  0.00  0.00    +0.000 NA
ATOM     12  N   UNL     1      -2.799  14.962  21.911  0.00  0.00    +0.000 NA
ATOM     13  C   UNL     1      -2.008  14.489  20.974  0.00  0.00    +0.000 A 
ATOM     14  N   UNL     1      -1.364  13.380  21.433  0.00  0.00    +0.000 N 
ATOM     15  N   UNL     1      -0.476  12.602  20.788  0.00  0.00    +0.000 NA
ATOM     16  C   UNL     1       1.391  10.856  19.608  0.00  0.00    +0.000 C 
ATOM     17  C   UNL     1       1.057   9.598  18.781  0.00  0.00    +0.000 C 
ENDROOT
BRANCH   2  18
ATOM     18  C   UNL     1       3.016   6.399  19.693  0.00  0.00    +0.000 C 
BRANCH  18  19
ATOM     19  C   UNL     1       2.332   5.089  19.377  0.00  0.00    +0.000 A 
ATOM     20  C   UNL     1       2.558   4.427  18.162  0.00  0.00    +0.000 A 
ATOM     21  C   UNL     1       1.913   3.220  17.880  0.00  0.00    +0.000 A 
ATOM     22  C   UNL     1       1.043   2.658  18.812  0.00  0.00    +0.000 A 
ATOM     23  C   UNL     1       0.820   3.298  20.029  0.00  0.00    +0.000 A 
ATOM     24  C   UNL     1       1.460   4.506  20.310  0.00  0.00    +0.000 A 
ENDBRANCH  18  19
ENDBRANCH   2  18
TORSDOF 2
ENDMDL
MODEL 3
REMARK VINA RESULT:      -7.3      5.483     10.063
REMARK  Name = 
REMARK  2 active torsions:
REMARK  status: ('A' for Active; 'I' for Inactive)
REMARK    1  A    between atoms: C_2  and  C_3
REMARK    2  A    between atoms: C_3  and  C_4
REMARK                            x       y       z     vdW  Elec       q    Type
REMARK                         _______ _______ _______ _____ _____    ______ ____
ROOT
ATOM      1  O   UNL     1       1.034   4.382  19.800  0.00  0.00    +0.000 OA
ATOM      2  C   UNL     1       1.914   5.242  19.681  0.00  0.00    +0.000 C 
ATOM      3  N   UNL     1       2.658   5.361  18.518  0.00  0.00    +0.000 N 
ATOM      4  C   UNL     1       3.764   6.296  18.284  0.00  0.00    +0.000 C 
ATOM      5  C   UNL     1       5.082   5.543  18.041  0.00  0.00    +0.000 C 
ATOM      6  N   UNL     1       4.908   4.563  16.960  0.00  0.00    +0.000 N 
ATOM      7  C   UNL     1       5.643   4.599  15.788  0.00  0.00    +0.000 A 
ATOM      8  N   UNL     1       6.651   5.560  15.673  0.00  0.00    +0.000 NA
ATOM      9  N   UNL     1       7.367   5.644  14.644  0.00  0.00    +0.000 NA
ATOM     10  C   UNL     1       7.146   4.793  13.621  0.00  0.00    +0.000 A 
ATOM     11  N   UNL     1       7.705   4.641  12.437  0.00  0.00    +0.000 NA
ATOM     12  N   UNL     1       7.053   3.609  11.788  0.00  0.00    +0.000 NA
ATOM     13  C   UNL     1       6.119   3.165  12.600  0.00  0.00    +0.000 A 
ATOM     14  N   UNL     1       6.146   3.874  13.763  0.00  0.00    +0.000 N 
ATOM     15  N   UNL     1       5.357   3.736  14.844  0.00  0.00    +0.000 NA
ATOM     16  C   UNL     1       3.811   3.606  17.193  0.00  0.00    +0.000 C 
ATOM     17  C   UNL     1       2.491   4.361  17.451  0.00  0.00    +0.000 C 
ENDROOT
BRANCH   2  18
ATOM     18  C   UNL     1       2.213   6.178  20.846  0.00  0.00    +0.000 C 
BRANCH  18  19
ATOM     19  C   UNL     1       1.407   7.455  20.785  0.00  0.00    +0.000 A 
ATOM     20  C   UNL     1       1.647   8.417  19.795  0.00  0.00    +0.000 A 
ATOM     21  C   UNL     1       0.900   9.597  19.755  0.00  0.00    +0.000 A 
ATOM     22  C   UNL     1      -0.101   9.824  20.698  0.00  0.00    +0.000 A 
ATOM     23  C   UNL     1      -0.359   8.869  21.679  0.00  0.00    +0.000 A 
ATOM     24  C   UNL     1       0.389   7.692  21.723  0.00  0.00    +0.000 A 
ENDBRANCH  18  19
ENDBRANCH   2  18
TORSDOF 2
ENDMDL
MODEL 4
REMARK VINA RESULT:      -7.2      3.705      8.926
REMARK  Name = 
REMARK  2 active torsions:
REMARK  status: ('A' for Active; 'I' for Inactive)
REMARK    1  A    between atoms: C_2  and  C_3
REMARK    2  A    between atoms: C_3  and  C_4
REMARK                            x       y       z     vdW  Elec       q    Type
REMARK                         _______ _______ _______ _____ _____    ______ ____
ROOT
ATOM      1  O   UNL     1      -0.305  10.372  18.388  0.00  0.00    +0.000 OA
ATOM      2  C   UNL     1       0.189   9.775  19.351  0.00  0.00    +0.000 C 
ATOM      3  N   UNL     1       1.414   9.136  19.255  0.00  0.00    +0.000 N 
ATOM      4  C   UNL     1       2.069   8.346  20.305  0.00  0.00    +0.000 C 
ATOM      5  C   UNL     1       2.228   6.878  19.874  0.00  0.00    +0.000 C 
ATOM      6  N   UNL     1       2.915   6.808  18.577  0.00  0.00    +0.000 N 
ATOM      7  C   UNL     1       4.122   6.155  18.401  0.00  0.00    +0.000 A 
ATOM      8  N   UNL     1       4.660   5.462  19.489  0.00  0.00    +0.000 NA
ATOM      9  N   UNL     1       5.745   4.836  19.400  0.00  0.00    +0.000 NA
ATOM     10  C   UNL     1       6.412   4.845  18.227  0.00  0.00    +0.000 A 
ATOM     11  N   UNL     1       7.550   4.307  17.833  0.00  0.00    +0.000 NA
ATOM     12  N   UNL     1       7.753   4.665  16.513  0.00  0.00    +0.000 NA
ATOM     13  C   UNL     1       6.731   5.407  16.147  0.00  0.00    +0.000 A 
ATOM     14  N   UNL     1       5.863   5.540  17.189  0.00  0.00    +0.000 N 
ATOM     15  N   UNL     1       4.703   6.219  17.228  0.00  0.00    +0.000 NA
ATOM     16  C   UNL     1       2.256   7.583  17.509  0.00  0.00    +0.000 C 
ATOM     17  C   UNL     1       2.083   9.052  17.946  0.00  0.00    +0.000 C 
ENDROOT
BRANCH   2  18
ATOM     18  C   UNL     1      -0.575   9.710  20.667  0.00  0.00    +0.000 C 
BRANCH  18  19
ATOM     19  C   UNL     1      -0.606  11.040  21.386  0.00  0.00    +0.000 A 
ATOM     20  C   UNL     1      -1.438  11.247  22.493  0.00  0.00    +0.000 A 
ATOM     21  C   UNL     1      -1.462  12.484  23.143  0.00  0.00    +0.000 A 
ATOM     22  C   UNL     1      -0.646  13.523  22.698  0.00  0.00    +0.000 A 
ATOM     23  C   UNL     1       0.196  13.326  21.607  0.00  0.00    +0.000 A 
ATOM     24  C   UNL     1       0.218  12.093  20.954  0.00  0.00    +0.000 A 
ENDBRANCH  18  19
ENDBRANCH   2  18
TORSDOF 2
ENDMDL
MODEL 5
REMARK VINA RESULT:      -7.1      3.732      8.967
REMARK  Name = 
REMARK  2 active torsions:
REMARK  status: ('A' for Active; 'I' for Inactive)
REMARK    1  A    between atoms: C_2  and  C_3
REMARK    2  A    between atoms: C_3  and  C_4
REMARK                            x       y       z     vdW  Elec       q    Type
REMARK                         _______ _______ _______ _____ _____    ______ ____
ROOT
ATOM      1  O   UNL     1      -0.354  10.287  18.246  0.00  0.00    +0.000 OA
ATOM      2  C   UNL     1       0.169   9.775  19.243  0.00  0.00    +0.000 C 
ATOM      3  N   UNL     1       1.404   9.152  19.173  0.00  0.00    +0.000 N 
ATOM      4  C   UNL     1       2.092   8.458  20.268  0.00  0.00    +0.000 C 
ATOM      5  C   UNL     1       2.273   6.965  19.949  0.00  0.00    +0.000 C 
ATOM      6  N   UNL     1       2.938   6.807  18.648  0.00  0.00    +0.000 N 
ATOM      7  C   UNL     1       4.154   6.164  18.500  0.00  0.00    +0.000 A 
ATOM      8  N   UNL     1       4.724   5.567  19.628  0.00  0.00    +0.000 NA
ATOM      9  N   UNL     1       5.819   4.955  19.566  0.00  0.00    +0.000 NA
ATOM     10  C   UNL     1       6.466   4.886  18.385  0.00  0.00    +0.000 A 
ATOM     11  N   UNL     1       7.606   4.340  18.011  0.00  0.00    +0.000 NA
ATOM     12  N   UNL     1       7.780   4.599  16.664  0.00  0.00    +0.000 NA
ATOM     13  C   UNL     1       6.737   5.292  16.262  0.00  0.00    +0.000 A 
ATOM     14  N   UNL     1       5.885   5.489  17.306  0.00  0.00    +0.000 N 
ATOM     15  N   UNL     1       4.713   6.148  17.315  0.00  0.00    +0.000 NA
ATOM     16  C   UNL     1       2.246   7.485  17.537  0.00  0.00    +0.000 C 
ATOM     17  C   UNL     1       2.051   8.980  17.862  0.00  0.00    +0.000 C 
ENDROOT
BRANCH   2  18
ATOM     18  C   UNL     1      -0.571   9.799  20.575  0.00  0.00    +0.000 C 
BRANCH  18  19
ATOM     19  C   UNL     1      -0.519  11.154  21.243  0.00  0.00    +0.000 A 
ATOM     20  C   UNL     1       0.292  12.179  20.740  0.00  0.00    +0.000 A 
ATOM     21  C   UNL     1       0.336  13.424  21.373  0.00  0.00    +0.000 A 
ATOM     22  C   UNL     1      -0.437  13.660  22.507  0.00  0.00    +0.000 A 
ATOM     23  C   UNL     1      -1.259  12.654  23.009  0.00  0.00    +0.000 A 
ATOM     24  C   UNL     1      -1.301  11.408  22.382  0.00  0.00    +0.000 A 
ENDBRANCH  18  19
ENDBRANCH   2  18
TORSDOF 2
ENDMDL
MODEL 6
REMARK VINA RESULT:      -7.0      3.282      8.511
REMARK  Name = 
REMARK  2 active torsions:
REMARK  status: ('A' for Active; 'I' for Inactive)
REMARK    1  A    between atoms: C_2  and  C_3
REMARK    2  A    between atoms: C_3  and  C_4
REMARK                            x       y       z     vdW  Elec       q    Type
REMARK                         _______ _______ _______ _____ _____    ______ ____
ROOT
ATOM      1  O   UNL     1      -1.054  12.218  20.617  0.00  0.00    +0.000 OA
ATOM      2  C   UNL     1      -0.612  11.781  19.549  0.00  0.00    +0.000 C 
ATOM      3  N   UNL     1      -0.263  10.449  19.400  0.00  0.00    +0.000 N 
ATOM      4  C   UNL     1       0.327   9.831  18.207  0.00  0.00    +0.000 C 
ATOM      5  C   UNL     1       1.733   9.283  18.506  0.00  0.00    +0.000 C 
ATOM      6  N   UNL     1       1.683   8.382  19.666  0.00  0.00    +0.000 N 
ATOM      7  C   UNL     1       2.051   7.050  19.598  0.00  0.00    +0.000 A 
ATOM      8  N   UNL     1       2.573   6.572  18.393  0.00  0.00    +0.000 NA
ATOM      9  N   UNL     1       2.940   5.378  18.262  0.00  0.00    +0.000 NA
ATOM     10  C   UNL     1       2.814   4.535  19.307  0.00  0.00    +0.000 A 
ATOM     11  N   UNL     1       3.091   3.257  19.473  0.00  0.00    +0.000 NA
ATOM     12  N   UNL     1       2.735   2.910  20.763  0.00  0.00    +0.000 NA
ATOM     13  C   UNL     1       2.254   3.989  21.340  0.00  0.00    +0.000 A 
ATOM     14  N   UNL     1       2.291   5.033  20.465  0.00  0.00    +0.000 N 
ATOM     15  N   UNL     1       1.891   6.301  20.662  0.00  0.00    +0.000 NA
ATOM     16  C   UNL     1       1.108   8.997  20.877  0.00  0.00    +0.000 C 
ATOM     17  C   UNL     1      -0.296   9.560  20.573  0.00  0.00    +0.000 C 
ENDROOT
BRANCH   2  18
ATOM     18  C   UNL     1      -0.414  12.731  18.374  0.00  0.00    +0.000 C 
BRANCH  18  19
ATOM     19  C   UNL     1       0.810  13.604  18.534  0.00  0.00    +0.000 A 
ATOM     20  C   UNL     1       2.090  13.121  18.233  0.00  0.00    +0.000 A 
ATOM     21  C   UNL     1       3.213  13.937  18.394  0.00  0.00    +0.000 A 
ATOM     22  C   UNL     1       3.066  15.247  18.848  0.00  0.00    +0.000 A 
ATOM     23  C   UNL     1       1.798  15.744  19.137  0.00  0.00    +0.000 A 
ATOM     24  C   UNL     1       0.676  14.929  18.981  0.00  0.00    +0.000 A 
ENDBRANCH  18  19
ENDBRANCH   2  18
TORSDOF 2
ENDMDL
MODEL 7
REMARK VINA RESULT:      -6.9      0.882      1.267
REMARK  Name = 
REMARK  2 active torsions:
REMARK  status: ('A' for Active; 'I' for Inactive)
REMARK    1  A    between atoms: C_2  and  C_3
REMARK    2  A    between atoms: C_3  and  C_4
REMARK                            x       y       z     vdW  Elec       q    Type
REMARK                         _______ _______ _______ _____ _____    ______ ____
ROOT
ATOM      1  O   UNL     1       2.569   8.319  17.418  0.00  0.00    +0.000 OA
ATOM      2  C   UNL     1       2.263   8.067  18.589  0.00  0.00    +0.000 C 
ATOM      3  N   UNL     1       1.311   8.812  19.265  0.00  0.00    +0.000 N 
ATOM      4  C   UNL     1       0.912   8.648  20.668  0.00  0.00    +0.000 C 
ATOM      5  C   UNL     1       1.245   9.905  21.488  0.00  0.00    +0.000 C 
ATOM      6  N   UNL     1       0.658  11.091  20.850  0.00  0.00    +0.000 N 
ATOM      7  C   UNL     1      -0.269  11.901  21.480  0.00  0.00    +0.000 A 
ATOM      8  N   UNL     1      -0.591  11.622  22.811  0.00  0.00    +0.000 NA
ATOM      9  N   UNL     1      -1.414  12.323  23.450  0.00  0.00    +0.000 NA
ATOM     10  C   UNL     1      -2.011  13.361  22.831  0.00  0.00    +0.000 A 
ATOM     11  N   UNL     1      -2.903  14.251  23.219  0.00  0.00    +0.000 NA
ATOM     12  N   UNL     1      -3.169  15.081  22.146  0.00  0.00    +0.000 NA
ATOM     13  C   UNL     1      -2.429  14.671  21.141  0.00  0.00    +0.000 A 
ATOM     14  N   UNL     1      -1.682  13.599  21.527  0.00  0.00    +0.000 N 
ATOM     15  N   UNL     1      -0.803  12.887  20.800  0.00  0.00    +0.000 NA
ATOM     16  C   UNL     1       1.067  11.277  19.445  0.00  0.00    +0.000 C 
ATOM     17  C   UNL     1       0.746  10.011  18.624  0.00  0.00    +0.000 C 
ENDROOT
BRANCH   2  18
ATOM     18  C   UNL     1       2.966   6.930  19.321  0.00  0.00    +0.000 C 
BRANCH  18  19
ATOM     19  C   UNL     1       2.950   5.638  18.536  0.00  0.00    +0.000 A 
ATOM     20  C   UNL     1       1.822   4.807  18.531  0.00  0.00    +0.000 A 
ATOM     21  C   UNL     1       1.825   3.611  17.807  0.00  0.00    +0.000 A 
ATOM     22  C   UNL     1       2.950   3.240  17.074  0.00  0.00    +0.000 A 
ATOM     23  C   UNL     1       4.073   4.064  17.060  0.00  0.00    +0.000 A 
ATOM     24  C   UNL     1       4.074   5.256  17.786  0.00  0.00    +0.000 A 
ENDBRANCH  18  19
ENDBRANCH   2  18
TORSDOF 2
ENDMDL
MODEL 8
REMARK VINA RESULT:      -6.9      1.451      2.302
REMARK  Name = 
REMARK  2 active torsions:
REMARK  status: ('A' for Active; 'I' for Inactive)
REMARK    1  A    between atoms: C_2  and  C_3
REMARK    2  A    between atoms: C_3  and  C_4
REMARK                            x       y       z     vdW  Elec       q    Type
REMARK                         _______ _______ _______ _____ _____    ______ ____
ROOT
ATOM      1  O   UNL     1       2.224   6.045  20.551  0.00  0.00    +0.000 OA
ATOM      2  C   UNL     1       2.134   6.906  19.668  0.00  0.00    +0.000 C 
ATOM      3  N   UNL     1       1.761   8.207  19.960  0.00  0.00    +0.000 N 
ATOM      4  C   UNL     1       1.560   9.293  18.994  0.00  0.00    +0.000 C 
ATOM      5  C   UNL     1       0.100   9.776  19.000  0.00  0.00    +0.000 C 
ATOM      6  N   UNL     1      -0.306  10.129  20.368  0.00  0.00    +0.000 N 
ATOM      7  C   UNL     1      -0.725  11.399  20.722  0.00  0.00    +0.000 A 
ATOM      8  N   UNL     1      -0.847  12.357  19.713  0.00  0.00    +0.000 NA
ATOM      9  N   UNL     1      -1.234  13.526  19.958  0.00  0.00    +0.000 NA
ATOM     10  C   UNL     1      -1.526  13.867  21.230  0.00  0.00    +0.000 A 
ATOM     11  N   UNL     1      -1.934  14.987  21.794  0.00  0.00    +0.000 NA
ATOM     12  N   UNL     1      -2.054  14.760  23.152  0.00  0.00    +0.000 NA
ATOM     13  C   UNL     1      -1.718  13.508  23.370  0.00  0.00    +0.000 A 
ATOM     14  N   UNL     1      -1.385  12.909  22.193  0.00  0.00    +0.000 N 
ATOM     15  N   UNL     1      -0.984  11.643  21.984  0.00  0.00    +0.000 NA
ATOM     16  C   UNL     1      -0.126   9.038  21.345  0.00  0.00    +0.000 C 
ATOM     17  C   UNL     1       1.335   8.544  21.329  0.00  0.00    +0.000 C 
ENDROOT
BRANCH   2  18
ATOM     18  C   UNL     1       2.409   6.525  18.218  0.00  0.00    +0.000 C 
BRANCH  18  19
ATOM     19  C   UNL     1       2.606   5.038  18.037  0.00  0.00    +0.000 A 
ATOM     20  C   UNL     1       1.535   4.144  18.159  0.00  0.00    +0.000 A 
ATOM     21  C   UNL     1       1.734   2.770  17.996  0.00  0.00    +0.000 A 
ATOM     22  C   UNL     1       3.003   2.278  17.701  0.00  0.00    +0.000 A 
ATOM     23  C   UNL     1       4.074   3.157  17.562  0.00  0.00    +0.000 A 
ATOM     24  C   UNL     1       3.878   4.528  17.729  0.00  0.00    +0.000 A 
ENDBRANCH  18  19
ENDBRANCH   2  18
TORSDOF 2
ENDMDL
MODEL 9
REMARK VINA RESULT:      -6.9      3.250      8.481
REMARK  Name = 
REMARK  2 active torsions:
REMARK  status: ('A' for Active; 'I' for Inactive)
REMARK    1  A    between atoms: C_2  and  C_3
REMARK    2  A    between atoms: C_3  and  C_4
REMARK                            x       y       z     vdW  Elec       q    Type
REMARK                         _______ _______ _______ _____ _____    ______ ____
ROOT
ATOM      1  O   UNL     1      -1.292  12.195  20.600  0.00  0.00    +0.000 OA
ATOM      2  C   UNL     1      -0.818  11.784  19.535  0.00  0.00    +0.000 C 
ATOM      3  N   UNL     1      -0.418  10.467  19.381  0.00  0.00    +0.000 N 
ATOM      4  C   UNL     1       0.213   9.882  18.192  0.00  0.00    +0.000 C 
ATOM      5  C   UNL     1       1.633   9.384  18.509  0.00  0.00    +0.000 C 
ATOM      6  N   UNL     1       1.599   8.472  19.660  0.00  0.00    +0.000 N 
ATOM      7  C   UNL     1       2.018   7.155  19.588  0.00  0.00    +0.000 A 
ATOM      8  N   UNL     1       2.575   6.707  18.387  0.00  0.00    +0.000 NA
ATOM      9  N   UNL     1       2.988   5.529  18.252  0.00  0.00    +0.000 NA
ATOM     10  C   UNL     1       2.878   4.673  19.289  0.00  0.00    +0.000 A 
ATOM     11  N   UNL     1       3.200   3.404  19.449  0.00  0.00    +0.000 NA
ATOM     12  N   UNL     1       2.837   3.033  20.730  0.00  0.00    +0.000 NA
ATOM     13  C   UNL     1       2.308   4.089  21.308  0.00  0.00    +0.000 A 
ATOM     14  N   UNL     1       2.319   5.140  20.443  0.00  0.00    +0.000 N 
ATOM     15  N   UNL     1       1.869   6.392  20.643  0.00  0.00    +0.000 NA
ATOM     16  C   UNL     1       0.983   9.055  20.867  0.00  0.00    +0.000 C 
ATOM     17  C   UNL     1      -0.436   9.568  20.547  0.00  0.00    +0.000 C 
ENDROOT
BRANCH   2  18
ATOM     18  C   UNL     1      -0.638  12.750  18.370  0.00  0.00    +0.000 C 
BRANCH  18  19
ATOM     19  C   UNL     1       0.566  13.648  18.543  0.00  0.00    +0.000 A 
ATOM     20  C   UNL     1       0.423  14.987  18.929  0.00  0.00    +0.000 A 
ATOM     21  C   UNL     1       1.545  15.807  19.077  0.00  0.00    +0.000 A 
ATOM     22  C   UNL     1       2.821  15.294  18.850  0.00  0.00    +0.000 A 
ATOM     23  C   UNL     1       2.978  13.961  18.480  0.00  0.00    +0.000 A 
ATOM     24  C   UNL     1       1.858  13.142  18.327  0.00  0.00    +0.000 A 
ENDBRANCH  18  19
ENDBRANCH   2  18
TORSDOF 2
ENDMDL
