MODEL 1
REMARK VINA RESULT:      -6.1      0.000      0.000
REMARK  Name = 
REMARK  3 active torsions:
REMARK  status: ('A' for Active; 'I' for Inactive)
REMARK    1  A    between atoms: N_1  and  S_2
REMARK    2  A    between atoms: S_2  and  O_5
REMARK    3  A    between atoms: O_5  and  C_6
REMARK                            x       y       z     vdW  Elec       q    Type
REMARK                         _______ _______ _______ _____ _____    ______ ____
ROOT
ATOM      1  C   UNL     1       5.058   4.672  18.699  0.00  0.00    +0.000 A 
ATOM      2  C   UNL     1       4.793   3.536  19.466  0.00  0.00    +0.000 A 
ATOM      3  C   UNL     1       3.913   2.562  18.985  0.00  0.00    +0.000 A 
ATOM      4  C   UNL     1       3.299   2.734  17.748  0.00  0.00    +0.000 A 
ATOM      5  F   UNL     1       2.453   1.798  17.300  0.00  0.00    +0.000 F 
ATOM      6  C   UNL     1       3.542   3.862  16.978  0.00  0.00    +0.000 A 
ATOM      7  C   UNL     1       4.419   4.826  17.463  0.00  0.00    +0.000 A 
ATOM      8  F   UNL     1       4.645   5.920  16.724  0.00  0.00    +0.000 F 
ENDROOT
BRANCH   1   9
ATOM      9  O   UNL     1       5.874   5.703  19.088  0.00  0.00    +0.000 OA
BRANCH   9  10
ATOM     10  S   UNL     1       7.484   5.635  18.896  0.00  0.00    +0.000 S 
ATOM     11  O   UNL     1       7.993   6.925  18.486  0.00  0.00    +0.000 OA
ATOM     12  O   UNL     1       7.836   4.422  18.191  0.00  0.00    +0.000 OA
BRANCH  10  13
ATOM     13  N   UNL     1       8.064   5.378  20.452  0.00  0.00    +0.000 NA
ATOM     14  H   UNL     1       8.651   6.171  20.716  0.00  0.00    +0.000 HD
ATOM     15  H   UNL     1       8.587   4.503  20.473  0.00  0.00    +0.000 HD
ENDBRANCH  10  13
ENDBRANCH   9  10
ENDBRANCH   1   9
TORSDOF 3
ENDMDL
MODEL 2
REMARK VINA RESULT:      -5.9      1.816      2.254
REMARK  Name = 
REMARK  3 active torsions:
REMARK  status: ('A' for Active; 'I' for Inactive)
REMARK    1  A    between atoms: N_1  and  S_2
REMARK    2  A    between atoms: S_2  and  O_5
REMARK    3  A    between atoms: O_5  and  C_6
REMARK                            x       y       z     vdW  Elec       q    Type
REMARK                         _______ _______ _______ _____ _____    ______ ____
ROOT
ATOM      1  C   UNL     1       4.659   5.431  17.582  0.00  0.00    +0.000 A 
ATOM      2  C   UNL     1       3.644   6.163  18.204  0.00  0.00    +0.000 A 
ATOM      3  C   UNL     1       2.361   5.617  18.313  0.00  0.00    +0.000 A 
ATOM      4  C   UNL     1       2.100   4.353  17.796  0.00  0.00    +0.000 A 
ATOM      5  F   UNL     1       0.866   3.844  17.901  0.00  0.00    +0.000 F 
ATOM      6  C   UNL     1       3.093   3.617  17.166  0.00  0.00    +0.000 A 
ATOM      7  C   UNL     1       4.366   4.165  17.061  0.00  0.00    +0.000 A 
ATOM      8  F   UNL     1       5.322   3.459  16.443  0.00  0.00    +0.000 F 
ENDROOT
BRANCH   1   9
ATOM      9  O   UNL     1       5.938   5.882  17.390  0.00  0.00    +0.000 OA
BRANCH   9  10
ATOM     10  S   UNL     1       7.105   5.632  18.491  0.00  0.00    +0.000 S 
ATOM     11  O   UNL     1       6.532   5.142  19.724  0.00  0.00    +0.000 OA
ATOM     12  O   UNL     1       8.031   6.744  18.474  0.00  0.00    +0.000 OA
BRANCH  10  13
ATOM     13  N   UNL     1       7.996   4.358  17.851  0.00  0.00    +0.000 NA
ATOM     14  H   UNL     1       7.489   3.489  18.023  0.00  0.00    +0.000 HD
ATOM     15  H   UNL     1       8.918   4.346  18.284  0.00  0.00    +0.000 HD
ENDBRANCH  10  13
ENDBRANCH   9  10
ENDBRANCH   1   9
TORSDOF 3
ENDMDL
MODEL 3
REMARK VINA RESULT:      -5.9      1.702      2.100
REMARK  Name = 
REMARK  3 active torsions:
REMARK  status: ('A' for Active; 'I' for Inactive)
REMARK    1  A    between atoms: N_1  and  S_2
REMARK    2  A    between atoms: S_2  and  O_5
REMARK    3  A    between atoms: O_5  and  C_6
REMARK                            x       y       z     vdW  Elec       q    Type
REMARK                         _______ _______ _______ _____ _____    ______ ____
ROOT
ATOM      1  C   UNL     1       4.640   4.898  17.279  0.00  0.00    +0.000 A 
ATOM      2  C   UNL     1       4.307   3.548  17.143  0.00  0.00    +0.000 A 
ATOM      3  C   UNL     1       3.002   3.124  17.409  0.00  0.00    +0.000 A 
ATOM      4  C   UNL     1       2.043   4.047  17.816  0.00  0.00    +0.000 A 
ATOM      5  F   UNL     1       0.798   3.628  18.075  0.00  0.00    +0.000 F 
ATOM      6  C   UNL     1       2.359   5.389  17.967  0.00  0.00    +0.000 A 
ATOM      7  C   UNL     1       3.659   5.804  17.700  0.00  0.00    +0.000 A 
ATOM      8  F   UNL     1       3.967   7.099  17.857  0.00  0.00    +0.000 F 
ENDROOT
BRANCH   1   9
ATOM      9  O   UNL     1       5.893   5.416  17.079  0.00  0.00    +0.000 OA
BRANCH   9  10
ATOM     10  S   UNL     1       7.041   5.338  18.224  0.00  0.00    +0.000 S 
ATOM     11  O   UNL     1       6.488   4.810  19.451  0.00  0.00    +0.000 OA
ATOM     12  O   UNL     1       7.825   6.554  18.207  0.00  0.00    +0.000 OA
BRANCH  10  13
ATOM     13  N   UNL     1       8.102   4.168  17.649  0.00  0.00    +0.000 NA
ATOM     14  H   UNL     1       8.919   4.141  18.262  0.00  0.00    +0.000 HD
ATOM     15  H   UNL     1       8.361   4.395  16.690  0.00  0.00    +0.000 HD
ENDBRANCH  10  13
ENDBRANCH   9  10
ENDBRANCH   1   9
TORSDOF 3
ENDMDL
MODEL 4
REMARK VINA RESULT:      -5.9      2.128      2.162
REMARK  Name = 
REMARK  3 active torsions:
REMARK  status: ('A' for Active; 'I' for Inactive)
REMARK    1  A    between atoms: N_1  and  S_2
REMARK    2  A    between atoms: S_2  and  O_5
REMARK    3  A    between atoms: O_5  and  C_6
REMARK                            x       y       z     vdW  Elec       q    Type
REMARK                         _______ _______ _______ _____ _____    ______ ____
ROOT
ATOM      1  C   UNL     1       4.306   4.057  18.129  0.00  0.00    +0.000 A 
ATOM      2  C   UNL     1       4.112   2.753  18.592  0.00  0.00    +0.000 A 
ATOM      3  C   UNL     1       2.817   2.233  18.679  0.00  0.00    +0.000 A 
ATOM      4  C   UNL     1       1.729   3.018  18.313  0.00  0.00    +0.000 A 
ATOM      5  F   UNL     1       0.493   2.512  18.408  0.00  0.00    +0.000 F 
ATOM      6  C   UNL     1       1.903   4.319  17.863  0.00  0.00    +0.000 A 
ATOM      7  C   UNL     1       3.193   4.829  17.778  0.00  0.00    +0.000 A 
ATOM      8  F   UNL     1       3.360   6.089  17.353  0.00  0.00    +0.000 F 
ENDROOT
BRANCH   1   9
ATOM      9  O   UNL     1       5.525   4.677  18.037  0.00  0.00    +0.000 OA
BRANCH   9  10
ATOM     10  S   UNL     1       6.369   4.697  16.650  0.00  0.00    +0.000 S 
ATOM     11  O   UNL     1       6.497   6.052  16.162  0.00  0.00    +0.000 OA
ATOM     12  O   UNL     1       5.917   3.622  15.794  0.00  0.00    +0.000 OA
BRANCH  10  13
ATOM     13  N   UNL     1       7.913   4.220  17.113  0.00  0.00    +0.000 NA
ATOM     14  H   UNL     1       8.512   5.046  17.147  0.00  0.00    +0.000 HD
ATOM     15  H   UNL     1       8.262   3.531  16.448  0.00  0.00    +0.000 HD
ENDBRANCH  10  13
ENDBRANCH   9  10
ENDBRANCH   1   9
TORSDOF 3
ENDMDL
MODEL 5
REMARK VINA RESULT:      -5.9      2.376      2.847
REMARK  Name = 
REMARK  3 active torsions:
REMARK  status: ('A' for Active; 'I' for Inactive)
REMARK    1  A    between atoms: N_1  and  S_2
REMARK    2  A    between atoms: S_2  and  O_5
REMARK    3  A    between atoms: O_5  and  C_6
REMARK                            x       y       z     vdW  Elec       q    Type
REMARK                         _______ _______ _______ _____ _____    ______ ____
ROOT
ATOM      1  C   UNL     1       4.181   3.841  18.326  0.00  0.00    +0.000 A 
ATOM      2  C   UNL     1       3.154   4.472  17.619  0.00  0.00    +0.000 A 
ATOM      3  C   UNL     1       1.849   3.978  17.701  0.00  0.00    +0.000 A 
ATOM      4  C   UNL     1       1.581   2.856  18.480  0.00  0.00    +0.000 A 
ATOM      5  F   UNL     1       0.328   2.388  18.546  0.00  0.00    +0.000 F 
ATOM      6  C   UNL     1       2.590   2.210  19.179  0.00  0.00    +0.000 A 
ATOM      7  C   UNL     1       3.886   2.708  19.092  0.00  0.00    +0.000 A 
ATOM      8  F   UNL     1       4.863   2.077  19.759  0.00  0.00    +0.000 F 
ENDROOT
BRANCH   1   9
ATOM      9  O   UNL     1       5.498   4.218  18.289  0.00  0.00    +0.000 OA
BRANCH   9  10
ATOM     10  S   UNL     1       6.251   4.553  16.890  0.00  0.00    +0.000 S 
ATOM     11  O   UNL     1       6.174   5.969  16.608  0.00  0.00    +0.000 OA
ATOM     12  O   UNL     1       5.893   3.561  15.899  0.00  0.00    +0.000 OA
BRANCH  10  13
ATOM     13  N   UNL     1       7.868   4.229  17.216  0.00  0.00    +0.000 NA
ATOM     14  H   UNL     1       8.156   4.790  18.019  0.00  0.00    +0.000 HD
ATOM     15  H   UNL     1       8.424   4.445  16.390  0.00  0.00    +0.000 HD
ENDBRANCH  10  13
ENDBRANCH   9  10
ENDBRANCH   1   9
TORSDOF 3
ENDMDL
MODEL 6
REMARK VINA RESULT:      -5.9      1.890      2.096
REMARK  Name = 
REMARK  3 active torsions:
REMARK  status: ('A' for Active; 'I' for Inactive)
REMARK    1  A    between atoms: N_1  and  S_2
REMARK    2  A    between atoms: S_2  and  O_5
REMARK    3  A    between atoms: O_5  and  C_6
REMARK                            x       y       z     vdW  Elec       q    Type
REMARK                         _______ _______ _______ _____ _____    ______ ____
ROOT
ATOM      1  C   UNL     1       4.690   4.478  18.302  0.00  0.00    +0.000 A 
ATOM      2  C   UNL     1       4.414   3.268  18.944  0.00  0.00    +0.000 A 
ATOM      3  C   UNL     1       3.099   2.798  19.005  0.00  0.00    +0.000 A 
ATOM      4  C   UNL     1       2.071   3.541  18.434  0.00  0.00    +0.000 A 
ATOM      5  F   UNL     1       0.814   3.084  18.504  0.00  0.00    +0.000 F 
ATOM      6  C   UNL     1       2.326   4.750  17.802  0.00  0.00    +0.000 A 
ATOM      7  C   UNL     1       3.636   5.211  17.745  0.00  0.00    +0.000 A 
ATOM      8  F   UNL     1       3.880   6.384  17.145  0.00  0.00    +0.000 F 
ENDROOT
BRANCH   1   9
ATOM      9  O   UNL     1       5.934   5.047  18.215  0.00  0.00    +0.000 OA
BRANCH   9  10
ATOM     10  S   UNL     1       6.974   4.648  17.034  0.00  0.00    +0.000 S 
ATOM     11  O   UNL     1       6.290   3.911  15.994  0.00  0.00    +0.000 OA
ATOM     12  O   UNL     1       8.207   4.168  17.618  0.00  0.00    +0.000 OA
BRANCH  10  13
ATOM     13  N   UNL     1       7.398   6.127  16.356  0.00  0.00    +0.000 NA
ATOM     14  H   UNL     1       6.570   6.723  16.332  0.00  0.00    +0.000 HD
ATOM     15  H   UNL     1       7.773   5.969  15.421  0.00  0.00    +0.000 HD
ENDBRANCH  10  13
ENDBRANCH   9  10
ENDBRANCH   1   9
TORSDOF 3
ENDMDL
MODEL 7
REMARK VINA RESULT:      -5.8      1.809      2.103
REMARK  Name = 
REMARK  3 active torsions:
REMARK  status: ('A' for Active; 'I' for Inactive)
REMARK    1  A    between atoms: N_1  and  S_2
REMARK    2  A    between atoms: S_2  and  O_5
REMARK    3  A    between atoms: O_5  and  C_6
REMARK                            x       y       z     vdW  Elec       q    Type
REMARK                         _______ _______ _______ _____ _____    ______ ____
ROOT
ATOM      1  C   UNL     1       4.592   4.921  17.206  0.00  0.00    +0.000 A 
ATOM      2  C   UNL     1       4.202   3.593  17.021  0.00  0.00    +0.000 A 
ATOM      3  C   UNL     1       2.894   3.204  17.325  0.00  0.00    +0.000 A 
ATOM      4  C   UNL     1       1.990   4.140  17.819  0.00  0.00    +0.000 A 
ATOM      5  F   UNL     1       0.743   3.754  18.113  0.00  0.00    +0.000 F 
ATOM      6  C   UNL     1       2.364   5.460  18.019  0.00  0.00    +0.000 A 
ATOM      7  C   UNL     1       3.667   5.840  17.714  0.00  0.00    +0.000 A 
ATOM      8  F   UNL     1       4.030   7.113  17.919  0.00  0.00    +0.000 F 
ENDROOT
BRANCH   1   9
ATOM      9  O   UNL     1       5.854   5.402  16.974  0.00  0.00    +0.000 OA
BRANCH   9  10
ATOM     10  S   UNL     1       7.088   5.080  17.979  0.00  0.00    +0.000 S 
ATOM     11  O   UNL     1       8.092   4.291  17.300  0.00  0.00    +0.000 OA
ATOM     12  O   UNL     1       6.569   4.696  19.274  0.00  0.00    +0.000 OA
BRANCH  10  13
ATOM     13  N   UNL     1       7.785   6.584  18.255  0.00  0.00    +0.000 NA
ATOM     14  H   UNL     1       7.093   7.185  18.707  0.00  0.00    +0.000 HD
ATOM     15  H   UNL     1       8.097   6.975  17.367  0.00  0.00    +0.000 HD
ENDBRANCH  10  13
ENDBRANCH   9  10
ENDBRANCH   1   9
TORSDOF 3
ENDMDL
MODEL 8
REMARK VINA RESULT:      -5.8      2.271      2.918
REMARK  Name = 
REMARK  3 active torsions:
REMARK  status: ('A' for Active; 'I' for Inactive)
REMARK    1  A    between atoms: N_1  and  S_2
REMARK    2  A    between atoms: S_2  and  O_5
REMARK    3  A    between atoms: O_5  and  C_6
REMARK                            x       y       z     vdW  Elec       q    Type
REMARK                         _______ _______ _______ _____ _____    ______ ____
ROOT
ATOM      1  C   UNL     1       4.077   3.803  18.367  0.00  0.00    +0.000 A 
ATOM      2  C   UNL     1       3.022   4.547  17.832  0.00  0.00    +0.000 A 
ATOM      3  C   UNL     1       1.742   4.434  18.383  0.00  0.00    +0.000 A 
ATOM      4  C   UNL     1       1.524   3.575  19.456  0.00  0.00    +0.000 A 
ATOM      5  F   UNL     1       0.292   3.469  19.971  0.00  0.00    +0.000 F 
ATOM      6  C   UNL     1       2.557   2.820  19.992  0.00  0.00    +0.000 A 
ATOM      7  C   UNL     1       3.827   2.938  19.438  0.00  0.00    +0.000 A 
ATOM      8  F   UNL     1       4.822   2.201  19.949  0.00  0.00    +0.000 F 
ENDROOT
BRANCH   1   9
ATOM      9  O   UNL     1       5.359   3.811  17.884  0.00  0.00    +0.000 OA
BRANCH   9  10
ATOM     10  S   UNL     1       6.415   4.977  18.285  0.00  0.00    +0.000 S 
ATOM     11  O   UNL     1       6.515   5.087  19.723  0.00  0.00    +0.000 OA
ATOM     12  O   UNL     1       6.194   6.137  17.449  0.00  0.00    +0.000 OA
BRANCH  10  13
ATOM     13  N   UNL     1       7.894   4.378  17.758  0.00  0.00    +0.000 NA
ATOM     14  H   UNL     1       8.063   3.481  18.214  0.00  0.00    +0.000 HD
ATOM     15  H   UNL     1       8.625   5.054  17.979  0.00  0.00    +0.000 HD
ENDBRANCH  10  13
ENDBRANCH   9  10
ENDBRANCH   1   9
TORSDOF 3
ENDMDL
MODEL 9
REMARK VINA RESULT:      -5.8      2.920      3.479
REMARK  Name = 
REMARK  3 active torsions:
REMARK  status: ('A' for Active; 'I' for Inactive)
REMARK    1  A    between atoms: N_1  and  S_2
REMARK    2  A    between atoms: S_2  and  O_5
REMARK    3  A    between atoms: O_5  and  C_6
REMARK                            x       y       z     vdW  Elec       q    Type
REMARK                         _______ _______ _______ _____ _____    ______ ____
ROOT
ATOM      1  C   UNL     1       3.100   3.227  18.925  0.00  0.00    +0.000 A 
ATOM      2  C   UNL     1       3.674   2.693  20.081  0.00  0.00    +0.000 A 
ATOM      3  C   UNL     1       2.885   2.485  21.216  0.00  0.00    +0.000 A 
ATOM      4  C   UNL     1       1.534   2.817  21.191  0.00  0.00    +0.000 A 
ATOM      5  F   UNL     1       0.790   2.619  22.286  0.00  0.00    +0.000 F 
ATOM      6  C   UNL     1       0.950   3.358  20.055  0.00  0.00    +0.000 A 
ATOM      7  C   UNL     1       1.741   3.563  18.930  0.00  0.00    +0.000 A 
ATOM      8  F   UNL     1       1.179   4.096  17.837  0.00  0.00    +0.000 F 
ENDROOT
BRANCH   1   9
ATOM      9  O   UNL     1       3.786   3.505  17.771  0.00  0.00    +0.000 OA
BRANCH   9  10
ATOM     10  S   UNL     1       4.832   4.743  17.677  0.00  0.00    +0.000 S 
ATOM     11  O   UNL     1       4.510   5.745  18.669  0.00  0.00    +0.000 OA
ATOM     12  O   UNL     1       5.045   5.091  16.290  0.00  0.00    +0.000 OA
BRANCH  10  13
ATOM     13  N   UNL     1       6.296   4.069  18.153  0.00  0.00    +0.000 NA
ATOM     14  H   UNL     1       6.979   4.216  17.409  0.00  0.00    +0.000 HD
ATOM     15  H   UNL     1       6.159   3.077  18.344  0.00  0.00    +0.000 HD
ENDBRANCH  10  13
ENDBRANCH   9  10
ENDBRANCH   1   9
TORSDOF 3
ENDMDL
