MODEL 1
REMARK VINA RESULT:      -8.2      0.000      0.000
REMARK  Name = 
REMARK  6 active torsions:
REMARK  status: ('A' for Active; 'I' for Inactive)
REMARK    1  A    between atoms: C_1  and  C_2
REMARK    2  A    between atoms: C_3  and  C_4
REMARK    3  A    between atoms: N_13  and  C_14
REMARK    4  A    between atoms: C_14  and  C_15
REMARK    5  A    between atoms: C_14  and  C_16
REMARK    6  A    between atoms: C_14  and  C_17
REMARK                            x       y       z     vdW  Elec       q    Type
REMARK                         _______ _______ _______ _____ _____    ______ ____
ROOT
ATOM      1  C   UNL     1       1.832   5.820  21.063  0.00  0.00    +0.000 C 
ATOM      2  C   UNL     1       1.841   6.999  20.152  0.00  0.00    +0.000 C 
ATOM      3  C   UNL     1       2.353   7.087  18.915  0.00  0.00    +0.000 C 
ATOM      4  C   UNL     1       2.112   8.476  18.453  0.00  0.00    +0.000 C 
ATOM      5  O   UNL     1       2.529   8.925  17.400  0.00  0.00    +0.000 OA
ATOM      6  N   UNL     1       1.341   9.106  19.415  0.00  0.00    +0.000 N 
ATOM      7  C   UNL     1       1.194   8.271  20.586  0.00  0.00    +0.000 C 
ENDROOT
BRANCH   3   8
ATOM      8  C   UNL     1       2.994   6.045  18.123  0.00  0.00    +0.000 A 
ATOM      9  C   UNL     1       2.306   4.873  17.790  0.00  0.00    +0.000 A 
ATOM     10  C   UNL     1       2.929   3.881  17.028  0.00  0.00    +0.000 A 
ATOM     11  C   UNL     1       4.241   4.057  16.591  0.00  0.00    +0.000 A 
ATOM     12  C   UNL     1       4.927   5.225  16.920  0.00  0.00    +0.000 A 
ATOM     13 CL   UNL     1       6.547   5.445  16.380  0.00  0.00    +0.000 Cl
ATOM     14  C   UNL     1       4.311   6.218  17.680  0.00  0.00    +0.000 A 
ENDBRANCH   3   8
BRANCH   6  15
ATOM     15  C   UNL     1       0.927  10.536  19.412  0.00  0.00    +0.000 C 
ATOM     16  C   UNL     1       0.858  11.153  20.827  0.00  0.00    +0.000 C 
ATOM     17  C   UNL     1       1.996  11.368  18.650  0.00  0.00    +0.000 C 
BRANCH  15  18
ATOM     18  C   UNL     1      -0.422  10.691  18.696  0.00  0.00    +0.000 A 
ATOM     19  N   UNL     1      -0.707  10.108  17.546  0.00  0.00    +0.000 NA
ATOM     20  C   UNL     1      -1.997  10.410  17.149  0.00  0.00    +0.000 A 
ATOM     21  C   UNL     1      -2.627   9.950  15.974  0.00  0.00    +0.000 A 
ATOM     22  C   UNL     1      -3.952  10.307  15.710  0.00  0.00    +0.000 A 
ATOM     23  C   UNL     1      -4.650  11.122  16.594  0.00  0.00    +0.000 A 
ATOM     24  C   UNL     1      -4.040  11.606  17.758  0.00  0.00    +0.000 A 
ATOM     25  C   UNL     1      -2.710  11.233  18.018  0.00  0.00    +0.000 A 
ATOM     26  S   UNL     1      -1.701  11.646  19.350  0.00  0.00    +0.000 S 
ENDBRANCH  15  18
ENDBRANCH   6  15
TORSDOF 3
ENDMDL
MODEL 2
REMARK VINA RESULT:      -8.2      4.257      8.312
REMARK  Name = 
REMARK  6 active torsions:
REMARK  status: ('A' for Active; 'I' for Inactive)
REMARK    1  A    between atoms: C_1  and  C_2
REMARK    2  A    between atoms: C_3  and  C_4
REMARK    3  A    between atoms: N_13  and  C_14
REMARK    4  A    between atoms: C_14  and  C_15
REMARK    5  A    between atoms: C_14  and  C_16
REMARK    6  A    between atoms: C_14  and  C_17
REMARK                            x       y       z     vdW  Elec       q    Type
REMARK                         _______ _______ _______ _____ _____    ______ ____
ROOT
ATOM      1  C   UNL     1       2.442   4.921  20.222  0.00  0.00    +0.000 C 
ATOM      2  C   UNL     1       3.455   5.614  19.377  0.00  0.00    +0.000 C 
ATOM      3  C   UNL     1       3.376   6.832  18.819  0.00  0.00    +0.000 C 
ATOM      4  C   UNL     1       4.640   7.039  18.070  0.00  0.00    +0.000 C 
ATOM      5  O   UNL     1       4.865   8.011  17.370  0.00  0.00    +0.000 OA
ATOM      6  N   UNL     1       5.464   5.960  18.340  0.00  0.00    +0.000 N 
ATOM      7  C   UNL     1       4.759   4.947  19.092  0.00  0.00    +0.000 C 
ENDROOT
BRANCH   3   8
ATOM      8  C   UNL     1       2.302   7.811  18.928  0.00  0.00    +0.000 A 
ATOM      9  C   UNL     1       1.801   8.454  17.791  0.00  0.00    +0.000 A 
ATOM     10  C   UNL     1       0.769   9.389  17.906  0.00  0.00    +0.000 A 
ATOM     11  C   UNL     1       0.229   9.682  19.158  0.00  0.00    +0.000 A 
ATOM     12  C   UNL     1       0.724   9.041  20.291  0.00  0.00    +0.000 A 
ATOM     13 CL   UNL     1       0.058   9.401  21.837  0.00  0.00    +0.000 Cl
ATOM     14  C   UNL     1       1.754   8.107  20.183  0.00  0.00    +0.000 A 
ENDBRANCH   3   8
BRANCH   6  15
ATOM     15  C   UNL     1       6.801   5.703  17.737  0.00  0.00    +0.000 C 
ATOM     16  C   UNL     1       7.732   6.935  17.771  0.00  0.00    +0.000 C 
ATOM     17  C   UNL     1       7.528   4.612  18.571  0.00  0.00    +0.000 C 
BRANCH  15  18
ATOM     18  C   UNL     1       6.639   5.197  16.297  0.00  0.00    +0.000 A 
ATOM     19  N   UNL     1       7.438   5.552  15.306  0.00  0.00    +0.000 NA
ATOM     20  C   UNL     1       7.066   4.929  14.129  0.00  0.00    +0.000 A 
ATOM     21  C   UNL     1       7.705   5.078  12.880  0.00  0.00    +0.000 A 
ATOM     22  C   UNL     1       7.243   4.361  11.773  0.00  0.00    +0.000 A 
ATOM     23  C   UNL     1       6.151   3.509  11.893  0.00  0.00    +0.000 A 
ATOM     24  C   UNL     1       5.489   3.360  13.117  0.00  0.00    +0.000 A 
ATOM     25  C   UNL     1       5.967   4.078  14.226  0.00  0.00    +0.000 A 
ATOM     26  S   UNL     1       5.387   4.099  15.847  0.00  0.00    +0.000 S 
ENDBRANCH  15  18
ENDBRANCH   6  15
TORSDOF 3
ENDMDL
MODEL 3
REMARK VINA RESULT:      -8.1      1.045      1.395
REMARK  Name = 
REMARK  6 active torsions:
REMARK  status: ('A' for Active; 'I' for Inactive)
REMARK    1  A    between atoms: C_1  and  C_2
REMARK    2  A    between atoms: C_3  and  C_4
REMARK    3  A    between atoms: N_13  and  C_14
REMARK    4  A    between atoms: C_14  and  C_15
REMARK    5  A    between atoms: C_14  and  C_16
REMARK    6  A    between atoms: C_14  and  C_17
REMARK                            x       y       z     vdW  Elec       q    Type
REMARK                         _______ _______ _______ _____ _____    ______ ____
ROOT
ATOM      1  C   UNL     1       1.857   5.939  21.052  0.00  0.00    +0.000 C 
ATOM      2  C   UNL     1       1.862   7.113  20.135  0.00  0.00    +0.000 C 
ATOM      3  C   UNL     1       2.381   7.199  18.901  0.00  0.00    +0.000 C 
ATOM      4  C   UNL     1       2.132   8.583  18.430  0.00  0.00    +0.000 C 
ATOM      5  O   UNL     1       2.552   9.031  17.377  0.00  0.00    +0.000 OA
ATOM      6  N   UNL     1       1.350   9.212  19.384  0.00  0.00    +0.000 N 
ATOM      7  C   UNL     1       1.202   8.382  20.559  0.00  0.00    +0.000 C 
ENDROOT
BRANCH   3   8
ATOM      8  C   UNL     1       3.035   6.158  18.118  0.00  0.00    +0.000 A 
ATOM      9  C   UNL     1       4.191   6.436  17.380  0.00  0.00    +0.000 A 
ATOM     10  C   UNL     1       4.812   5.430  16.635  0.00  0.00    +0.000 A 
ATOM     11  C   UNL     1       4.284   4.140  16.629  0.00  0.00    +0.000 A 
ATOM     12  C   UNL     1       3.135   3.860  17.365  0.00  0.00    +0.000 A 
ATOM     13 CL   UNL     1       2.483   2.266  17.359  0.00  0.00    +0.000 Cl
ATOM     14  C   UNL     1       2.510   4.859  18.110  0.00  0.00    +0.000 A 
ENDBRANCH   3   8
BRANCH   6  15
ATOM     15  C   UNL     1       0.926  10.639  19.371  0.00  0.00    +0.000 C 
ATOM     16  C   UNL     1       0.871  11.271  20.780  0.00  0.00    +0.000 C 
ATOM     17  C   UNL     1       1.977  11.471  18.586  0.00  0.00    +0.000 C 
BRANCH  15  18
ATOM     18  C   UNL     1      -0.434  10.776  18.672  0.00  0.00    +0.000 A 
ATOM     19  N   UNL     1      -0.735  10.168  17.540  0.00  0.00    +0.000 NA
ATOM     20  C   UNL     1      -2.032  10.458  17.155  0.00  0.00    +0.000 A 
ATOM     21  C   UNL     1      -2.678   9.972  16.000  0.00  0.00    +0.000 A 
ATOM     22  C   UNL     1      -4.008  10.321  15.748  0.00  0.00    +0.000 A 
ATOM     23  C   UNL     1      -4.695  11.153  16.625  0.00  0.00    +0.000 A 
ATOM     24  C   UNL     1      -4.068  11.664  17.769  0.00  0.00    +0.000 A 
ATOM     25  C   UNL     1      -2.734  11.299  18.017  0.00  0.00    +0.000 A 
ATOM     26  S   UNL     1      -1.705  11.743  19.324  0.00  0.00    +0.000 S 
ENDBRANCH  15  18
ENDBRANCH   6  15
TORSDOF 3
ENDMDL
MODEL 4
REMARK VINA RESULT:      -7.7      3.731      6.202
REMARK  Name = 
REMARK  6 active torsions:
REMARK  status: ('A' for Active; 'I' for Inactive)
REMARK    1  A    between atoms: C_1  and  C_2
REMARK    2  A    between atoms: C_3  and  C_4
REMARK    3  A    between atoms: N_13  and  C_14
REMARK    4  A    between atoms: C_14  and  C_15
REMARK    5  A    between atoms: C_14  and  C_16
REMARK    6  A    between atoms: C_14  and  C_17
REMARK                            x       y       z     vdW  Elec       q    Type
REMARK                         _______ _______ _______ _____ _____    ______ ____
ROOT
ATOM      1  C   UNL     1       7.871   4.637  17.511  0.00  0.00    +0.000 C 
ATOM      2  C   UNL     1       6.407   4.398  17.370  0.00  0.00    +0.000 C 
ATOM      3  C   UNL     1       5.695   4.253  16.242  0.00  0.00    +0.000 C 
ATOM      4  C   UNL     1       4.284   4.051  16.652  0.00  0.00    +0.000 C 
ATOM      5  O   UNL     1       3.352   3.973  15.872  0.00  0.00    +0.000 OA
ATOM      6  N   UNL     1       4.263   3.958  18.034  0.00  0.00    +0.000 N 
ATOM      7  C   UNL     1       5.561   4.261  18.592  0.00  0.00    +0.000 C 
ENDROOT
BRANCH   3   8
ATOM      8  C   UNL     1       6.170   4.249  14.864  0.00  0.00    +0.000 A 
ATOM      9  C   UNL     1       7.194   5.112  14.458  0.00  0.00    +0.000 A 
ATOM     10  C   UNL     1       7.645   5.099  13.135  0.00  0.00    +0.000 A 
ATOM     11  C   UNL     1       7.078   4.219  12.213  0.00  0.00    +0.000 A 
ATOM     12  C   UNL     1       6.060   3.358  12.617  0.00  0.00    +0.000 A 
ATOM     13 CL   UNL     1       5.361   2.270  11.480  0.00  0.00    +0.000 Cl
ATOM     14  C   UNL     1       5.606   3.366  13.935  0.00  0.00    +0.000 A 
ENDBRANCH   3   8
BRANCH   6  15
ATOM     15  C   UNL     1       3.049   3.836  18.888  0.00  0.00    +0.000 C 
ATOM     16  C   UNL     1       1.918   3.019  18.226  0.00  0.00    +0.000 C 
ATOM     17  C   UNL     1       3.420   3.058  20.181  0.00  0.00    +0.000 C 
BRANCH  15  18
ATOM     18  C   UNL     1       2.541   5.230  19.280  0.00  0.00    +0.000 A 
ATOM     19  N   UNL     1       2.574   6.272  18.469  0.00  0.00    +0.000 NA
ATOM     20  C   UNL     1       2.034   7.389  19.081  0.00  0.00    +0.000 A 
ATOM     21  C   UNL     1       1.907   8.668  18.500  0.00  0.00    +0.000 A 
ATOM     22  C   UNL     1       1.311   9.704  19.223  0.00  0.00    +0.000 A 
ATOM     23  C   UNL     1       0.849   9.484  20.517  0.00  0.00    +0.000 A 
ATOM     24  C   UNL     1       0.981   8.228  21.121  0.00  0.00    +0.000 A 
ATOM     25  C   UNL     1       1.575   7.191  20.382  0.00  0.00    +0.000 A 
ATOM     26  S   UNL     1       1.864   5.555  20.833  0.00  0.00    +0.000 S 
ENDBRANCH  15  18
ENDBRANCH   6  15
TORSDOF 3
ENDMDL
MODEL 5
REMARK VINA RESULT:      -7.7      0.920      1.400
REMARK  Name = 
REMARK  6 active torsions:
REMARK  status: ('A' for Active; 'I' for Inactive)
REMARK    1  A    between atoms: C_1  and  C_2
REMARK    2  A    between atoms: C_3  and  C_4
REMARK    3  A    between atoms: N_13  and  C_14
REMARK    4  A    between atoms: C_14  and  C_15
REMARK    5  A    between atoms: C_14  and  C_16
REMARK    6  A    between atoms: C_14  and  C_17
REMARK                            x       y       z     vdW  Elec       q    Type
REMARK                         _______ _______ _______ _____ _____    ______ ____
ROOT
ATOM      1  C   UNL     1       1.797   6.064  21.130  0.00  0.00    +0.000 C 
ATOM      2  C   UNL     1       1.779   7.227  20.199  0.00  0.00    +0.000 C 
ATOM      3  C   UNL     1       2.258   7.295  18.947  0.00  0.00    +0.000 C 
ATOM      4  C   UNL     1       2.002   8.675  18.467  0.00  0.00    +0.000 C 
ATOM      5  O   UNL     1       2.390   9.106  17.396  0.00  0.00    +0.000 OA
ATOM      6  N   UNL     1       1.255   9.319  19.438  0.00  0.00    +0.000 N 
ATOM      7  C   UNL     1       1.141   8.505  20.627  0.00  0.00    +0.000 C 
ENDROOT
BRANCH   3   8
ATOM      8  C   UNL     1       2.881   6.240  18.157  0.00  0.00    +0.000 A 
ATOM      9  C   UNL     1       2.218   5.029  17.929  0.00  0.00    +0.000 A 
ATOM     10  C   UNL     1       2.823   4.026  17.167  0.00  0.00    +0.000 A 
ATOM     11  C   UNL     1       4.092   4.229  16.626  0.00  0.00    +0.000 A 
ATOM     12  C   UNL     1       4.753   5.435  16.850  0.00  0.00    +0.000 A 
ATOM     13 CL   UNL     1       6.319   5.688  16.181  0.00  0.00    +0.000 Cl
ATOM     14  C   UNL     1       4.155   6.440  17.609  0.00  0.00    +0.000 A 
ENDBRANCH   3   8
BRANCH   6  15
ATOM     15  C   UNL     1       0.838  10.749  19.421  0.00  0.00    +0.000 C 
ATOM     16  C   UNL     1       0.997  11.446  20.791  0.00  0.00    +0.000 C 
ATOM     17  C   UNL     1       1.762  11.532  18.448  0.00  0.00    +0.000 C 
BRANCH  15  18
ATOM     18  C   UNL     1      -0.611  10.867  18.928  0.00  0.00    +0.000 A 
ATOM     19  N   UNL     1      -1.534  11.584  19.544  0.00  0.00    +0.000 NA
ATOM     20  C   UNL     1      -2.738  11.522  18.866  0.00  0.00    +0.000 A 
ATOM     21  C   UNL     1      -3.931  12.173  19.242  0.00  0.00    +0.000 A 
ATOM     22  C   UNL     1      -5.072  12.050  18.445  0.00  0.00    +0.000 A 
ATOM     23  C   UNL     1      -5.041  11.280  17.287  0.00  0.00    +0.000 A 
ATOM     24  C   UNL     1      -3.874  10.609  16.903  0.00  0.00    +0.000 A 
ATOM     25  C   UNL     1      -2.729  10.747  17.707  0.00  0.00    +0.000 A 
ATOM     26  S   UNL     1      -1.161  10.069  17.501  0.00  0.00    +0.000 S 
ENDBRANCH  15  18
ENDBRANCH   6  15
TORSDOF 3
ENDMDL
MODEL 6
REMARK VINA RESULT:      -7.6      1.385      1.970
REMARK  Name = 
REMARK  6 active torsions:
REMARK  status: ('A' for Active; 'I' for Inactive)
REMARK    1  A    between atoms: C_1  and  C_2
REMARK    2  A    between atoms: C_3  and  C_4
REMARK    3  A    between atoms: N_13  and  C_14
REMARK    4  A    between atoms: C_14  and  C_15
REMARK    5  A    between atoms: C_14  and  C_16
REMARK    6  A    between atoms: C_14  and  C_17
REMARK                            x       y       z     vdW  Elec       q    Type
REMARK                         _______ _______ _______ _____ _____    ______ ____
ROOT
ATOM      1  C   UNL     1       1.821   6.075  21.100  0.00  0.00    +0.000 C 
ATOM      2  C   UNL     1       1.811   7.248  20.182  0.00  0.00    +0.000 C 
ATOM      3  C   UNL     1       2.322   7.337  18.944  0.00  0.00    +0.000 C 
ATOM      4  C   UNL     1       2.059   8.719  18.473  0.00  0.00    +0.000 C 
ATOM      5  O   UNL     1       2.469   9.168  17.417  0.00  0.00    +0.000 OA
ATOM      6  N   UNL     1       1.279   9.343  19.432  0.00  0.00    +0.000 N 
ATOM      7  C   UNL     1       1.145   8.513  20.608  0.00  0.00    +0.000 C 
ENDROOT
BRANCH   3   8
ATOM      8  C   UNL     1       2.979   6.300  18.158  0.00  0.00    +0.000 A 
ATOM      9  C   UNL     1       4.133   6.584  17.419  0.00  0.00    +0.000 A 
ATOM     10  C   UNL     1       4.757   5.582  16.672  0.00  0.00    +0.000 A 
ATOM     11  C   UNL     1       4.234   4.290  16.662  0.00  0.00    +0.000 A 
ATOM     12  C   UNL     1       3.086   4.004  17.399  0.00  0.00    +0.000 A 
ATOM     13 CL   UNL     1       2.440   2.408  17.390  0.00  0.00    +0.000 Cl
ATOM     14  C   UNL     1       2.459   5.000  18.148  0.00  0.00    +0.000 A 
ENDBRANCH   3   8
BRANCH   6  15
ATOM     15  C   UNL     1       0.843  10.766  19.420  0.00  0.00    +0.000 C 
ATOM     16  C   UNL     1       1.002  11.463  20.790  0.00  0.00    +0.000 C 
ATOM     17  C   UNL     1       1.752  11.563  18.443  0.00  0.00    +0.000 C 
BRANCH  15  18
ATOM     18  C   UNL     1      -0.610  10.867  18.936  0.00  0.00    +0.000 A 
ATOM     19  N   UNL     1      -1.527  11.605  19.534  0.00  0.00    +0.000 NA
ATOM     20  C   UNL     1      -2.737  11.519  18.870  0.00  0.00    +0.000 A 
ATOM     21  C   UNL     1      -3.927  12.183  19.233  0.00  0.00    +0.000 A 
ATOM     22  C   UNL     1      -5.075  12.032  18.451  0.00  0.00    +0.000 A 
ATOM     23  C   UNL     1      -5.054  11.221  17.321  0.00  0.00    +0.000 A 
ATOM     24  C   UNL     1      -3.890  10.537  16.951  0.00  0.00    +0.000 A 
ATOM     25  C   UNL     1      -2.739  10.704  17.739  0.00  0.00    +0.000 A 
ATOM     26  S   UNL     1      -1.172  10.019  17.543  0.00  0.00    +0.000 S 
ENDBRANCH  15  18
ENDBRANCH   6  15
TORSDOF 3
ENDMDL
MODEL 7
REMARK VINA RESULT:      -7.5      4.189      8.195
REMARK  Name = 
REMARK  6 active torsions:
REMARK  status: ('A' for Active; 'I' for Inactive)
REMARK    1  A    between atoms: C_1  and  C_2
REMARK    2  A    between atoms: C_3  and  C_4
REMARK    3  A    between atoms: N_13  and  C_14
REMARK    4  A    between atoms: C_14  and  C_15
REMARK    5  A    between atoms: C_14  and  C_16
REMARK    6  A    between atoms: C_14  and  C_17
REMARK                            x       y       z     vdW  Elec       q    Type
REMARK                         _______ _______ _______ _____ _____    ______ ____
ROOT
ATOM      1  C   UNL     1       2.130   9.723  17.998  0.00  0.00    +0.000 C 
ATOM      2  C   UNL     1       2.088   8.401  18.684  0.00  0.00    +0.000 C 
ATOM      3  C   UNL     1       1.541   8.100  19.872  0.00  0.00    +0.000 C 
ATOM      4  C   UNL     1       1.785   6.655  20.099  0.00  0.00    +0.000 C 
ATOM      5  O   UNL     1       1.495   6.069  21.127  0.00  0.00    +0.000 OA
ATOM      6  N   UNL     1       2.363   6.146  18.949  0.00  0.00    +0.000 N 
ATOM      7  C   UNL     1       2.684   7.206  18.019  0.00  0.00    +0.000 C 
ENDROOT
BRANCH   3   8
ATOM      8  C   UNL     1       0.809   8.974  20.780  0.00  0.00    +0.000 A 
ATOM      9  C   UNL     1       0.961   8.857  22.166  0.00  0.00    +0.000 A 
ATOM     10  C   UNL     1       0.257   9.702  23.028  0.00  0.00    +0.000 A 
ATOM     11  C   UNL     1      -0.600  10.672  22.508  0.00  0.00    +0.000 A 
ATOM     12  C   UNL     1      -0.751  10.792  21.129  0.00  0.00    +0.000 A 
ATOM     13 CL   UNL     1      -1.807  11.990  20.486  0.00  0.00    +0.000 Cl
ATOM     14  C   UNL     1      -0.051   9.952  20.263  0.00  0.00    +0.000 A 
ENDBRANCH   3   8
BRANCH   6  15
ATOM     15  C   UNL     1       2.856   4.754  18.754  0.00  0.00    +0.000 C 
ATOM     16  C   UNL     1       3.304   4.078  20.069  0.00  0.00    +0.000 C 
ATOM     17  C   UNL     1       1.691   3.878  18.214  0.00  0.00    +0.000 C 
BRANCH  15  18
ATOM     18  C   UNL     1       3.999   4.740  17.730  0.00  0.00    +0.000 A 
ATOM     19  N   UNL     1       3.865   4.295  16.494  0.00  0.00    +0.000 NA
ATOM     20  C   UNL     1       5.051   4.421  15.795  0.00  0.00    +0.000 A 
ATOM     21  C   UNL     1       5.260   4.049  14.451  0.00  0.00    +0.000 A 
ATOM     22  C   UNL     1       6.506   4.262  13.855  0.00  0.00    +0.000 A 
ATOM     23  C   UNL     1       7.545   4.830  14.583  0.00  0.00    +0.000 A 
ATOM     24  C   UNL     1       7.368   5.190  15.925  0.00  0.00    +0.000 A 
ATOM     25  C   UNL     1       6.108   4.980  16.511  0.00  0.00    +0.000 A 
ATOM     26  S   UNL     1       5.577   5.323  18.112  0.00  0.00    +0.000 S 
ENDBRANCH  15  18
ENDBRANCH   6  15
TORSDOF 3
ENDMDL
MODEL 8
REMARK VINA RESULT:      -7.5      3.840      8.437
REMARK  Name = 
REMARK  6 active torsions:
REMARK  status: ('A' for Active; 'I' for Inactive)
REMARK    1  A    between atoms: C_1  and  C_2
REMARK    2  A    between atoms: C_3  and  C_4
REMARK    3  A    between atoms: N_13  and  C_14
REMARK    4  A    between atoms: C_14  and  C_15
REMARK    5  A    between atoms: C_14  and  C_16
REMARK    6  A    between atoms: C_14  and  C_17
REMARK                            x       y       z     vdW  Elec       q    Type
REMARK                         _______ _______ _______ _____ _____    ______ ____
ROOT
ATOM      1  C   UNL     1      -3.370   9.669  16.173  0.00  0.00    +0.000 C 
ATOM      2  C   UNL     1      -2.765  10.386  17.330  0.00  0.00    +0.000 C 
ATOM      3  C   UNL     1      -3.352  11.258  18.164  0.00  0.00    +0.000 C 
ATOM      4  C   UNL     1      -2.312  11.690  19.129  0.00  0.00    +0.000 C 
ATOM      5  O   UNL     1      -2.483  12.550  19.975  0.00  0.00    +0.000 OA
ATOM      6  N   UNL     1      -1.178  10.934  18.883  0.00  0.00    +0.000 N 
ATOM      7  C   UNL     1      -1.339  10.136  17.688  0.00  0.00    +0.000 C 
ENDROOT
BRANCH   3   8
ATOM      8  C   UNL     1      -4.741  11.699  18.184  0.00  0.00    +0.000 A 
ATOM      9  C   UNL     1      -5.305  12.342  17.076  0.00  0.00    +0.000 A 
ATOM     10  C   UNL     1      -6.639  12.757  17.104  0.00  0.00    +0.000 A 
ATOM     11  C   UNL     1      -7.417  12.528  18.238  0.00  0.00    +0.000 A 
ATOM     12  C   UNL     1      -6.859  11.885  19.341  0.00  0.00    +0.000 A 
ATOM     13 CL   UNL     1      -7.820  11.600  20.740  0.00  0.00    +0.000 Cl
ATOM     14  C   UNL     1      -5.529  11.468  19.319  0.00  0.00    +0.000 A 
ENDBRANCH   3   8
BRANCH   6  15
ATOM     15  C   UNL     1       0.141  11.084  19.556  0.00  0.00    +0.000 C 
ATOM     16  C   UNL     1       0.894  12.369  19.144  0.00  0.00    +0.000 C 
ATOM     17  C   UNL     1      -0.087  11.212  21.088  0.00  0.00    +0.000 C 
BRANCH  15  18
ATOM     18  C   UNL     1       1.011   9.848  19.288  0.00  0.00    +0.000 A 
ATOM     19  N   UNL     1       1.065   8.806  20.098  0.00  0.00    +0.000 NA
ATOM     20  C   UNL     1       1.914   7.836  19.595  0.00  0.00    +0.000 A 
ATOM     21  C   UNL     1       2.199   6.595  20.200  0.00  0.00    +0.000 A 
ATOM     22  C   UNL     1       3.054   5.691  19.565  0.00  0.00    +0.000 A 
ATOM     23  C   UNL     1       3.635   6.013  18.343  0.00  0.00    +0.000 A 
ATOM     24  C   UNL     1       3.382   7.247  17.732  0.00  0.00    +0.000 A 
ATOM     25  C   UNL     1       2.513   8.145  18.375  0.00  0.00    +0.000 A 
ATOM     26  S   UNL     1       1.999   9.711  17.881  0.00  0.00    +0.000 S 
ENDBRANCH  15  18
ENDBRANCH   6  15
TORSDOF 3
ENDMDL
MODEL 9
REMARK VINA RESULT:      -7.4      3.735      8.313
REMARK  Name = 
REMARK  6 active torsions:
REMARK  status: ('A' for Active; 'I' for Inactive)
REMARK    1  A    between atoms: C_1  and  C_2
REMARK    2  A    between atoms: C_3  and  C_4
REMARK    3  A    between atoms: N_13  and  C_14
REMARK    4  A    between atoms: C_14  and  C_15
REMARK    5  A    between atoms: C_14  and  C_16
REMARK    6  A    between atoms: C_14  and  C_17
REMARK                            x       y       z     vdW  Elec       q    Type
REMARK                         _______ _______ _______ _____ _____    ______ ____
ROOT
ATOM      1  C   UNL     1      -3.167   9.656  15.909  0.00  0.00    +0.000 C 
ATOM      2  C   UNL     1      -2.592  10.313  17.117  0.00  0.00    +0.000 C 
ATOM      3  C   UNL     1      -3.208  11.119  17.995  0.00  0.00    +0.000 C 
ATOM      4  C   UNL     1      -2.190  11.512  19.000  0.00  0.00    +0.000 C 
ATOM      5  O   UNL     1      -2.390  12.314  19.895  0.00  0.00    +0.000 OA
ATOM      6  N   UNL     1      -1.037  10.797  18.723  0.00  0.00    +0.000 N 
ATOM      7  C   UNL     1      -1.165  10.072  17.479  0.00  0.00    +0.000 C 
ENDROOT
BRANCH   3   8
ATOM      8  C   UNL     1      -4.607  11.528  18.023  0.00  0.00    +0.000 A 
ATOM      9  C   UNL     1      -5.140  12.329  17.007  0.00  0.00    +0.000 A 
ATOM     10  C   UNL     1      -6.483  12.713  17.041  0.00  0.00    +0.000 A 
ATOM     11  C   UNL     1      -7.302  12.294  18.089  0.00  0.00    +0.000 A 
ATOM     12  C   UNL     1      -6.774  11.495  19.101  0.00  0.00    +0.000 A 
ATOM     13 CL   UNL     1      -7.784  10.976  20.395  0.00  0.00    +0.000 Cl
ATOM     14  C   UNL     1      -5.435  11.108  19.073  0.00  0.00    +0.000 A 
ENDBRANCH   3   8
BRANCH   6  15
ATOM     15  C   UNL     1       0.270  10.933  19.422  0.00  0.00    +0.000 C 
ATOM     16  C   UNL     1       1.103  12.137  18.929  0.00  0.00    +0.000 C 
ATOM     17  C   UNL     1       0.009  11.200  20.931  0.00  0.00    +0.000 C 
BRANCH  15  18
ATOM     18  C   UNL     1       1.077   9.634  19.284  0.00  0.00    +0.000 A 
ATOM     19  N   UNL     1       1.827   9.351  18.234  0.00  0.00    +0.000 NA
ATOM     20  C   UNL     1       2.451   8.127  18.392  0.00  0.00    +0.000 A 
ATOM     21  C   UNL     1       3.326   7.522  17.466  0.00  0.00    +0.000 A 
ATOM     22  C   UNL     1       3.914   6.290  17.767  0.00  0.00    +0.000 A 
ATOM     23  C   UNL     1       3.634   5.653  18.971  0.00  0.00    +0.000 A 
ATOM     24  C   UNL     1       2.754   6.225  19.897  0.00  0.00    +0.000 A 
ATOM     25  C   UNL     1       2.175   7.467  19.588  0.00  0.00    +0.000 A 
ATOM     26  S   UNL     1       1.080   8.422  20.511  0.00  0.00    +0.000 S 
ENDBRANCH  15  18
ENDBRANCH   6  15
TORSDOF 3
ENDMDL
