MODEL 1
REMARK VINA RESULT:      -6.6      0.000      0.000
REMARK  Name = 
REMARK  5 active torsions:
REMARK  status: ('A' for Active; 'I' for Inactive)
REMARK    1  A    between atoms: C_1  and  C_2
REMARK    2  A    between atoms: C_2  and  C_4
REMARK    3  A    between atoms: C_8  and  O_9
REMARK    4  A    between atoms: N_12  and  C_13
REMARK    5  A    between atoms: N_21  and  C_22
REMARK                            x       y       z     vdW  Elec       q    Type
REMARK                         _______ _______ _______ _____ _____    ______ ____
ROOT
ATOM      1  C   UNL     1       1.411   8.537  19.782  0.00  0.00    +0.000 A 
ATOM      2  S   UNL     1       0.477   9.379  18.623  0.00  0.00    +0.000 S 
ATOM      3  C   UNL     1      -0.499  10.132  19.799  0.00  0.00    +0.000 A 
ATOM      4  C   UNL     1       0.074  10.004  21.041  0.00  0.00    +0.000 A 
ATOM      5  C   UNL     1       1.147   9.049  21.038  0.00  0.00    +0.000 A 
ATOM      6  C   UNL     1      -0.442  10.763  22.156  0.00  0.00    +0.000 A 
ATOM      7  O   UNL     1       0.082  10.626  23.259  0.00  0.00    +0.000 OA
ATOM      8  N   UNL     1      -1.539  11.598  21.852  0.00  0.00    +0.000 N 
ATOM      9  C   UNL     1      -2.205  11.698  20.553  0.00  0.00    +0.000 A 
ATOM     10  S   UNL     1      -3.574  12.701  20.307  0.00  0.00    +0.000 S 
ATOM     11  N   UNL     1      -1.631  10.899  19.498  0.00  0.00    +0.000 N 
ENDROOT
BRANCH   8  12
ATOM     12  C   UNL     1      -1.970  12.458  22.939  0.00  0.00    +0.000 A 
ATOM     13  C   UNL     1      -1.280  13.653  23.199  0.00  0.00    +0.000 A 
ATOM     14  C   UNL     1      -1.831  14.616  24.052  0.00  0.00    +0.000 A 
ATOM     15  C   UNL     1      -3.063  14.392  24.663  0.00  0.00    +0.000 A 
ATOM     16  C   UNL     1      -3.714  13.175  24.481  0.00  0.00    +0.000 A 
ATOM     17  C   UNL     1      -3.151  12.200  23.655  0.00  0.00    +0.000 A 
ENDBRANCH   8  12
BRANCH  11  18
ATOM     18  C   UNL     1      -2.192  10.800  18.153  0.00  0.00    +0.000 A 
ATOM     19  C   UNL     1      -2.996   9.714  17.765  0.00  0.00    +0.000 A 
ATOM     20  C   UNL     1      -3.485   9.589  16.458  0.00  0.00    +0.000 A 
ATOM     21  C   UNL     1      -3.264  10.597  15.531  0.00  0.00    +0.000 A 
ATOM     22  C   UNL     1      -2.506  11.703  15.895  0.00  0.00    +0.000 A 
ATOM     23  C   UNL     1      -1.933  11.772  17.171  0.00  0.00    +0.000 A 
ENDBRANCH  11  18
BRANCH   1  25
ATOM     24  C   UNL     1       2.932   7.649  17.934  0.00  0.00    +0.000 C 
ATOM     25  C   UNL     1       2.320   7.497  19.302  0.00  0.00    +0.000 C 
ATOM     26  O   UNL     1       2.628   6.510  19.978  0.00  0.00    +0.000 OA
ENDBRANCH   1  25
BRANCH   5  27
ATOM     27  O   UNL     1       1.823   8.658  22.135  0.00  0.00    +0.000 OA
ATOM     28  H   UNL     1       2.220   7.773  21.995  0.00  0.00    +0.000 HD
ENDBRANCH   5  27
TORSDOF 4
ENDMDL
MODEL 2
REMARK VINA RESULT:      -6.6      4.642      9.864
REMARK  Name = 
REMARK  5 active torsions:
REMARK  status: ('A' for Active; 'I' for Inactive)
REMARK    1  A    between atoms: C_1  and  C_2
REMARK    2  A    between atoms: C_2  and  C_4
REMARK    3  A    between atoms: C_8  and  O_9
REMARK    4  A    between atoms: N_12  and  C_13
REMARK    5  A    between atoms: N_21  and  C_22
REMARK                            x       y       z     vdW  Elec       q    Type
REMARK                         _______ _______ _______ _____ _____    ______ ____
ROOT
ATOM      1  C   UNL     1       1.498   8.722  19.349  0.00  0.00    +0.000 A 
ATOM      2  S   UNL     1       1.726   7.253  20.193  0.00  0.00    +0.000 S 
ATOM      3  C   UNL     1       2.544   6.511  18.895  0.00  0.00    +0.000 A 
ATOM      4  C   UNL     1       2.920   7.455  17.972  0.00  0.00    +0.000 A 
ATOM      5  C   UNL     1       2.280   8.719  18.210  0.00  0.00    +0.000 A 
ATOM      6  C   UNL     1       3.832   7.103  16.908  0.00  0.00    +0.000 A 
ATOM      7  O   UNL     1       4.147   7.963  16.089  0.00  0.00    +0.000 OA
ATOM      8  N   UNL     1       4.265   5.760  16.916  0.00  0.00    +0.000 N 
ATOM      9  C   UNL     1       3.825   4.723  17.849  0.00  0.00    +0.000 A 
ATOM     10  S   UNL     1       4.370   3.101  17.730  0.00  0.00    +0.000 S 
ATOM     11  N   UNL     1       2.907   5.159  18.873  0.00  0.00    +0.000 N 
ENDROOT
BRANCH   8  12
ATOM     12  C   UNL     1       5.282   5.442  15.929  0.00  0.00    +0.000 A 
ATOM     13  C   UNL     1       6.637   5.644  16.234  0.00  0.00    +0.000 A 
ATOM     14  C   UNL     1       7.635   5.101  15.417  0.00  0.00    +0.000 A 
ATOM     15  C   UNL     1       7.291   4.366  14.284  0.00  0.00    +0.000 A 
ATOM     16  C   UNL     1       5.954   4.233  13.924  0.00  0.00    +0.000 A 
ATOM     17  C   UNL     1       4.958   4.801  14.722  0.00  0.00    +0.000 A 
ENDBRANCH   8  12
BRANCH  11  18
ATOM     18  C   UNL     1       2.293   4.265  19.851  0.00  0.00    +0.000 A 
ATOM     19  C   UNL     1       2.869   4.041  21.114  0.00  0.00    +0.000 A 
ATOM     20  C   UNL     1       2.313   3.138  22.029  0.00  0.00    +0.000 A 
ATOM     21  C   UNL     1       1.110   2.508  21.743  0.00  0.00    +0.000 A 
ATOM     22  C   UNL     1       0.495   2.737  20.519  0.00  0.00    +0.000 A 
ATOM     23  C   UNL     1       1.109   3.560  19.568  0.00  0.00    +0.000 A 
ENDBRANCH  11  18
BRANCH   1  25
ATOM     24  C   UNL     1      -0.132   9.365  21.206  0.00  0.00    +0.000 C 
ATOM     25  C   UNL     1       0.602   9.716  19.938  0.00  0.00    +0.000 C 
ATOM     26  O   UNL     1       0.437  10.842  19.457  0.00  0.00    +0.000 OA
ENDBRANCH   1  25
BRANCH   5  27
ATOM     27  O   UNL     1       2.393   9.795  17.407  0.00  0.00    +0.000 OA
ATOM     28  H   UNL     1       2.181  10.614  17.901  0.00  0.00    +0.000 HD
ENDBRANCH   5  27
TORSDOF 4
ENDMDL
MODEL 3
REMARK VINA RESULT:      -6.4      4.792     10.039
REMARK  Name = 
REMARK  5 active torsions:
REMARK  status: ('A' for Active; 'I' for Inactive)
REMARK    1  A    between atoms: C_1  and  C_2
REMARK    2  A    between atoms: C_2  and  C_4
REMARK    3  A    between atoms: C_8  and  O_9
REMARK    4  A    between atoms: N_12  and  C_13
REMARK    5  A    between atoms: N_21  and  C_22
REMARK                            x       y       z     vdW  Elec       q    Type
REMARK                         _______ _______ _______ _____ _____    ______ ____
ROOT
ATOM      1  C   UNL     1       1.751   8.577  19.150  0.00  0.00    +0.000 A 
ATOM      2  S   UNL     1       1.913   7.129  20.045  0.00  0.00    +0.000 S 
ATOM      3  C   UNL     1       2.715   6.313  18.782  0.00  0.00    +0.000 A 
ATOM      4  C   UNL     1       3.137   7.211  17.833  0.00  0.00    +0.000 A 
ATOM      5  C   UNL     1       2.543   8.506  18.021  0.00  0.00    +0.000 A 
ATOM      6  C   UNL     1       4.045   6.789  16.791  0.00  0.00    +0.000 A 
ATOM      7  O   UNL     1       4.402   7.608  15.948  0.00  0.00    +0.000 OA
ATOM      8  N   UNL     1       4.427   5.431  16.849  0.00  0.00    +0.000 N 
ATOM      9  C   UNL     1       3.937   4.444  17.811  0.00  0.00    +0.000 A 
ATOM     10  S   UNL     1       4.420   2.799  17.753  0.00  0.00    +0.000 S 
ATOM     11  N   UNL     1       3.027   4.949  18.810  0.00  0.00    +0.000 N 
ENDROOT
BRANCH   8  12
ATOM     12  C   UNL     1       5.441   5.042  15.885  0.00  0.00    +0.000 A 
ATOM     13  C   UNL     1       5.060   4.423  14.684  0.00  0.00    +0.000 A 
ATOM     14  C   UNL     1       5.979   4.286  13.637  0.00  0.00    +0.000 A 
ATOM     15  C   UNL     1       7.285   4.751  13.783  0.00  0.00    +0.000 A 
ATOM     16  C   UNL     1       7.697   5.286  15.000  0.00  0.00    +0.000 A 
ATOM     17  C   UNL     1       6.789   5.395  16.056  0.00  0.00    +0.000 A 
ENDBRANCH   8  12
BRANCH  11  18
ATOM     18  C   UNL     1       2.369   4.112  19.810  0.00  0.00    +0.000 A 
ATOM     19  C   UNL     1       1.138   3.482  19.555  0.00  0.00    +0.000 A 
ATOM     20  C   UNL     1       0.478   2.729  20.534  0.00  0.00    +0.000 A 
ATOM     21  C   UNL     1       1.080   2.505  21.764  0.00  0.00    +0.000 A 
ATOM     22  C   UNL     1       2.314   3.081  22.034  0.00  0.00    +0.000 A 
ATOM     23  C   UNL     1       2.920   3.918  21.089  0.00  0.00    +0.000 A 
ENDBRANCH  11  18
BRANCH   1  25
ATOM     24  C   UNL     1       0.135   9.346  20.971  0.00  0.00    +0.000 C 
ATOM     25  C   UNL     1       0.888   9.624  19.696  0.00  0.00    +0.000 C 
ATOM     26  O   UNL     1       0.767  10.736  19.172  0.00  0.00    +0.000 OA
ENDBRANCH   1  25
BRANCH   5  27
ATOM     27  O   UNL     1       2.706   9.549  17.184  0.00  0.00    +0.000 OA
ATOM     28  H   UNL     1       3.051   9.243  16.320  0.00  0.00    +0.000 HD
ENDBRANCH   5  27
TORSDOF 4
ENDMDL
MODEL 4
REMARK VINA RESULT:      -6.3      0.498      1.123
REMARK  Name = 
REMARK  5 active torsions:
REMARK  status: ('A' for Active; 'I' for Inactive)
REMARK    1  A    between atoms: C_1  and  C_2
REMARK    2  A    between atoms: C_2  and  C_4
REMARK    3  A    between atoms: C_8  and  O_9
REMARK    4  A    between atoms: N_12  and  C_13
REMARK    5  A    between atoms: N_21  and  C_22
REMARK                            x       y       z     vdW  Elec       q    Type
REMARK                         _______ _______ _______ _____ _____    ______ ____
ROOT
ATOM      1  C   UNL     1       1.426   8.522  19.727  0.00  0.00    +0.000 A 
ATOM      2  S   UNL     1       0.483   9.354  18.569  0.00  0.00    +0.000 S 
ATOM      3  C   UNL     1      -0.485  10.115  19.746  0.00  0.00    +0.000 A 
ATOM      4  C   UNL     1       0.098   9.999  20.984  0.00  0.00    +0.000 A 
ATOM      5  C   UNL     1       1.172   9.044  20.981  0.00  0.00    +0.000 A 
ATOM      6  C   UNL     1      -0.410  10.766  22.097  0.00  0.00    +0.000 A 
ATOM      7  O   UNL     1       0.122  10.638  23.197  0.00  0.00    +0.000 OA
ATOM      8  N   UNL     1      -1.510  11.598  21.795  0.00  0.00    +0.000 N 
ATOM      9  C   UNL     1      -2.186  11.687  20.500  0.00  0.00    +0.000 A 
ATOM     10  S   UNL     1      -3.557  12.687  20.257  0.00  0.00    +0.000 S 
ATOM     11  N   UNL     1      -1.619  10.879  19.447  0.00  0.00    +0.000 N 
ENDROOT
BRANCH   8  12
ATOM     12  C   UNL     1      -1.933  12.466  22.878  0.00  0.00    +0.000 A 
ATOM     13  C   UNL     1      -1.240  13.661  23.126  0.00  0.00    +0.000 A 
ATOM     14  C   UNL     1      -1.784  14.632  23.975  0.00  0.00    +0.000 A 
ATOM     15  C   UNL     1      -3.013  14.414  24.594  0.00  0.00    +0.000 A 
ATOM     16  C   UNL     1      -3.668  13.197  24.425  0.00  0.00    +0.000 A 
ATOM     17  C   UNL     1      -3.111  12.215  23.602  0.00  0.00    +0.000 A 
ENDBRANCH   8  12
BRANCH  11  18
ATOM     18  C   UNL     1      -2.191  10.769  18.108  0.00  0.00    +0.000 A 
ATOM     19  C   UNL     1      -1.969  11.750  17.125  0.00  0.00    +0.000 A 
ATOM     20  C   UNL     1      -2.566  11.674  15.860  0.00  0.00    +0.000 A 
ATOM     21  C   UNL     1      -3.322  10.564  15.511  0.00  0.00    +0.000 A 
ATOM     22  C   UNL     1      -3.529   9.559  16.447  0.00  0.00    +0.000 A 
ATOM     23  C   UNL     1      -3.016   9.690  17.743  0.00  0.00    +0.000 A 
ENDBRANCH  11  18
BRANCH   1  25
ATOM     24  C   UNL     1       2.305   6.133  19.925  0.00  0.00    +0.000 C 
ATOM     25  C   UNL     1       2.333   7.479  19.248  0.00  0.00    +0.000 C 
ATOM     26  O   UNL     1       3.104   7.644  18.298  0.00  0.00    +0.000 OA
ENDBRANCH   1  25
BRANCH   5  27
ATOM     27  O   UNL     1       1.857   8.662  22.076  0.00  0.00    +0.000 OA
ATOM     28  H   UNL     1       1.437   7.877  22.485  0.00  0.00    +0.000 HD
ENDBRANCH   5  27
TORSDOF 4
ENDMDL
MODEL 5
REMARK VINA RESULT:      -6.1      0.406      1.366
REMARK  Name = 
REMARK  5 active torsions:
REMARK  status: ('A' for Active; 'I' for Inactive)
REMARK    1  A    between atoms: C_1  and  C_2
REMARK    2  A    between atoms: C_2  and  C_4
REMARK    3  A    between atoms: C_8  and  O_9
REMARK    4  A    between atoms: N_12  and  C_13
REMARK    5  A    between atoms: N_21  and  C_22
REMARK                            x       y       z     vdW  Elec       q    Type
REMARK                         _______ _______ _______ _____ _____    ______ ____
ROOT
ATOM      1  C   UNL     1       1.239   8.842  19.771  0.00  0.00    +0.000 A 
ATOM      2  S   UNL     1       0.275   9.561  18.556  0.00  0.00    +0.000 S 
ATOM      3  C   UNL     1      -0.744  10.342  19.676  0.00  0.00    +0.000 A 
ATOM      4  C   UNL     1      -0.174  10.323  20.925  0.00  0.00    +0.000 A 
ATOM      5  C   UNL     1       0.943   9.422  20.989  0.00  0.00    +0.000 A 
ATOM      6  C   UNL     1      -0.734  11.128  21.987  0.00  0.00    +0.000 A 
ATOM      7  O   UNL     1      -0.212  11.088  23.098  0.00  0.00    +0.000 OA
ATOM      8  N   UNL     1      -1.867  11.888  21.624  0.00  0.00    +0.000 N 
ATOM      9  C   UNL     1      -2.528  11.871  20.319  0.00  0.00    +0.000 A 
ATOM     10  S   UNL     1      -3.941  12.790  20.002  0.00  0.00    +0.000 S 
ATOM     11  N   UNL     1      -1.909  11.033  19.320  0.00  0.00    +0.000 N 
ENDROOT
BRANCH   8  12
ATOM     12  C   UNL     1      -2.346  12.796  22.651  0.00  0.00    +0.000 A 
ATOM     13  C   UNL     1      -3.387  12.397  23.503  0.00  0.00    +0.000 A 
ATOM     14  C   UNL     1      -3.679  13.135  24.656  0.00  0.00    +0.000 A 
ATOM     15  C   UNL     1      -2.948  14.281  24.960  0.00  0.00    +0.000 A 
ATOM     16  C   UNL     1      -1.972  14.735  24.077  0.00  0.00    +0.000 A 
ATOM     17  C   UNL     1      -1.701  14.016  22.910  0.00  0.00    +0.000 A 
ENDBRANCH   8  12
BRANCH  11  18
ATOM     18  C   UNL     1      -2.455  10.820  17.983  0.00  0.00    +0.000 A 
ATOM     19  C   UNL     1      -2.156  11.683  16.914  0.00  0.00    +0.000 A 
ATOM     20  C   UNL     1      -2.727  11.513  15.647  0.00  0.00    +0.000 A 
ATOM     21  C   UNL     1      -3.537  10.417  15.388  0.00  0.00    +0.000 A 
ATOM     22  C   UNL     1      -3.821   9.523  16.413  0.00  0.00    +0.000 A 
ATOM     23  C   UNL     1      -3.332   9.756  17.703  0.00  0.00    +0.000 A 
ENDBRANCH  11  18
BRANCH   1  25
ATOM     24  C   UNL     1       2.815   7.911  17.992  0.00  0.00    +0.000 C 
ATOM     25  C   UNL     1       2.200   7.818  19.364  0.00  0.00    +0.000 C 
ATOM     26  O   UNL     1       2.549   6.892  20.104  0.00  0.00    +0.000 OA
ENDBRANCH   1  25
BRANCH   5  27
ATOM     27  O   UNL     1       1.629   9.136  22.113  0.00  0.00    +0.000 OA
ATOM     28  H   UNL     1       1.570   8.179  22.315  0.00  0.00    +0.000 HD
ENDBRANCH   5  27
TORSDOF 4
ENDMDL
MODEL 6
REMARK VINA RESULT:      -6.1      4.046      5.855
REMARK  Name = 
REMARK  5 active torsions:
REMARK  status: ('A' for Active; 'I' for Inactive)
REMARK    1  A    between atoms: C_1  and  C_2
REMARK    2  A    between atoms: C_2  and  C_4
REMARK    3  A    between atoms: C_8  and  O_9
REMARK    4  A    between atoms: N_12  and  C_13
REMARK    5  A    between atoms: N_21  and  C_22
REMARK                            x       y       z     vdW  Elec       q    Type
REMARK                         _______ _______ _______ _____ _____    ______ ____
ROOT
ATOM      1  C   UNL     1      -3.818  11.143  16.806  0.00  0.00    +0.000 A 
ATOM      2  S   UNL     1      -2.574  11.029  17.973  0.00  0.00    +0.000 S 
ATOM      3  C   UNL     1      -3.427  11.948  19.128  0.00  0.00    +0.000 A 
ATOM      4  C   UNL     1      -4.746  12.059  18.761  0.00  0.00    +0.000 A 
ATOM      5  C   UNL     1      -4.961  11.637  17.405  0.00  0.00    +0.000 A 
ATOM      6  C   UNL     1      -5.714  12.585  19.696  0.00  0.00    +0.000 A 
ATOM      7  O   UNL     1      -6.887  12.683  19.342  0.00  0.00    +0.000 OA
ATOM      8  N   UNL     1      -5.189  12.954  20.952  0.00  0.00    +0.000 N 
ATOM      9  C   UNL     1      -3.778  12.905  21.339  0.00  0.00    +0.000 A 
ATOM     10  S   UNL     1      -3.238  13.439  22.877  0.00  0.00    +0.000 S 
ATOM     11  N   UNL     1      -2.879  12.377  20.343  0.00  0.00    +0.000 N 
ENDROOT
BRANCH   8  12
ATOM     12  C   UNL     1      -6.181  13.355  21.934  0.00  0.00    +0.000 A 
ATOM     13  C   UNL     1      -6.795  12.385  22.741  0.00  0.00    +0.000 A 
ATOM     14  C   UNL     1      -7.542  12.767  23.861  0.00  0.00    +0.000 A 
ATOM     15  C   UNL     1      -7.694  14.116  24.178  0.00  0.00    +0.000 A 
ATOM     16  C   UNL     1      -7.163  15.089  23.336  0.00  0.00    +0.000 A 
ATOM     17  C   UNL     1      -6.443  14.709  22.200  0.00  0.00    +0.000 A 
ENDBRANCH   8  12
BRANCH  11  18
ATOM     18  C   UNL     1      -1.429  12.315  20.504  0.00  0.00    +0.000 A 
ATOM     19  C   UNL     1      -0.596  13.385  20.131  0.00  0.00    +0.000 A 
ATOM     20  C   UNL     1       0.798  13.303  20.230  0.00  0.00    +0.000 A 
ATOM     21  C   UNL     1       1.393  12.184  20.797  0.00  0.00    +0.000 A 
ATOM     22  C   UNL     1       0.595  11.125  21.211  0.00  0.00    +0.000 A 
ATOM     23  C   UNL     1      -0.790  11.170  21.014  0.00  0.00    +0.000 A 
ENDBRANCH  11  18
BRANCH   1  25
ATOM     24  C   UNL     1      -2.473   9.629  15.251  0.00  0.00    +0.000 C 
ATOM     25  C   UNL     1      -3.522  10.693  15.446  0.00  0.00    +0.000 C 
ATOM     26  O   UNL     1      -4.110  11.128  14.451  0.00  0.00    +0.000 OA
ENDBRANCH   1  25
BRANCH   5  27
ATOM     27  O   UNL     1      -6.137  11.726  16.755  0.00  0.00    +0.000 OA
ATOM     28  H   UNL     1      -6.140  11.140  15.970  0.00  0.00    +0.000 HD
ENDBRANCH   5  27
TORSDOF 4
ENDMDL
MODEL 7
REMARK VINA RESULT:      -6.0      8.647     10.450
REMARK  Name = 
REMARK  5 active torsions:
REMARK  status: ('A' for Active; 'I' for Inactive)
REMARK    1  A    between atoms: C_1  and  C_2
REMARK    2  A    between atoms: C_2  and  C_4
REMARK    3  A    between atoms: C_8  and  O_9
REMARK    4  A    between atoms: N_12  and  C_13
REMARK    5  A    between atoms: N_21  and  C_22
REMARK                            x       y       z     vdW  Elec       q    Type
REMARK                         _______ _______ _______ _____ _____    ______ ____
ROOT
ATOM      1  C   UNL     1      10.285  13.323  19.215  0.00  0.00    +0.000 A 
ATOM      2  S   UNL     1       9.594  12.750  20.670  0.00  0.00    +0.000 S 
ATOM      3  C   UNL     1       8.217  13.744  20.532  0.00  0.00    +0.000 A 
ATOM      4  C   UNL     1       8.128  14.253  19.260  0.00  0.00    +0.000 A 
ATOM      5  C   UNL     1       9.340  14.048  18.516  0.00  0.00    +0.000 A 
ATOM      6  C   UNL     1       6.922  14.926  18.834  0.00  0.00    +0.000 A 
ATOM      7  O   UNL     1       6.869  15.381  17.694  0.00  0.00    +0.000 OA
ATOM      8  N   UNL     1       5.907  15.005  19.812  0.00  0.00    +0.000 N 
ATOM      9  C   UNL     1       6.008  14.529  21.191  0.00  0.00    +0.000 A 
ATOM     10  S   UNL     1       4.731  14.731  22.319  0.00  0.00    +0.000 S 
ATOM     11  N   UNL     1       7.249  13.878  21.535  0.00  0.00    +0.000 N 
ENDROOT
BRANCH   8  12
ATOM     12  C   UNL     1       4.651  15.561  19.342  0.00  0.00    +0.000 A 
ATOM     13  C   UNL     1       3.715  14.731  18.706  0.00  0.00    +0.000 A 
ATOM     14  C   UNL     1       2.405  15.176  18.491  0.00  0.00    +0.000 A 
ATOM     15  C   UNL     1       2.023  16.454  18.894  0.00  0.00    +0.000 A 
ATOM     16  C   UNL     1       2.965  17.317  19.446  0.00  0.00    +0.000 A 
ATOM     17  C   UNL     1       4.281  16.884  19.633  0.00  0.00    +0.000 A 
ENDBRANCH   8  12
BRANCH  11  18
ATOM     18  C   UNL     1       7.575  13.402  22.876  0.00  0.00    +0.000 A 
ATOM     19  C   UNL     1       8.215  14.226  23.819  0.00  0.00    +0.000 A 
ATOM     20  C   UNL     1       8.582  13.751  25.084  0.00  0.00    +0.000 A 
ATOM     21  C   UNL     1       8.231  12.467  25.476  0.00  0.00    +0.000 A 
ATOM     22  C   UNL     1       7.564  11.640  24.582  0.00  0.00    +0.000 A 
ATOM     23  C   UNL     1       7.293  12.085  23.283  0.00  0.00    +0.000 A 
ENDBRANCH  11  18
BRANCH   1  25
ATOM     24  C   UNL     1      12.333  11.909  19.786  0.00  0.00    +0.000 C 
ATOM     25  C   UNL     1      11.669  12.950  18.923  0.00  0.00    +0.000 C 
ATOM     26  O   UNL     1      12.311  13.434  17.985  0.00  0.00    +0.000 OA
ENDBRANCH   1  25
BRANCH   5  27
ATOM     27  O   UNL     1       9.564  14.526  17.277  0.00  0.00    +0.000 OA
ATOM     28  H   UNL     1       9.809  15.474  17.315  0.00  0.00    +0.000 HD
ENDBRANCH   5  27
TORSDOF 4
ENDMDL
MODEL 8
REMARK VINA RESULT:      -6.0      3.994      5.739
REMARK  Name = 
REMARK  5 active torsions:
REMARK  status: ('A' for Active; 'I' for Inactive)
REMARK    1  A    between atoms: C_1  and  C_2
REMARK    2  A    between atoms: C_2  and  C_4
REMARK    3  A    between atoms: C_8  and  O_9
REMARK    4  A    between atoms: N_12  and  C_13
REMARK    5  A    between atoms: N_21  and  C_22
REMARK                            x       y       z     vdW  Elec       q    Type
REMARK                         _______ _______ _______ _____ _____    ______ ____
ROOT
ATOM      1  C   UNL     1      -3.736  11.253  17.130  0.00  0.00    +0.000 A 
ATOM      2  S   UNL     1      -2.374  11.333  18.160  0.00  0.00    +0.000 S 
ATOM      3  C   UNL     1      -3.187  12.254  19.340  0.00  0.00    +0.000 A 
ATOM      4  C   UNL     1      -4.541  12.223  19.113  0.00  0.00    +0.000 A 
ATOM      5  C   UNL     1      -4.853  11.687  17.818  0.00  0.00    +0.000 A 
ATOM      6  C   UNL     1      -5.453  12.729  20.113  0.00  0.00    +0.000 A 
ATOM      7  O   UNL     1      -6.660  12.699  19.884  0.00  0.00    +0.000 OA
ATOM      8  N   UNL     1      -4.838  13.233  21.279  0.00  0.00    +0.000 N 
ATOM      9  C   UNL     1      -3.397  13.335  21.512  0.00  0.00    +0.000 A 
ATOM     10  S   UNL     1      -2.754  14.024  22.945  0.00  0.00    +0.000 S 
ATOM     11  N   UNL     1      -2.559  12.816  20.459  0.00  0.00    +0.000 N 
ENDROOT
BRANCH   8  12
ATOM     12  C   UNL     1      -5.757  13.616  22.336  0.00  0.00    +0.000 A 
ATOM     13  C   UNL     1      -6.308  14.907  22.346  0.00  0.00    +0.000 A 
ATOM     14  C   UNL     1      -7.388  15.208  23.185  0.00  0.00    +0.000 A 
ATOM     15  C   UNL     1      -7.916  14.232  24.029  0.00  0.00    +0.000 A 
ATOM     16  C   UNL     1      -7.321  12.975  24.090  0.00  0.00    +0.000 A 
ATOM     17  C   UNL     1      -6.224  12.683  23.276  0.00  0.00    +0.000 A 
ENDBRANCH   8  12
BRANCH  11  18
ATOM     18  C   UNL     1      -1.101  12.893  20.465  0.00  0.00    +0.000 A 
ATOM     19  C   UNL     1      -0.416  14.006  19.946  0.00  0.00    +0.000 A 
ATOM     20  C   UNL     1       0.983  14.054  19.897  0.00  0.00    +0.000 A 
ATOM     21  C   UNL     1       1.736  13.030  20.455  0.00  0.00    +0.000 A 
ATOM     22  C   UNL     1       1.089  11.934  21.011  0.00  0.00    +0.000 A 
ATOM     23  C   UNL     1      -0.307  11.844  20.964  0.00  0.00    +0.000 A 
ENDBRANCH  11  18
BRANCH   1  25
ATOM     24  C   UNL     1      -2.655   9.528  15.589  0.00  0.00    +0.000 C 
ATOM     25  C   UNL     1      -3.540  10.732  15.777  0.00  0.00    +0.000 C 
ATOM     26  O   UNL     1      -4.087  11.222  14.783  0.00  0.00    +0.000 OA
ENDBRANCH   1  25
BRANCH   5  27
ATOM     27  O   UNL     1      -6.093  11.626  17.296  0.00  0.00    +0.000 OA
ATOM     28  H   UNL     1      -6.545  10.805  17.582  0.00  0.00    +0.000 HD
ENDBRANCH   5  27
TORSDOF 4
ENDMDL
MODEL 9
REMARK VINA RESULT:      -5.9      3.287      4.034
REMARK  Name = 
REMARK  5 active torsions:
REMARK  status: ('A' for Active; 'I' for Inactive)
REMARK    1  A    between atoms: C_1  and  C_2
REMARK    2  A    between atoms: C_2  and  C_4
REMARK    3  A    between atoms: C_8  and  O_9
REMARK    4  A    between atoms: N_12  and  C_13
REMARK    5  A    between atoms: N_21  and  C_22
REMARK                            x       y       z     vdW  Elec       q    Type
REMARK                         _______ _______ _______ _____ _____    ______ ____
ROOT
ATOM      1  C   UNL     1       0.076  13.093  20.278  0.00  0.00    +0.000 A 
ATOM      2  S   UNL     1      -0.824  12.633  18.899  0.00  0.00    +0.000 S 
ATOM      3  C   UNL     1      -2.292  12.534  19.757  0.00  0.00    +0.000 A 
ATOM      4  C   UNL     1      -2.167  13.147  20.980  0.00  0.00    +0.000 A 
ATOM      5  C   UNL     1      -0.794  13.428  21.298  0.00  0.00    +0.000 A 
ATOM      6  C   UNL     1      -3.339  13.402  21.785  0.00  0.00    +0.000 A 
ATOM      7  O   UNL     1      -3.201  13.944  22.879  0.00  0.00    +0.000 OA
ATOM      8  N   UNL     1      -4.557  12.973  21.214  0.00  0.00    +0.000 N 
ATOM      9  C   UNL     1      -4.705  12.260  19.946  0.00  0.00    +0.000 A 
ATOM     10  S   UNL     1      -6.232  11.728  19.374  0.00  0.00    +0.000 S 
ATOM     11  N   UNL     1      -3.483  12.039  19.212  0.00  0.00    +0.000 N 
ENDROOT
BRANCH   8  12
ATOM     12  C   UNL     1      -5.745  13.348  21.961  0.00  0.00    +0.000 A 
ATOM     13  C   UNL     1      -6.185  12.542  23.022  0.00  0.00    +0.000 A 
ATOM     14  C   UNL     1      -7.153  13.016  23.916  0.00  0.00    +0.000 A 
ATOM     15  C   UNL     1      -7.698  14.288  23.751  0.00  0.00    +0.000 A 
ATOM     16  C   UNL     1      -7.333  15.061  22.652  0.00  0.00    +0.000 A 
ATOM     17  C   UNL     1      -6.390  14.577  21.742  0.00  0.00    +0.000 A 
ENDBRANCH   8  12
BRANCH  11  18
ATOM     18  C   UNL     1      -3.407  11.282  17.965  0.00  0.00    +0.000 A 
ATOM     19  C   UNL     1      -2.647  10.103  17.859  0.00  0.00    +0.000 A 
ATOM     20  C   UNL     1      -2.526   9.411  16.648  0.00  0.00    +0.000 A 
ATOM     21  C   UNL     1      -3.241   9.825  15.533  0.00  0.00    +0.000 A 
ATOM     22  C   UNL     1      -4.031  10.964  15.615  0.00  0.00    +0.000 A 
ATOM     23  C   UNL     1      -4.066  11.711  16.799  0.00  0.00    +0.000 A 
ENDBRANCH  11  18
BRANCH   1  25
ATOM     24  C   UNL     1       2.156  13.104  18.797  0.00  0.00    +0.000 C 
ATOM     25  C   UNL     1       1.534  13.104  20.170  0.00  0.00    +0.000 C 
ATOM     26  O   UNL     1       2.281  13.138  21.153  0.00  0.00    +0.000 OA
ENDBRANCH   1  25
BRANCH   5  27
ATOM     27  O   UNL     1      -0.372  13.939  22.470  0.00  0.00    +0.000 OA
ATOM     28  H   UNL     1       0.223  13.306  22.925  0.00  0.00    +0.000 HD
ENDBRANCH   5  27
TORSDOF 4
ENDMDL
