MODEL 1
REMARK VINA RESULT:      -6.6      0.000      0.000
REMARK  Name = 
REMARK  9 active torsions:
REMARK  status: ('A' for Active; 'I' for Inactive)
REMARK    1  A    between atoms: C_1  and  C_2
REMARK    2  A    between atoms: C_2  and  C_3
REMARK    3  A    between atoms: C_7  and  C_8
REMARK    4  A    between atoms: N_10  and  C_11
REMARK    5  A    between atoms: C_11  and  C_12
REMARK    6  A    between atoms: N_14  and  C_15
REMARK    7  A    between atoms: C_15  and  C_16
REMARK    8  A    between atoms: C_16  and  C_17
REMARK    9  A    between atoms: C_16  and  C_18
REMARK                            x       y       z     vdW  Elec       q    Type
REMARK                         _______ _______ _______ _____ _____    ______ ____
ROOT
ATOM      1  C   UNL     1       5.924   4.532  18.753  0.00  0.00    +0.000 C 
ATOM      2  O   UNL     1       5.877   5.010  19.881  0.00  0.00    +0.000 OA
ATOM      3  N   UNL     1       5.339   3.309  18.493  0.00  0.00    +0.000 N 
ATOM      4  H   UNL     1       5.147   3.027  17.543  0.00  0.00    +0.000 HD
ENDROOT
BRANCH   1   9
ATOM      5  C   UNL     1       6.714   4.931  16.276  0.00  0.00    +0.000 A 
ATOM      6  N   UNL     1       7.461   5.886  15.586  0.00  0.00    +0.000 NA
ATOM      7  N   UNL     1       7.901   6.847  16.373  0.00  0.00    +0.000 NA
ATOM      8  S   UNL     1       7.438   6.646  17.958  0.00  0.00    +0.000 S 
ATOM      9  C   UNL     1       6.567   5.188  17.636  0.00  0.00    +0.000 A 
BRANCH   5  11
ATOM     10  C   UNL     1       6.214   4.094  13.960  0.00  0.00    +0.000 C 
ATOM     11  C   UNL     1       6.229   3.782  15.450  0.00  0.00    +0.000 C 
ENDBRANCH   5  11
ENDBRANCH   1   9
BRANCH   3  12
ATOM     12  C   UNL     1       4.578   2.615  19.510  0.00  0.00    +0.000 C 
BRANCH  12  13
ATOM     13  C   UNL     1       3.094   2.988  19.520  0.00  0.00    +0.000 C 
ATOM     14  C   UNL     1       2.625   3.558  20.880  0.00  0.00    +0.000 C 
ATOM     15  N   UNL     1       1.216   4.052  20.829  0.00  0.00    +0.000 NA
ATOM     16  C   UNL     1       0.384   2.921  20.359  0.00  0.00    +0.000 C 
ATOM     17  C   UNL     1       0.898   2.235  19.076  0.00  0.00    +0.000 C 
ATOM     18  O   UNL     1       2.283   1.848  19.170  0.00  0.00    +0.000 OA
BRANCH  15  19
ATOM     19  C   UNL     1       1.146   5.249  19.968  0.00  0.00    +0.000 C 
BRANCH  19  20
ATOM     20  C   UNL     1       2.217   6.343  20.147  0.00  0.00    +0.000 C 
ATOM     21  C   UNL     1       2.872   6.760  18.834  0.00  0.00    +0.000 C 
ATOM     22  C   UNL     1       1.548   7.558  20.805  0.00  0.00    +0.000 C 
ENDBRANCH  19  20
ENDBRANCH  15  19
ENDBRANCH  12  13
ENDBRANCH   3  12
TORSDOF 6
ENDMDL
MODEL 2
REMARK VINA RESULT:      -6.6      1.851      2.396
REMARK  Name = 
REMARK  9 active torsions:
REMARK  status: ('A' for Active; 'I' for Inactive)
REMARK    1  A    between atoms: C_1  and  C_2
REMARK    2  A    between atoms: C_2  and  C_3
REMARK    3  A    between atoms: C_7  and  C_8
REMARK    4  A    between atoms: N_10  and  C_11
REMARK    5  A    between atoms: C_11  and  C_12
REMARK    6  A    between atoms: N_14  and  C_15
REMARK    7  A    between atoms: C_15  and  C_16
REMARK    8  A    between atoms: C_16  and  C_17
REMARK    9  A    between atoms: C_16  and  C_18
REMARK                            x       y       z     vdW  Elec       q    Type
REMARK                         _______ _______ _______ _____ _____    ______ ____
ROOT
ATOM      1  C   UNL     1       4.507   3.857  16.536  0.00  0.00    +0.000 C 
ATOM      2  O   UNL     1       3.354   4.228  16.346  0.00  0.00    +0.000 OA
ATOM      3  N   UNL     1       4.768   2.822  17.412  0.00  0.00    +0.000 N 
ATOM      4  H   UNL     1       5.657   2.344  17.387  0.00  0.00    +0.000 HD
ENDROOT
BRANCH   1   9
ATOM      5  C   UNL     1       6.756   5.195  16.272  0.00  0.00    +0.000 A 
ATOM      6  N   UNL     1       7.610   5.557  15.230  0.00  0.00    +0.000 NA
ATOM      7  N   UNL     1       7.187   5.127  14.058  0.00  0.00    +0.000 NA
ATOM      8  S   UNL     1       5.761   4.276  14.161  0.00  0.00    +0.000 S 
ATOM      9  C   UNL     1       5.652   4.445  15.877  0.00  0.00    +0.000 A 
BRANCH   5  11
ATOM     10  C   UNL     1       7.399   7.201  17.642  0.00  0.00    +0.000 C 
ATOM     11  C   UNL     1       7.150   5.699  17.624  0.00  0.00    +0.000 C 
ENDBRANCH   5  11
ENDBRANCH   1   9
BRANCH   3  12
ATOM     12  C   UNL     1       3.691   2.091  18.045  0.00  0.00    +0.000 C 
BRANCH  12  13
ATOM     13  C   UNL     1       2.810   2.962  18.943  0.00  0.00    +0.000 C 
ATOM     14  C   UNL     1       3.626   3.953  19.809  0.00  0.00    +0.000 C 
ATOM     15  N   UNL     1       2.748   4.893  20.569  0.00  0.00    +0.000 NA
ATOM     16  C   UNL     1       1.820   4.060  21.366  0.00  0.00    +0.000 C 
ATOM     17  C   UNL     1       1.087   2.966  20.561  0.00  0.00    +0.000 C 
ATOM     18  O   UNL     1       1.989   2.141  19.798  0.00  0.00    +0.000 OA
BRANCH  15  19
ATOM     19  C   UNL     1       2.077   5.809  19.626  0.00  0.00    +0.000 C 
BRANCH  19  20
ATOM     20  C   UNL     1       2.372   7.318  19.736  0.00  0.00    +0.000 C 
ATOM     21  C   UNL     1       2.211   8.058  18.412  0.00  0.00    +0.000 C 
ATOM     22  C   UNL     1       1.419   7.911  20.785  0.00  0.00    +0.000 C 
ENDBRANCH  19  20
ENDBRANCH  15  19
ENDBRANCH  12  13
ENDBRANCH   3  12
TORSDOF 6
ENDMDL
MODEL 3
REMARK VINA RESULT:      -6.5      1.515      1.618
REMARK  Name = 
REMARK  9 active torsions:
REMARK  status: ('A' for Active; 'I' for Inactive)
REMARK    1  A    between atoms: C_1  and  C_2
REMARK    2  A    between atoms: C_2  and  C_3
REMARK    3  A    between atoms: C_7  and  C_8
REMARK    4  A    between atoms: N_10  and  C_11
REMARK    5  A    between atoms: C_11  and  C_12
REMARK    6  A    between atoms: N_14  and  C_15
REMARK    7  A    between atoms: C_15  and  C_16
REMARK    8  A    between atoms: C_16  and  C_17
REMARK    9  A    between atoms: C_16  and  C_18
REMARK                            x       y       z     vdW  Elec       q    Type
REMARK                         _______ _______ _______ _____ _____    ______ ____
ROOT
ATOM      1  C   UNL     1       4.562   3.951  16.730  0.00  0.00    +0.000 C 
ATOM      2  O   UNL     1       3.430   4.134  16.295  0.00  0.00    +0.000 OA
ATOM      3  N   UNL     1       4.785   3.000  17.705  0.00  0.00    +0.000 N 
ATOM      4  H   UNL     1       5.720   2.664  17.886  0.00  0.00    +0.000 HD
ENDROOT
BRANCH   1   9
ATOM      5  C   UNL     1       6.527   4.671  15.137  0.00  0.00    +0.000 A 
ATOM      6  N   UNL     1       7.574   5.594  15.163  0.00  0.00    +0.000 NA
ATOM      7  N   UNL     1       7.603   6.293  16.279  0.00  0.00    +0.000 NA
ATOM      8  S   UNL     1       6.384   5.877  17.332  0.00  0.00    +0.000 S 
ATOM      9  C   UNL     1       5.720   4.685  16.271  0.00  0.00    +0.000 A 
BRANCH   5  11
ATOM     10  C   UNL     1       5.126   3.888  13.204  0.00  0.00    +0.000 C 
ATOM     11  C   UNL     1       6.469   3.806  13.918  0.00  0.00    +0.000 C 
ENDBRANCH   5  11
ENDBRANCH   1   9
BRANCH   3  12
ATOM     12  C   UNL     1       3.718   2.135  18.162  0.00  0.00    +0.000 C 
BRANCH  12  13
ATOM     13  C   UNL     1       2.798   2.795  19.191  0.00  0.00    +0.000 C 
ATOM     14  C   UNL     1       3.548   3.769  20.134  0.00  0.00    +0.000 C 
ATOM     15  N   UNL     1       2.616   4.512  21.033  0.00  0.00    +0.000 NA
ATOM     16  C   UNL     1       1.826   3.496  21.764  0.00  0.00    +0.000 C 
ATOM     17  C   UNL     1       1.173   2.423  20.867  0.00  0.00    +0.000 C 
ATOM     18  O   UNL     1       2.117   1.796  19.977  0.00  0.00    +0.000 OA
BRANCH  15  19
ATOM     19  C   UNL     1       1.802   5.447  20.232  0.00  0.00    +0.000 C 
BRANCH  19  20
ATOM     20  C   UNL     1       2.450   6.762  19.757  0.00  0.00    +0.000 C 
ATOM     21  C   UNL     1       2.448   6.916  18.240  0.00  0.00    +0.000 C 
ATOM     22  C   UNL     1       1.686   7.927  20.401  0.00  0.00    +0.000 C 
ENDBRANCH  19  20
ENDBRANCH  15  19
ENDBRANCH  12  13
ENDBRANCH   3  12
TORSDOF 6
ENDMDL
MODEL 4
REMARK VINA RESULT:      -6.5      1.330      1.979
REMARK  Name = 
REMARK  9 active torsions:
REMARK  status: ('A' for Active; 'I' for Inactive)
REMARK    1  A    between atoms: C_1  and  C_2
REMARK    2  A    between atoms: C_2  and  C_3
REMARK    3  A    between atoms: C_7  and  C_8
REMARK    4  A    between atoms: N_10  and  C_11
REMARK    5  A    between atoms: C_11  and  C_12
REMARK    6  A    between atoms: N_14  and  C_15
REMARK    7  A    between atoms: C_15  and  C_16
REMARK    8  A    between atoms: C_16  and  C_17
REMARK    9  A    between atoms: C_16  and  C_18
REMARK                            x       y       z     vdW  Elec       q    Type
REMARK                         _______ _______ _______ _____ _____    ______ ____
ROOT
ATOM      1  C   UNL     1       5.635   4.757  18.654  0.00  0.00    +0.000 C 
ATOM      2  O   UNL     1       5.133   5.487  19.502  0.00  0.00    +0.000 OA
ATOM      3  N   UNL     1       5.489   3.387  18.744  0.00  0.00    +0.000 N 
ATOM      4  H   UNL     1       5.667   2.801  17.941  0.00  0.00    +0.000 HD
ENDROOT
BRANCH   1   9
ATOM      5  C   UNL     1       7.342   6.243  17.314  0.00  0.00    +0.000 A 
ATOM      6  N   UNL     1       7.780   6.353  15.993  0.00  0.00    +0.000 NA
ATOM      7  N   UNL     1       7.184   5.494  15.191  0.00  0.00    +0.000 NA
ATOM      8  S   UNL     1       6.085   4.527  15.983  0.00  0.00    +0.000 S 
ATOM      9  C   UNL     1       6.390   5.250  17.523  0.00  0.00    +0.000 A 
BRANCH   5  11
ATOM     10  C   UNL     1       7.877   8.658  17.753  0.00  0.00    +0.000 C 
ATOM     11  C   UNL     1       7.940   7.227  18.268  0.00  0.00    +0.000 C 
ENDBRANCH   5  11
ENDBRANCH   1   9
BRANCH   3  12
ATOM     12  C   UNL     1       4.664   2.791  19.774  0.00  0.00    +0.000 C 
BRANCH  12  13
ATOM     13  C   UNL     1       3.192   3.199  19.687  0.00  0.00    +0.000 C 
ATOM     14  C   UNL     1       2.714   3.998  20.924  0.00  0.00    +0.000 C 
ATOM     15  N   UNL     1       1.321   4.514  20.758  0.00  0.00    +0.000 NA
ATOM     16  C   UNL     1       0.465   3.343  20.461  0.00  0.00    +0.000 C 
ATOM     17  C   UNL     1       0.983   2.441  19.321  0.00  0.00    +0.000 C 
ATOM     18  O   UNL     1       2.354   2.039  19.511  0.00  0.00    +0.000 OA
BRANCH  15  19
ATOM     19  C   UNL     1       1.304   5.554  19.711  0.00  0.00    +0.000 C 
BRANCH  19  20
ATOM     20  C   UNL     1       2.109   6.846  19.948  0.00  0.00    +0.000 C 
ATOM     21  C   UNL     1       2.399   7.615  18.664  0.00  0.00    +0.000 C 
ATOM     22  C   UNL     1       1.310   7.730  20.917  0.00  0.00    +0.000 C 
ENDBRANCH  19  20
ENDBRANCH  15  19
ENDBRANCH  12  13
ENDBRANCH   3  12
TORSDOF 6
ENDMDL
MODEL 5
REMARK VINA RESULT:      -6.4      4.147      7.610
REMARK  Name = 
REMARK  9 active torsions:
REMARK  status: ('A' for Active; 'I' for Inactive)
REMARK    1  A    between atoms: C_1  and  C_2
REMARK    2  A    between atoms: C_2  and  C_3
REMARK    3  A    between atoms: C_7  and  C_8
REMARK    4  A    between atoms: N_10  and  C_11
REMARK    5  A    between atoms: C_11  and  C_12
REMARK    6  A    between atoms: N_14  and  C_15
REMARK    7  A    between atoms: C_15  and  C_16
REMARK    8  A    between atoms: C_16  and  C_17
REMARK    9  A    between atoms: C_16  and  C_18
REMARK                            x       y       z     vdW  Elec       q    Type
REMARK                         _______ _______ _______ _____ _____    ______ ____
ROOT
ATOM      1  C   UNL     1       1.042   9.703  19.519  0.00  0.00    +0.000 C 
ATOM      2  O   UNL     1       0.926  10.460  18.561  0.00  0.00    +0.000 OA
ATOM      3  N   UNL     1       1.629   8.465  19.358  0.00  0.00    +0.000 N 
ATOM      4  H   UNL     1       1.959   7.948  20.160  0.00  0.00    +0.000 HD
ENDROOT
BRANCH   1   9
ATOM      5  C   UNL     1      -0.214  11.013  21.424  0.00  0.00    +0.000 A 
ATOM      6  N   UNL     1      -0.337  10.924  22.811  0.00  0.00    +0.000 NA
ATOM      7  N   UNL     1       0.361   9.928  23.317  0.00  0.00    +0.000 NA
ATOM      8  S   UNL     1       1.185   9.064  22.157  0.00  0.00    +0.000 S 
ATOM      9  C   UNL     1       0.595  10.034  20.854  0.00  0.00    +0.000 A 
BRANCH   5  11
ATOM     10  C   UNL     1      -2.132  12.625  21.615  0.00  0.00    +0.000 C 
ATOM     11  C   UNL     1      -0.940  12.157  20.790  0.00  0.00    +0.000 C 
ENDBRANCH   5  11
ENDBRANCH   1   9
BRANCH   3  12
ATOM     12  C   UNL     1       2.208   8.072  18.090  0.00  0.00    +0.000 C 
BRANCH  12  13
ATOM     13  C   UNL     1       3.000   6.765  18.162  0.00  0.00    +0.000 C 
ATOM     14  C   UNL     1       3.078   6.185  19.595  0.00  0.00    +0.000 C 
ATOM     15  N   UNL     1       3.726   4.839  19.624  0.00  0.00    +0.000 NA
ATOM     16  C   UNL     1       5.055   4.991  18.990  0.00  0.00    +0.000 C 
ATOM     17  C   UNL     1       5.034   5.692  17.615  0.00  0.00    +0.000 C 
ATOM     18  O   UNL     1       4.333   6.951  17.645  0.00  0.00    +0.000 OA
BRANCH  15  19
ATOM     19  C   UNL     1       2.849   3.857  18.957  0.00  0.00    +0.000 C 
BRANCH  19  20
ATOM     20  C   UNL     1       1.483   3.543  19.596  0.00  0.00    +0.000 C 
ATOM     21  C   UNL     1       0.696   2.481  18.836  0.00  0.00    +0.000 C 
ATOM     22  C   UNL     1       1.730   3.076  21.038  0.00  0.00    +0.000 C 
ENDBRANCH  19  20
ENDBRANCH  15  19
ENDBRANCH  12  13
ENDBRANCH   3  12
TORSDOF 6
ENDMDL
MODEL 6
REMARK VINA RESULT:      -6.3      3.167      7.324
REMARK  Name = 
REMARK  9 active torsions:
REMARK  status: ('A' for Active; 'I' for Inactive)
REMARK    1  A    between atoms: C_1  and  C_2
REMARK    2  A    between atoms: C_2  and  C_3
REMARK    3  A    between atoms: C_7  and  C_8
REMARK    4  A    between atoms: N_10  and  C_11
REMARK    5  A    between atoms: C_11  and  C_12
REMARK    6  A    between atoms: N_14  and  C_15
REMARK    7  A    between atoms: C_15  and  C_16
REMARK    8  A    between atoms: C_16  and  C_17
REMARK    9  A    between atoms: C_16  and  C_18
REMARK                            x       y       z     vdW  Elec       q    Type
REMARK                         _______ _______ _______ _____ _____    ______ ____
ROOT
ATOM      1  C   UNL     1       2.335   7.045  19.274  0.00  0.00    +0.000 C 
ATOM      2  O   UNL     1       2.598   6.345  20.247  0.00  0.00    +0.000 OA
ATOM      3  N   UNL     1       2.614   6.594  18.000  0.00  0.00    +0.000 N 
ATOM      4  H   UNL     1       2.182   7.030  17.198  0.00  0.00    +0.000 HD
ENDROOT
BRANCH   1   9
ATOM      5  C   UNL     1       1.022   9.055  20.348  0.00  0.00    +0.000 A 
ATOM      6  N   UNL     1       0.611  10.329  19.955  0.00  0.00    +0.000 NA
ATOM      7  N   UNL     1       0.960  10.613  18.717  0.00  0.00    +0.000 NA
ATOM      8  S   UNL     1       1.791   9.373  17.981  0.00  0.00    +0.000 S 
ATOM      9  C   UNL     1       1.727   8.353  19.375  0.00  0.00    +0.000 A 
BRANCH   5  11
ATOM     10  C   UNL     1       0.047   9.808  22.538  0.00  0.00    +0.000 C 
ATOM     11  C   UNL     1       0.610   8.648  21.727  0.00  0.00    +0.000 C 
ENDBRANCH   5  11
ENDBRANCH   1   9
BRANCH   3  12
ATOM     12  C   UNL     1       3.125   5.258  17.776  0.00  0.00    +0.000 C 
BRANCH  12  13
ATOM     13  C   UNL     1       4.434   5.232  16.984  0.00  0.00    +0.000 C 
ATOM     14  C   UNL     1       4.877   3.800  16.597  0.00  0.00    +0.000 C 
ATOM     15  N   UNL     1       6.073   3.802  15.702  0.00  0.00    +0.000 NA
ATOM     16  C   UNL     1       7.131   4.564  16.405  0.00  0.00    +0.000 C 
ATOM     17  C   UNL     1       6.686   5.946  16.928  0.00  0.00    +0.000 C 
ATOM     18  O   UNL     1       5.488   5.878  17.726  0.00  0.00    +0.000 OA
BRANCH  15  19
ATOM     19  C   UNL     1       5.702   4.360  14.387  0.00  0.00    +0.000 C 
BRANCH  19  20
ATOM     20  C   UNL     1       6.259   3.682  13.121  0.00  0.00    +0.000 C 
ATOM     21  C   UNL     1       5.176   3.321  12.109  0.00  0.00    +0.000 C 
ATOM     22  C   UNL     1       7.275   4.638  12.479  0.00  0.00    +0.000 C 
ENDBRANCH  19  20
ENDBRANCH  15  19
ENDBRANCH  12  13
ENDBRANCH   3  12
TORSDOF 6
ENDMDL
MODEL 7
REMARK VINA RESULT:      -6.3      2.634      6.693
REMARK  Name = 
REMARK  9 active torsions:
REMARK  status: ('A' for Active; 'I' for Inactive)
REMARK    1  A    between atoms: C_1  and  C_2
REMARK    2  A    between atoms: C_2  and  C_3
REMARK    3  A    between atoms: C_7  and  C_8
REMARK    4  A    between atoms: N_10  and  C_11
REMARK    5  A    between atoms: C_11  and  C_12
REMARK    6  A    between atoms: N_14  and  C_15
REMARK    7  A    between atoms: C_15  and  C_16
REMARK    8  A    between atoms: C_16  and  C_17
REMARK    9  A    between atoms: C_16  and  C_18
REMARK                            x       y       z     vdW  Elec       q    Type
REMARK                         _______ _______ _______ _____ _____    ______ ____
ROOT
ATOM      1  C   UNL     1       3.311   5.183  19.209  0.00  0.00    +0.000 C 
ATOM      2  O   UNL     1       4.236   5.732  19.799  0.00  0.00    +0.000 OA
ATOM      3  N   UNL     1       2.951   5.600  17.944  0.00  0.00    +0.000 N 
ATOM      4  H   UNL     1       2.380   5.010  17.355  0.00  0.00    +0.000 HD
ENDROOT
BRANCH   1   9
ATOM      5  C   UNL     1       2.119   2.842  19.320  0.00  0.00    +0.000 A 
ATOM      6  N   UNL     1       1.370   2.122  20.253  0.00  0.00    +0.000 NA
ATOM      7  N   UNL     1       1.202   2.781  21.381  0.00  0.00    +0.000 NA
ATOM      8  S   UNL     1       1.931   4.277  21.369  0.00  0.00    +0.000 S 
ATOM      9  C   UNL     1       2.550   4.087  19.766  0.00  0.00    +0.000 A 
BRANCH   5  11
ATOM     10  C   UNL     1       3.638   1.450  17.882  0.00  0.00    +0.000 C 
ATOM     11  C   UNL     1       2.302   2.172  17.995  0.00  0.00    +0.000 C 
ENDBRANCH   5  11
ENDBRANCH   1   9
BRANCH   3  12
ATOM     12  C   UNL     1       3.712   6.617  17.248  0.00  0.00    +0.000 C 
BRANCH  12  13
ATOM     13  C   UNL     1       4.970   6.074  16.566  0.00  0.00    +0.000 C 
ATOM     14  C   UNL     1       4.904   4.549  16.305  0.00  0.00    +0.000 C 
ATOM     15  N   UNL     1       6.072   4.063  15.510  0.00  0.00    +0.000 NA
ATOM     16  C   UNL     1       7.290   4.470  16.247  0.00  0.00    +0.000 C 
ATOM     17  C   UNL     1       7.329   5.960  16.648  0.00  0.00    +0.000 C 
ATOM     18  O   UNL     1       6.142   6.378  17.349  0.00  0.00    +0.000 OA
BRANCH  15  19
ATOM     19  C   UNL     1       5.990   4.600  14.138  0.00  0.00    +0.000 C 
BRANCH  19  20
ATOM     20  C   UNL     1       6.127   3.618  12.958  0.00  0.00    +0.000 C 
ATOM     21  C   UNL     1       4.821   3.405  12.201  0.00  0.00    +0.000 C 
ATOM     22  C   UNL     1       7.198   4.170  12.005  0.00  0.00    +0.000 C 
ENDBRANCH  19  20
ENDBRANCH  15  19
ENDBRANCH  12  13
ENDBRANCH   3  12
TORSDOF 6
ENDMDL
MODEL 8
REMARK VINA RESULT:      -6.3      2.776      6.893
REMARK  Name = 
REMARK  9 active torsions:
REMARK  status: ('A' for Active; 'I' for Inactive)
REMARK    1  A    between atoms: C_1  and  C_2
REMARK    2  A    between atoms: C_2  and  C_3
REMARK    3  A    between atoms: C_7  and  C_8
REMARK    4  A    between atoms: N_10  and  C_11
REMARK    5  A    between atoms: C_11  and  C_12
REMARK    6  A    between atoms: N_14  and  C_15
REMARK    7  A    between atoms: C_15  and  C_16
REMARK    8  A    between atoms: C_16  and  C_17
REMARK    9  A    between atoms: C_16  and  C_18
REMARK                            x       y       z     vdW  Elec       q    Type
REMARK                         _______ _______ _______ _____ _____    ______ ____
ROOT
ATOM      1  C   UNL     1       2.661   4.566  18.697  0.00  0.00    +0.000 C 
ATOM      2  O   UNL     1       1.760   4.578  17.865  0.00  0.00    +0.000 OA
ATOM      3  N   UNL     1       3.803   5.314  18.494  0.00  0.00    +0.000 N 
ATOM      4  H   UNL     1       4.425   5.516  19.263  0.00  0.00    +0.000 HD
ENDROOT
BRANCH   1   9
ATOM      5  C   UNL     1       3.294   2.718  20.458  0.00  0.00    +0.000 A 
ATOM      6  N   UNL     1       2.846   2.313  21.717  0.00  0.00    +0.000 NA
ATOM      7  N   UNL     1       1.832   3.036  22.148  0.00  0.00    +0.000 NA
ATOM      8  S   UNL     1       1.381   4.221  21.071  0.00  0.00    +0.000 S 
ATOM      9  C   UNL     1       2.603   3.801  19.923  0.00  0.00    +0.000 A 
BRANCH   5  11
ATOM     10  C   UNL     1       4.012   1.178  18.608  0.00  0.00    +0.000 C 
ATOM     11  C   UNL     1       4.410   1.904  19.886  0.00  0.00    +0.000 C 
ENDBRANCH   5  11
ENDBRANCH   1   9
BRANCH   3  12
ATOM     12  C   UNL     1       3.922   6.199  17.354  0.00  0.00    +0.000 C 
BRANCH  12  13
ATOM     13  C   UNL     1       4.991   5.758  16.351  0.00  0.00    +0.000 C 
ATOM     14  C   UNL     1       5.072   4.220  16.193  0.00  0.00    +0.000 C 
ATOM     15  N   UNL     1       6.015   3.814  15.107  0.00  0.00    +0.000 NA
ATOM     16  C   UNL     1       7.323   4.430  15.425  0.00  0.00    +0.000 C 
ATOM     17  C   UNL     1       7.263   5.943  15.726  0.00  0.00    +0.000 C 
ATOM     18  O   UNL     1       6.284   6.271  16.732  0.00  0.00    +0.000 OA
BRANCH  15  19
ATOM     19  C   UNL     1       5.461   4.216  13.800  0.00  0.00    +0.000 C 
BRANCH  19  20
ATOM     20  C   UNL     1       5.736   3.315  12.580  0.00  0.00    +0.000 C 
ATOM     21  C   UNL     1       4.571   3.266  11.597  0.00  0.00    +0.000 C 
ATOM     22  C   UNL     1       6.993   3.844  11.874  0.00  0.00    +0.000 C 
ENDBRANCH  19  20
ENDBRANCH  15  19
ENDBRANCH  12  13
ENDBRANCH   3  12
TORSDOF 6
ENDMDL
MODEL 9
REMARK VINA RESULT:      -6.2      4.359      7.869
REMARK  Name = 
REMARK  9 active torsions:
REMARK  status: ('A' for Active; 'I' for Inactive)
REMARK    1  A    between atoms: C_1  and  C_2
REMARK    2  A    between atoms: C_2  and  C_3
REMARK    3  A    between atoms: C_7  and  C_8
REMARK    4  A    between atoms: N_10  and  C_11
REMARK    5  A    between atoms: C_11  and  C_12
REMARK    6  A    between atoms: N_14  and  C_15
REMARK    7  A    between atoms: C_15  and  C_16
REMARK    8  A    between atoms: C_16  and  C_17
REMARK    9  A    between atoms: C_16  and  C_18
REMARK                            x       y       z     vdW  Elec       q    Type
REMARK                         _______ _______ _______ _____ _____    ______ ____
ROOT
ATOM      1  C   UNL     1       0.711   9.582  19.575  0.00  0.00    +0.000 C 
ATOM      2  O   UNL     1       0.154   9.994  18.563  0.00  0.00    +0.000 OA
ATOM      3  N   UNL     1       1.740   8.668  19.477  0.00  0.00    +0.000 N 
ATOM      4  H   UNL     1       2.365   8.517  20.256  0.00  0.00    +0.000 HD
ENDROOT
BRANCH   1   9
ATOM      5  C   UNL     1      -0.214  11.145  21.477  0.00  0.00    +0.000 A 
ATOM      6  N   UNL     1      -0.348  11.091  22.865  0.00  0.00    +0.000 NA
ATOM      7  N   UNL     1       0.113   9.966  23.373  0.00  0.00    +0.000 NA
ATOM      8  S   UNL     1       0.719   8.936  22.215  0.00  0.00    +0.000 S 
ATOM      9  C   UNL     1       0.355  10.009  20.910  0.00  0.00    +0.000 A 
BRANCH   5  11
ATOM     10  C   UNL     1      -2.186  12.559  20.825  0.00  0.00    +0.000 C 
ATOM     11  C   UNL     1      -0.669  12.420  20.841  0.00  0.00    +0.000 C 
ENDBRANCH   5  11
ENDBRANCH   1   9
BRANCH   3  12
ATOM     12  C   UNL     1       2.249   8.253  18.187  0.00  0.00    +0.000 C 
BRANCH  12  13
ATOM     13  C   UNL     1       2.982   6.910  18.226  0.00  0.00    +0.000 C 
ATOM     14  C   UNL     1       4.129   6.818  17.190  0.00  0.00    +0.000 C 
ATOM     15  N   UNL     1       4.926   5.564  17.340  0.00  0.00    +0.000 NA
ATOM     16  C   UNL     1       3.970   4.437  17.244  0.00  0.00    +0.000 C 
ATOM     17  C   UNL     1       2.738   4.560  18.165  0.00  0.00    +0.000 C 
ATOM     18  O   UNL     1       2.059   5.822  18.018  0.00  0.00    +0.000 OA
BRANCH  15  19
ATOM     19  C   UNL     1       5.679   5.608  18.609  0.00  0.00    +0.000 C 
BRANCH  19  20
ATOM     20  C   UNL     1       7.218   5.563  18.549  0.00  0.00    +0.000 C 
ATOM     21  C   UNL     1       7.750   4.506  17.587  0.00  0.00    +0.000 C 
ATOM     22  C   UNL     1       7.716   6.953  18.125  0.00  0.00    +0.000 C 
ENDBRANCH  19  20
ENDBRANCH  15  19
ENDBRANCH  12  13
ENDBRANCH   3  12
TORSDOF 6
ENDMDL
