MODEL 1
REMARK VINA RESULT:      -7.5      0.000      0.000
REMARK  Name = 
REMARK  5 active torsions:
REMARK  status: ('A' for Active; 'I' for Inactive)
REMARK    1  A    between atoms: C_2  and  N_3
REMARK    2  A    between atoms: C_2  and  C_10
REMARK    3  A    between atoms: N_3  and  C_4
REMARK    4  A    between atoms: C_13  and  C_14
REMARK    5  A    between atoms: C_21  and  C_22
REMARK                            x       y       z     vdW  Elec       q    Type
REMARK                         _______ _______ _______ _____ _____    ______ ____
ROOT
ATOM      1  C   UNL     1       1.371   9.218  19.186  0.00  0.00    +0.000 A 
ATOM      2  C   UNL     1       2.146   9.474  18.067  0.00  0.00    +0.000 A 
ATOM      3  N   UNL     1       2.950   8.541  17.502  0.00  0.00    +0.000 NA
ATOM      4  C   UNL     1       2.963   7.302  18.071  0.00  0.00    +0.000 A 
ATOM      5  C   UNL     1       2.156   7.019  19.204  0.00  0.00    +0.000 A 
ATOM      6  N   UNL     1       1.370   7.989  19.779  0.00  0.00    +0.000 NA
ENDROOT
BRANCH   4   7
ATOM      7  C   UNL     1       3.839   6.346  17.347  0.00  0.00    +0.000 A 
ATOM      8  C   UNL     1       3.659   4.952  17.389  0.00  0.00    +0.000 A 
ATOM      9  C   UNL     1       4.397   4.097  16.559  0.00  0.00    +0.000 A 
ATOM     10  C   UNL     1       5.388   4.618  15.732  0.00  0.00    +0.000 A 
ATOM     11 CL   UNL     1       6.266   3.573  14.684  0.00  0.00    +0.000 Cl
ATOM     12  C   UNL     1       5.663   5.978  15.745  0.00  0.00    +0.000 A 
ATOM     13  C   UNL     1       4.893   6.833  16.542  0.00  0.00    +0.000 A 
ENDBRANCH   4   7
BRANCH   5  14
ATOM     14  C   UNL     1       2.043   5.693  19.865  0.00  0.00    +0.000 A 
ATOM     15  C   UNL     1       1.110   4.742  19.409  0.00  0.00    +0.000 A 
ATOM     16  C   UNL     1       0.926   3.521  20.073  0.00  0.00    +0.000 A 
ATOM     17  C   UNL     1       1.666   3.236  21.217  0.00  0.00    +0.000 A 
ATOM     18 CL   UNL     1       1.399   1.768  22.074  0.00  0.00    +0.000 Cl
ATOM     19  C   UNL     1       2.620   4.137  21.672  0.00  0.00    +0.000 A 
ATOM     20  C   UNL     1       2.832   5.333  20.975  0.00  0.00    +0.000 A 
ENDBRANCH   5  14
BRANCH   1  22
ATOM     21  S   UNL     1       0.872  11.341  20.968  0.00  0.00    +0.000 S 
ATOM     22  C   UNL     1       0.421  10.241  19.770  0.00  0.00    +0.000 C 
BRANCH  22  23
ATOM     23  N   UNL     1      -0.857  10.206  19.210  0.00  0.00    +0.000 N 
ATOM     24  H   UNL     1      -1.429   9.424  19.528  0.00  0.00    +0.000 HD
BRANCH  23  25
ATOM     25  C   UNL     1      -1.275  10.876  17.967  0.00  0.00    +0.000 C 
ATOM     26  C   UNL     1      -2.016   9.899  17.040  0.00  0.00    +0.000 C 
ATOM     27  C   UNL     1      -3.412   9.548  17.551  0.00  0.00    +0.000 C 
ATOM     28  C   UNL     1      -4.246  10.800  17.781  0.00  0.00    +0.000 C 
ATOM     29  C   UNL     1      -3.547  11.766  18.733  0.00  0.00    +0.000 C 
ATOM     30  C   UNL     1      -2.138  12.114  18.252  0.00  0.00    +0.000 C 
ENDBRANCH  23  25
ENDBRANCH  22  23
ENDBRANCH   1  22
TORSDOF 5
ENDMDL
MODEL 2
REMARK VINA RESULT:      -7.4      4.371      9.007
REMARK  Name = 
REMARK  5 active torsions:
REMARK  status: ('A' for Active; 'I' for Inactive)
REMARK    1  A    between atoms: C_2  and  N_3
REMARK    2  A    between atoms: C_2  and  C_10
REMARK    3  A    between atoms: N_3  and  C_4
REMARK    4  A    between atoms: C_13  and  C_14
REMARK    5  A    between atoms: C_21  and  C_22
REMARK                            x       y       z     vdW  Elec       q    Type
REMARK                         _______ _______ _______ _____ _____    ______ ____
ROOT
ATOM      1  C   UNL     1       1.454   8.563  20.284  0.00  0.00    +0.000 A 
ATOM      2  C   UNL     1       1.712   8.997  21.574  0.00  0.00    +0.000 A 
ATOM      3  N   UNL     1       1.017   9.998  22.165  0.00  0.00    +0.000 NA
ATOM      4  C   UNL     1       0.016  10.574  21.441  0.00  0.00    +0.000 A 
ATOM      5  C   UNL     1      -0.275  10.124  20.127  0.00  0.00    +0.000 A 
ATOM      6  N   UNL     1       0.463   9.126  19.535  0.00  0.00    +0.000 NA
ENDROOT
BRANCH   4   7
ATOM      7  C   UNL     1      -0.710  11.625  22.199  0.00  0.00    +0.000 A 
ATOM      8  C   UNL     1      -0.365  12.987  22.148  0.00  0.00    +0.000 A 
ATOM      9  C   UNL     1      -1.178  13.966  22.739  0.00  0.00    +0.000 A 
ATOM     10  C   UNL     1      -2.304  13.588  23.462  0.00  0.00    +0.000 A 
ATOM     11 CL   UNL     1      -3.322  14.791  24.153  0.00  0.00    +0.000 Cl
ATOM     12  C   UNL     1      -2.614  12.244  23.619  0.00  0.00    +0.000 A 
ATOM     13  C   UNL     1      -1.826  11.274  22.990  0.00  0.00    +0.000 A 
ENDBRANCH   4   7
BRANCH   5  14
ATOM     14  C   UNL     1      -1.379  10.633  19.272  0.00  0.00    +0.000 A 
ATOM     15  C   UNL     1      -2.127  11.761  19.662  0.00  0.00    +0.000 A 
ATOM     16  C   UNL     1      -3.228  12.203  18.916  0.00  0.00    +0.000 A 
ATOM     17  C   UNL     1      -3.610  11.513  17.769  0.00  0.00    +0.000 A 
ATOM     18 CL   UNL     1      -4.998  12.012  16.885  0.00  0.00    +0.000 Cl
ATOM     19  C   UNL     1      -2.872  10.419  17.337  0.00  0.00    +0.000 A 
ATOM     20  C   UNL     1      -1.745  10.012  18.061  0.00  0.00    +0.000 A 
ENDBRANCH   5  14
BRANCH   1  22
ATOM     21  S   UNL     1       3.032   7.515  18.200  0.00  0.00    +0.000 S 
ATOM     22  C   UNL     1       2.186   7.397  19.655  0.00  0.00    +0.000 C 
BRANCH  22  23
ATOM     23  N   UNL     1       2.113   6.220  20.401  0.00  0.00    +0.000 N 
ATOM     24  H   UNL     1       1.735   6.345  21.340  0.00  0.00    +0.000 HD
BRANCH  23  25
ATOM     25  C   UNL     1       2.878   4.988  20.147  0.00  0.00    +0.000 C 
ATOM     26  C   UNL     1       2.469   3.876  21.129  0.00  0.00    +0.000 C 
ATOM     27  C   UNL     1       1.083   3.310  20.830  0.00  0.00    +0.000 C 
ATOM     28  C   UNL     1       0.987   2.814  19.394  0.00  0.00    +0.000 C 
ATOM     29  C   UNL     1       1.349   3.914  18.401  0.00  0.00    +0.000 C 
ATOM     30  C   UNL     1       2.724   4.512  18.695  0.00  0.00    +0.000 C 
ENDBRANCH  23  25
ENDBRANCH  22  23
ENDBRANCH   1  22
TORSDOF 5
ENDMDL
MODEL 3
REMARK VINA RESULT:      -7.4      4.899      9.565
REMARK  Name = 
REMARK  5 active torsions:
REMARK  status: ('A' for Active; 'I' for Inactive)
REMARK    1  A    between atoms: C_2  and  N_3
REMARK    2  A    between atoms: C_2  and  C_10
REMARK    3  A    between atoms: N_3  and  C_4
REMARK    4  A    between atoms: C_13  and  C_14
REMARK    5  A    between atoms: C_21  and  C_22
REMARK                            x       y       z     vdW  Elec       q    Type
REMARK                         _______ _______ _______ _____ _____    ______ ____
ROOT
ATOM      1  C   UNL     1       1.096   9.027  20.346  0.00  0.00    +0.000 A 
ATOM      2  C   UNL     1       0.332   8.761  21.470  0.00  0.00    +0.000 A 
ATOM      3  N   UNL     1      -0.316   9.729  22.164  0.00  0.00    +0.000 NA
ATOM      4  C   UNL     1      -0.206  11.007  21.702  0.00  0.00    +0.000 A 
ATOM      5  C   UNL     1       0.556  11.290  20.538  0.00  0.00    +0.000 A 
ATOM      6  N   UNL     1       1.229  10.298  19.867  0.00  0.00    +0.000 NA
ENDROOT
BRANCH   4   7
ATOM      7  C   UNL     1      -0.991  11.978  22.506  0.00  0.00    +0.000 A 
ATOM      8  C   UNL     1      -0.555  13.288  22.770  0.00  0.00    +0.000 A 
ATOM      9  C   UNL     1      -1.397  14.226  23.385  0.00  0.00    +0.000 A 
ATOM     10  C   UNL     1      -2.662  13.842  23.820  0.00  0.00    +0.000 A 
ATOM     11 CL   UNL     1      -3.710  15.001  24.537  0.00  0.00    +0.000 Cl
ATOM     12  C   UNL     1      -3.082  12.527  23.668  0.00  0.00    +0.000 A 
ATOM     13  C   UNL     1      -2.255  11.607  23.014  0.00  0.00    +0.000 A 
ENDBRANCH   4   7
BRANCH   5  14
ATOM     14  C   UNL     1       0.693  12.631  19.911  0.00  0.00    +0.000 A 
ATOM     15  C   UNL     1       1.868  13.387  20.085  0.00  0.00    +0.000 A 
ATOM     16  C   UNL     1       1.983  14.688  19.576  0.00  0.00    +0.000 A 
ATOM     17  C   UNL     1       0.915  15.263  18.894  0.00  0.00    +0.000 A 
ATOM     18 CL   UNL     1       1.025  16.881  18.324  0.00  0.00    +0.000 Cl
ATOM     19  C   UNL     1      -0.245  14.530  18.674  0.00  0.00    +0.000 A 
ATOM     20  C   UNL     1      -0.334  13.214  19.143  0.00  0.00    +0.000 A 
ENDBRANCH   5  14
BRANCH   1  22
ATOM     21  S   UNL     1       2.524   8.218  18.058  0.00  0.00    +0.000 S 
ATOM     22  C   UNL     1       1.758   7.935  19.535  0.00  0.00    +0.000 C 
BRANCH  22  23
ATOM     23  N   UNL     1       1.696   6.675  20.132  0.00  0.00    +0.000 N 
ATOM     24  H   UNL     1       1.112   6.639  20.967  0.00  0.00    +0.000 HD
BRANCH  23  25
ATOM     25  C   UNL     1       2.665   5.582  19.946  0.00  0.00    +0.000 C 
ATOM     26  C   UNL     1       2.410   4.447  20.952  0.00  0.00    +0.000 C 
ATOM     27  C   UNL     1       1.149   3.647  20.627  0.00  0.00    +0.000 C 
ATOM     28  C   UNL     1       1.193   3.101  19.207  0.00  0.00    +0.000 C 
ATOM     29  C   UNL     1       1.404   4.218  18.189  0.00  0.00    +0.000 C 
ATOM     30  C   UNL     1       2.648   5.046  18.507  0.00  0.00    +0.000 C 
ENDBRANCH  23  25
ENDBRANCH  22  23
ENDBRANCH   1  22
TORSDOF 5
ENDMDL
MODEL 4
REMARK VINA RESULT:      -7.3      4.042      6.806
REMARK  Name = 
REMARK  5 active torsions:
REMARK  status: ('A' for Active; 'I' for Inactive)
REMARK    1  A    between atoms: C_2  and  N_3
REMARK    2  A    between atoms: C_2  and  C_10
REMARK    3  A    between atoms: N_3  and  C_4
REMARK    4  A    between atoms: C_13  and  C_14
REMARK    5  A    between atoms: C_21  and  C_22
REMARK                            x       y       z     vdW  Elec       q    Type
REMARK                         _______ _______ _______ _____ _____    ______ ____
ROOT
ATOM      1  C   UNL     1      -1.904  12.753  21.985  0.00  0.00    +0.000 A 
ATOM      2  C   UNL     1      -0.734  12.261  22.541  0.00  0.00    +0.000 A 
ATOM      3  N   UNL     1       0.054  11.355  21.912  0.00  0.00    +0.000 NA
ATOM      4  C   UNL     1      -0.339  10.939  20.675  0.00  0.00    +0.000 A 
ATOM      5  C   UNL     1      -1.524  11.452  20.084  0.00  0.00    +0.000 A 
ATOM      6  N   UNL     1      -2.324  12.348  20.751  0.00  0.00    +0.000 NA
ENDROOT
BRANCH   4   7
ATOM      7  C   UNL     1       0.617   9.985  20.059  0.00  0.00    +0.000 A 
ATOM      8  C   UNL     1       1.055   8.812  20.699  0.00  0.00    +0.000 A 
ATOM      9  C   UNL     1       1.821   7.854  20.019  0.00  0.00    +0.000 A 
ATOM     10  C   UNL     1       2.231   8.094  18.712  0.00  0.00    +0.000 A 
ATOM     11 CL   UNL     1       3.136   6.901  17.865  0.00  0.00    +0.000 Cl
ATOM     12  C   UNL     1       1.904   9.290  18.087  0.00  0.00    +0.000 A 
ATOM     13  C   UNL     1       1.102  10.223  18.753  0.00  0.00    +0.000 A 
ENDBRANCH   4   7
BRANCH   5  14
ATOM     14  C   UNL     1      -2.013  11.119  18.720  0.00  0.00    +0.000 A 
ATOM     15  C   UNL     1      -2.646   9.888  18.465  0.00  0.00    +0.000 A 
ATOM     16  C   UNL     1      -3.034   9.518  17.170  0.00  0.00    +0.000 A 
ATOM     17  C   UNL     1      -2.783  10.373  16.101  0.00  0.00    +0.000 A 
ATOM     18 CL   UNL     1      -3.198   9.899  14.501  0.00  0.00    +0.000 Cl
ATOM     19  C   UNL     1      -2.193  11.611  16.323  0.00  0.00    +0.000 A 
ATOM     20  C   UNL     1      -1.852  11.993  17.626  0.00  0.00    +0.000 A 
ENDBRANCH   5  14
BRANCH   1  22
ATOM     21  S   UNL     1      -2.163  15.365  23.003  0.00  0.00    +0.000 S 
ATOM     22  C   UNL     1      -2.741  13.817  22.659  0.00  0.00    +0.000 C 
BRANCH  22  23
ATOM     23  N   UNL     1      -4.043  13.407  22.951  0.00  0.00    +0.000 N 
ATOM     24  H   UNL     1      -4.141  12.402  23.092  0.00  0.00    +0.000 HD
BRANCH  23  25
ATOM     25  C   UNL     1      -5.272  14.164  22.660  0.00  0.00    +0.000 C 
ATOM     26  C   UNL     1      -5.857  13.756  21.297  0.00  0.00    +0.000 C 
ATOM     27  C   UNL     1      -6.485  12.364  21.320  0.00  0.00    +0.000 C 
ATOM     28  C   UNL     1      -7.544  12.255  22.409  0.00  0.00    +0.000 C 
ATOM     29  C   UNL     1      -6.973  12.615  23.777  0.00  0.00    +0.000 C 
ATOM     30  C   UNL     1      -6.319  13.996  23.771  0.00  0.00    +0.000 C 
ENDBRANCH  23  25
ENDBRANCH  22  23
ENDBRANCH   1  22
TORSDOF 5
ENDMDL
MODEL 5
REMARK VINA RESULT:      -7.3      4.331      8.979
REMARK  Name = 
REMARK  5 active torsions:
REMARK  status: ('A' for Active; 'I' for Inactive)
REMARK    1  A    between atoms: C_2  and  N_3
REMARK    2  A    between atoms: C_2  and  C_10
REMARK    3  A    between atoms: N_3  and  C_4
REMARK    4  A    between atoms: C_13  and  C_14
REMARK    5  A    between atoms: C_21  and  C_22
REMARK                            x       y       z     vdW  Elec       q    Type
REMARK                         _______ _______ _______ _____ _____    ______ ____
ROOT
ATOM      1  C   UNL     1       1.589   8.295  20.287  0.00  0.00    +0.000 A 
ATOM      2  C   UNL     1       1.827   8.725  21.582  0.00  0.00    +0.000 A 
ATOM      3  N   UNL     1       1.143   9.744  22.155  0.00  0.00    +0.000 NA
ATOM      4  C   UNL     1       0.173  10.343  21.407  0.00  0.00    +0.000 A 
ATOM      5  C   UNL     1      -0.098   9.897  20.087  0.00  0.00    +0.000 A 
ATOM      6  N   UNL     1       0.629   8.880  19.514  0.00  0.00    +0.000 NA
ENDROOT
BRANCH   4   7
ATOM      7  C   UNL     1      -0.544  11.413  22.146  0.00  0.00    +0.000 A 
ATOM      8  C   UNL     1      -0.198  12.773  22.059  0.00  0.00    +0.000 A 
ATOM      9  C   UNL     1      -1.003  13.767  22.634  0.00  0.00    +0.000 A 
ATOM     10  C   UNL     1      -2.123  13.409  23.376  0.00  0.00    +0.000 A 
ATOM     11 CL   UNL     1      -3.133  14.630  24.047  0.00  0.00    +0.000 Cl
ATOM     12  C   UNL     1      -2.434  12.070  23.569  0.00  0.00    +0.000 A 
ATOM     13  C   UNL     1      -1.653  11.083  22.956  0.00  0.00    +0.000 A 
ENDBRANCH   4   7
BRANCH   5  14
ATOM     14  C   UNL     1      -1.169  10.431  19.206  0.00  0.00    +0.000 A 
ATOM     15  C   UNL     1      -1.882  11.591  19.566  0.00  0.00    +0.000 A 
ATOM     16  C   UNL     1      -2.955  12.059  18.795  0.00  0.00    +0.000 A 
ATOM     17  C   UNL     1      -3.343  11.365  17.653  0.00  0.00    +0.000 A 
ATOM     18 CL   UNL     1      -4.698  11.898  16.738  0.00  0.00    +0.000 Cl
ATOM     19  C   UNL     1      -2.637  10.238  17.250  0.00  0.00    +0.000 A 
ATOM     20  C   UNL     1      -1.537   9.804  17.999  0.00  0.00    +0.000 A 
ENDBRANCH   5  14
BRANCH   1  22
ATOM     21  S   UNL     1       3.104   7.179  18.192  0.00  0.00    +0.000 S 
ATOM     22  C   UNL     1       2.306   7.110  19.678  0.00  0.00    +0.000 C 
BRANCH  22  23
ATOM     23  N   UNL     1       2.264   5.960  20.468  0.00  0.00    +0.000 N 
ATOM     24  H   UNL     1       3.121   5.784  20.991  0.00  0.00    +0.000 HD
BRANCH  23  25
ATOM     25  C   UNL     1       1.342   4.825  20.293  0.00  0.00    +0.000 C 
ATOM     26  C   UNL     1       1.427   4.266  18.863  0.00  0.00    +0.000 C 
ATOM     27  C   UNL     1       2.726   3.504  18.606  0.00  0.00    +0.000 C 
ATOM     28  C   UNL     1       2.924   2.391  19.627  0.00  0.00    +0.000 C 
ATOM     29  C   UNL     1       2.885   2.932  21.053  0.00  0.00    +0.000 C 
ATOM     30  C   UNL     1       1.603   3.718  21.325  0.00  0.00    +0.000 C 
ENDBRANCH  23  25
ENDBRANCH  22  23
ENDBRANCH   1  22
TORSDOF 5
ENDMDL
MODEL 6
REMARK VINA RESULT:      -7.2      3.878      6.586
REMARK  Name = 
REMARK  5 active torsions:
REMARK  status: ('A' for Active; 'I' for Inactive)
REMARK    1  A    between atoms: C_2  and  N_3
REMARK    2  A    between atoms: C_2  and  C_10
REMARK    3  A    between atoms: N_3  and  C_4
REMARK    4  A    between atoms: C_13  and  C_14
REMARK    5  A    between atoms: C_21  and  C_22
REMARK                            x       y       z     vdW  Elec       q    Type
REMARK                         _______ _______ _______ _____ _____    ______ ____
ROOT
ATOM      1  C   UNL     1      -1.578  12.365  21.834  0.00  0.00    +0.000 A 
ATOM      2  C   UNL     1      -0.403  11.812  22.316  0.00  0.00    +0.000 A 
ATOM      3  N   UNL     1       0.313  10.890  21.626  0.00  0.00    +0.000 NA
ATOM      4  C   UNL     1      -0.161  10.523  20.402  0.00  0.00    +0.000 A 
ATOM      5  C   UNL     1      -1.351  11.098  19.886  0.00  0.00    +0.000 A 
ATOM      6  N   UNL     1      -2.077  12.010  20.615  0.00  0.00    +0.000 NA
ENDROOT
BRANCH   4   7
ATOM      7  C   UNL     1       0.721   9.546  19.714  0.00  0.00    +0.000 A 
ATOM      8  C   UNL     1       1.157   9.703  18.387  0.00  0.00    +0.000 A 
ATOM      9  C   UNL     1       2.123   8.851  17.832  0.00  0.00    +0.000 A 
ATOM     10  C   UNL     1       2.607   7.776  18.571  0.00  0.00    +0.000 A 
ATOM     11 CL   UNL     1       3.821   6.756  17.905  0.00  0.00    +0.000 Cl
ATOM     12  C   UNL     1       2.119   7.532  19.847  0.00  0.00    +0.000 A 
ATOM     13  C   UNL     1       1.188   8.411  20.413  0.00  0.00    +0.000 A 
ENDBRANCH   4   7
BRANCH   5  14
ATOM     14  C   UNL     1      -1.924  10.821  18.542  0.00  0.00    +0.000 A 
ATOM     15  C   UNL     1      -1.782  11.752  17.496  0.00  0.00    +0.000 A 
ATOM     16  C   UNL     1      -2.389  11.550  16.249  0.00  0.00    +0.000 A 
ATOM     17  C   UNL     1      -3.163  10.414  16.031  0.00  0.00    +0.000 A 
ATOM     18 CL   UNL     1      -3.964  10.192  14.525  0.00  0.00    +0.000 Cl
ATOM     19  C   UNL     1      -3.293   9.458  17.030  0.00  0.00    +0.000 A 
ATOM     20  C   UNL     1      -2.644   9.644  18.256  0.00  0.00    +0.000 A 
ENDBRANCH   5  14
BRANCH   1  22
ATOM     21  S   UNL     1      -1.615  14.879  23.101  0.00  0.00    +0.000 S 
ATOM     22  C   UNL     1      -2.333  13.446  22.575  0.00  0.00    +0.000 C 
BRANCH  22  23
ATOM     23  N   UNL     1      -3.686  13.157  22.765  0.00  0.00    +0.000 N 
ATOM     24  H   UNL     1      -3.887  12.164  22.878  0.00  0.00    +0.000 HD
BRANCH  23  25
ATOM     25  C   UNL     1      -4.814  14.030  22.404  0.00  0.00    +0.000 C 
ATOM     26  C   UNL     1      -5.342  13.691  20.999  0.00  0.00    +0.000 C 
ATOM     27  C   UNL     1      -6.100  12.365  20.961  0.00  0.00    +0.000 C 
ATOM     28  C   UNL     1      -7.236  12.350  21.975  0.00  0.00    +0.000 C 
ATOM     29  C   UNL     1      -6.728  12.643  23.383  0.00  0.00    +0.000 C 
ATOM     30  C   UNL     1      -5.945  13.955  23.440  0.00  0.00    +0.000 C 
ENDBRANCH  23  25
ENDBRANCH  22  23
ENDBRANCH   1  22
TORSDOF 5
ENDMDL
MODEL 7
REMARK VINA RESULT:      -7.2      4.217      6.916
REMARK  Name = 
REMARK  5 active torsions:
REMARK  status: ('A' for Active; 'I' for Inactive)
REMARK    1  A    between atoms: C_2  and  N_3
REMARK    2  A    between atoms: C_2  and  C_10
REMARK    3  A    between atoms: N_3  and  C_4
REMARK    4  A    between atoms: C_13  and  C_14
REMARK    5  A    between atoms: C_21  and  C_22
REMARK                            x       y       z     vdW  Elec       q    Type
REMARK                         _______ _______ _______ _____ _____    ______ ____
ROOT
ATOM      1  C   UNL     1      -1.839  12.806  21.781  0.00  0.00    +0.000 A 
ATOM      2  C   UNL     1      -0.678  12.328  22.366  0.00  0.00    +0.000 A 
ATOM      3  N   UNL     1       0.101  11.382  21.788  0.00  0.00    +0.000 NA
ATOM      4  C   UNL     1      -0.292  10.911  20.570  0.00  0.00    +0.000 A 
ATOM      5  C   UNL     1      -1.467  11.408  19.948  0.00  0.00    +0.000 A 
ATOM      6  N   UNL     1      -2.258  12.347  20.567  0.00  0.00    +0.000 NA
ENDROOT
BRANCH   4   7
ATOM      7  C   UNL     1       0.655   9.915  20.007  0.00  0.00    +0.000 A 
ATOM      8  C   UNL     1       1.071   8.768  20.705  0.00  0.00    +0.000 A 
ATOM      9  C   UNL     1       1.828   7.768  20.077  0.00  0.00    +0.000 A 
ATOM     10  C   UNL     1       2.252   7.941  18.763  0.00  0.00    +0.000 A 
ATOM     11 CL   UNL     1       3.145   6.697  17.980  0.00  0.00    +0.000 Cl
ATOM     12  C   UNL     1       1.946   9.110  18.080  0.00  0.00    +0.000 A 
ATOM     13  C   UNL     1       1.152  10.085  18.696  0.00  0.00    +0.000 A 
ENDBRANCH   4   7
BRANCH   5  14
ATOM     14  C   UNL     1      -1.954  11.015  18.600  0.00  0.00    +0.000 A 
ATOM     15  C   UNL     1      -1.829  11.895  17.508  0.00  0.00    +0.000 A 
ATOM     16  C   UNL     1      -2.361  11.580  16.250  0.00  0.00    +0.000 A 
ATOM     17  C   UNL     1      -3.041  10.379  16.066  0.00  0.00    +0.000 A 
ATOM     18 CL   UNL     1      -3.752  10.015  14.543  0.00  0.00    +0.000 Cl
ATOM     19  C   UNL     1      -3.150   9.474  17.113  0.00  0.00    +0.000 A 
ATOM     20  C   UNL     1      -2.574   9.774  18.353  0.00  0.00    +0.000 A 
ENDBRANCH   5  14
BRANCH   1  22
ATOM     21  S   UNL     1      -2.097  15.490  22.594  0.00  0.00    +0.000 S 
ATOM     22  C   UNL     1      -2.666  13.913  22.398  0.00  0.00    +0.000 C 
BRANCH  22  23
ATOM     23  N   UNL     1      -3.951  13.515  22.769  0.00  0.00    +0.000 N 
ATOM     24  H   UNL     1      -3.972  12.713  23.398  0.00  0.00    +0.000 HD
BRANCH  23  25
ATOM     25  C   UNL     1      -5.195  13.833  22.049  0.00  0.00    +0.000 C 
ATOM     26  C   UNL     1      -6.238  12.717  22.238  0.00  0.00    +0.000 C 
ATOM     27  C   UNL     1      -6.826  12.696  23.647  0.00  0.00    +0.000 C 
ATOM     28  C   UNL     1      -7.421  14.048  24.017  0.00  0.00    +0.000 C 
ATOM     29  C   UNL     1      -6.390  15.165  23.877  0.00  0.00    +0.000 C 
ATOM     30  C   UNL     1      -5.770  15.190  22.480  0.00  0.00    +0.000 C 
ENDBRANCH  23  25
ENDBRANCH  22  23
ENDBRANCH   1  22
TORSDOF 5
ENDMDL
MODEL 8
REMARK VINA RESULT:      -7.2      6.241      9.531
REMARK  Name = 
REMARK  5 active torsions:
REMARK  status: ('A' for Active; 'I' for Inactive)
REMARK    1  A    between atoms: C_2  and  N_3
REMARK    2  A    between atoms: C_2  and  C_10
REMARK    3  A    between atoms: N_3  and  C_4
REMARK    4  A    between atoms: C_13  and  C_14
REMARK    5  A    between atoms: C_21  and  C_22
REMARK                            x       y       z     vdW  Elec       q    Type
REMARK                         _______ _______ _______ _____ _____    ______ ____
ROOT
ATOM      1  C   UNL     1      -4.951  13.229  19.943  0.00  0.00    +0.000 A 
ATOM      2  C   UNL     1      -5.294  14.378  20.635  0.00  0.00    +0.000 A 
ATOM      3  N   UNL     1      -4.612  14.811  21.724  0.00  0.00    +0.000 NA
ATOM      4  C   UNL     1      -3.538  14.072  22.120  0.00  0.00    +0.000 A 
ATOM      5  C   UNL     1      -3.161  12.904  21.406  0.00  0.00    +0.000 A 
ATOM      6  N   UNL     1      -3.885  12.467  20.323  0.00  0.00    +0.000 NA
ENDROOT
BRANCH   4   7
ATOM      7  C   UNL     1      -2.836  14.659  23.290  0.00  0.00    +0.000 A 
ATOM      8  C   UNL     1      -3.343  14.601  24.601  0.00  0.00    +0.000 A 
ATOM      9  C   UNL     1      -2.574  15.014  25.698  0.00  0.00    +0.000 A 
ATOM     10  C   UNL     1      -1.315  15.570  25.493  0.00  0.00    +0.000 A 
ATOM     11 CL   UNL     1      -0.355  16.039  26.841  0.00  0.00    +0.000 Cl
ATOM     12  C   UNL     1      -0.829  15.738  24.203  0.00  0.00    +0.000 A 
ATOM     13  C   UNL     1      -1.582  15.283  23.115  0.00  0.00    +0.000 A 
ENDBRANCH   4   7
BRANCH   5  14
ATOM     14  C   UNL     1      -1.976  12.060  21.710  0.00  0.00    +0.000 A 
ATOM     15  C   UNL     1      -0.968  11.866  20.746  0.00  0.00    +0.000 A 
ATOM     16  C   UNL     1       0.112  11.004  20.979  0.00  0.00    +0.000 A 
ATOM     17  C   UNL     1       0.195  10.307  22.181  0.00  0.00    +0.000 A 
ATOM     18 CL   UNL     1       1.483   9.199  22.449  0.00  0.00    +0.000 Cl
ATOM     19  C   UNL     1      -0.763  10.504  23.167  0.00  0.00    +0.000 A 
ATOM     20  C   UNL     1      -1.813  11.403  22.945  0.00  0.00    +0.000 A 
ENDBRANCH   5  14
BRANCH   1  22
ATOM     21  S   UNL     1      -7.347  12.881  18.504  0.00  0.00    +0.000 S 
ATOM     22  C   UNL     1      -5.672  12.790  18.687  0.00  0.00    +0.000 C 
BRANCH  22  23
ATOM     23  N   UNL     1      -4.820  12.321  17.685  0.00  0.00    +0.000 N 
ATOM     24  H   UNL     1      -4.345  13.058  17.165  0.00  0.00    +0.000 HD
BRANCH  23  25
ATOM     25  C   UNL     1      -4.873  10.990  17.059  0.00  0.00    +0.000 C 
ATOM     26  C   UNL     1      -4.168  10.998  15.692  0.00  0.00    +0.000 C 
ATOM     27  C   UNL     1      -2.648  11.096  15.816  0.00  0.00    +0.000 C 
ATOM     28  C   UNL     1      -2.094   9.983  16.694  0.00  0.00    +0.000 C 
ATOM     29  C   UNL     1      -2.751   9.983  18.071  0.00  0.00    +0.000 C 
ATOM     30  C   UNL     1      -4.274   9.909  17.971  0.00  0.00    +0.000 C 
ENDBRANCH  23  25
ENDBRANCH  22  23
ENDBRANCH   1  22
TORSDOF 5
ENDMDL
MODEL 9
REMARK VINA RESULT:      -7.2      1.130      1.669
REMARK  Name = 
REMARK  5 active torsions:
REMARK  status: ('A' for Active; 'I' for Inactive)
REMARK    1  A    between atoms: C_2  and  N_3
REMARK    2  A    between atoms: C_2  and  C_10
REMARK    3  A    between atoms: N_3  and  C_4
REMARK    4  A    between atoms: C_13  and  C_14
REMARK    5  A    between atoms: C_21  and  C_22
REMARK                            x       y       z     vdW  Elec       q    Type
REMARK                         _______ _______ _______ _____ _____    ______ ____
ROOT
ATOM      1  C   UNL     1       1.075   9.543  18.560  0.00  0.00    +0.000 A 
ATOM      2  C   UNL     1       2.076   9.925  17.682  0.00  0.00    +0.000 A 
ATOM      3  N   UNL     1       3.098   9.106  17.332  0.00  0.00    +0.000 NA
ATOM      4  C   UNL     1       3.105   7.853  17.870  0.00  0.00    +0.000 A 
ATOM      5  C   UNL     1       2.072   7.441  18.753  0.00  0.00    +0.000 A 
ATOM      6  N   UNL     1       1.062   8.298  19.118  0.00  0.00    +0.000 NA
ENDROOT
BRANCH   4   7
ATOM      7  C   UNL     1       4.238   7.026  17.385  0.00  0.00    +0.000 A 
ATOM      8  C   UNL     1       5.067   6.278  18.240  0.00  0.00    +0.000 A 
ATOM      9  C   UNL     1       6.015   5.378  17.731  0.00  0.00    +0.000 A 
ATOM     10  C   UNL     1       6.206   5.275  16.357  0.00  0.00    +0.000 A 
ATOM     11 CL   UNL     1       7.339   4.142  15.732  0.00  0.00    +0.000 Cl
ATOM     12  C   UNL     1       5.477   6.076  15.490  0.00  0.00    +0.000 A 
ATOM     13  C   UNL     1       4.501   6.940  16.000  0.00  0.00    +0.000 A 
ENDBRANCH   4   7
BRANCH   5  14
ATOM     14  C   UNL     1       1.944   6.084  19.346  0.00  0.00    +0.000 A 
ATOM     15  C   UNL     1       2.084   5.892  20.734  0.00  0.00    +0.000 A 
ATOM     16  C   UNL     1       2.056   4.611  21.302  0.00  0.00    +0.000 A 
ATOM     17  C   UNL     1       1.899   3.494  20.486  0.00  0.00    +0.000 A 
ATOM     18 CL   UNL     1       1.928   1.916  21.169  0.00  0.00    +0.000 Cl
ATOM     19  C   UNL     1       1.722   3.652  19.118  0.00  0.00    +0.000 A 
ATOM     20  C   UNL     1       1.703   4.937  18.564  0.00  0.00    +0.000 A 
ENDBRANCH   5  14
BRANCH   1  22
ATOM     21  S   UNL     1      -0.325  11.142  20.407  0.00  0.00    +0.000 S 
ATOM     22  C   UNL     1      -0.101  10.436  18.891  0.00  0.00    +0.000 C 
BRANCH  22  23
ATOM     23  N   UNL     1      -0.973  10.638  17.820  0.00  0.00    +0.000 N 
ATOM     24  H   UNL     1      -1.037  11.609  17.514  0.00  0.00    +0.000 HD
BRANCH  23  25
ATOM     25  C   UNL     1      -2.059   9.734  17.407  0.00  0.00    +0.000 C 
ATOM     26  C   UNL     1      -3.330   9.991  18.235  0.00  0.00    +0.000 C 
ATOM     27  C   UNL     1      -4.016  11.304  17.864  0.00  0.00    +0.000 C 
ATOM     28  C   UNL     1      -4.330  11.361  16.375  0.00  0.00    +0.000 C 
ATOM     29  C   UNL     1      -3.074  11.150  15.535  0.00  0.00    +0.000 C 
ATOM     30  C   UNL     1      -2.357   9.852  15.906  0.00  0.00    +0.000 C 
ENDBRANCH  23  25
ENDBRANCH  22  23
ENDBRANCH   1  22
TORSDOF 5
ENDMDL
