MODEL 1
REMARK VINA RESULT:      -7.5      0.000      0.000
REMARK  Name = 
REMARK  5 active torsions:
REMARK  status: ('A' for Active; 'I' for Inactive)
REMARK    1  A    between atoms: O_1  and  N_2
REMARK    2  A    between atoms: C_3  and  C_4
REMARK    3  A    between atoms: C_3  and  C_11
REMARK    4  A    between atoms: C_9  and  O_10
REMARK    5  A    between atoms: C_16  and  O_17
REMARK                            x       y       z     vdW  Elec       q    Type
REMARK                         _______ _______ _______ _____ _____    ______ ____
ROOT
ATOM      1  N   UNL     1       6.687   5.420  19.880  0.00  0.00    +0.000 NA
ATOM      2  C   UNL     1       5.841   4.993  18.979  0.00  0.00    +0.000 C 
ENDROOT
BRANCH   2   3
ATOM      3  C   UNL     1       6.064   5.027  17.486  0.00  0.00    +0.000 A 
ATOM      4  C   UNL     1       5.049   5.569  16.673  0.00  0.00    +0.000 A 
ATOM      5  C   UNL     1       5.174   5.596  15.281  0.00  0.00    +0.000 A 
ATOM      6  C   UNL     1       6.343   5.144  14.679  0.00  0.00    +0.000 A 
ATOM      7  C   UNL     1       7.376   4.637  15.466  0.00  0.00    +0.000 A 
ATOM      8  C   UNL     1       7.227   4.553  16.857  0.00  0.00    +0.000 A 
BRANCH   8   9
ATOM      9  O   UNL     1       8.234   3.949  17.560  0.00  0.00    +0.000 OA
ATOM     10  H   UNL     1       8.148   2.990  17.436  0.00  0.00    +0.000 HD
ENDBRANCH   8   9
ENDBRANCH   2   3
BRANCH   2  11
ATOM     11  C   UNL     1       4.503   4.521  19.519  0.00  0.00    +0.000 A 
ATOM     12  C   UNL     1       3.534   5.512  19.760  0.00  0.00    +0.000 A 
ATOM     13  C   UNL     1       2.242   5.175  20.167  0.00  0.00    +0.000 A 
ATOM     14  C   UNL     1       1.894   3.838  20.329  0.00  0.00    +0.000 A 
ATOM     15  C   UNL     1       2.846   2.842  20.115  0.00  0.00    +0.000 A 
ATOM     16  C   UNL     1       4.149   3.181  19.729  0.00  0.00    +0.000 A 
BRANCH  16  17
ATOM     17  O   UNL     1       5.062   2.176  19.569  0.00  0.00    +0.000 OA
ATOM     18  H   UNL     1       5.088   1.903  18.639  0.00  0.00    +0.000 HD
ENDBRANCH  16  17
ENDBRANCH   2  11
BRANCH   1  19
ATOM     19  O   UNL     1       7.822   6.032  19.347  0.00  0.00    +0.000 OA
ATOM     20  H   UNL     1       7.768   5.773  18.410  0.00  0.00    +0.000 HD
ENDBRANCH   1  19
TORSDOF 5
ENDMDL
MODEL 2
REMARK VINA RESULT:      -7.4      1.905      5.134
REMARK  Name = 
REMARK  5 active torsions:
REMARK  status: ('A' for Active; 'I' for Inactive)
REMARK    1  A    between atoms: O_1  and  N_2
REMARK    2  A    between atoms: C_3  and  C_4
REMARK    3  A    between atoms: C_3  and  C_11
REMARK    4  A    between atoms: C_9  and  O_10
REMARK    5  A    between atoms: C_16  and  O_17
REMARK                            x       y       z     vdW  Elec       q    Type
REMARK                         _______ _______ _______ _____ _____    ______ ____
ROOT
ATOM      1  N   UNL     1       5.481   3.228  19.210  0.00  0.00    +0.000 NA
ATOM      2  C   UNL     1       4.423   3.804  18.702  0.00  0.00    +0.000 C 
ENDROOT
BRANCH   2   3
ATOM      3  C   UNL     1       2.998   3.554  19.137  0.00  0.00    +0.000 A 
ATOM      4  C   UNL     1       2.483   4.318  20.202  0.00  0.00    +0.000 A 
ATOM      5  C   UNL     1       1.187   4.112  20.681  0.00  0.00    +0.000 A 
ATOM      6  C   UNL     1       0.356   3.184  20.060  0.00  0.00    +0.000 A 
ATOM      7  C   UNL     1       0.833   2.442  18.981  0.00  0.00    +0.000 A 
ATOM      8  C   UNL     1       2.153   2.605  18.541  0.00  0.00    +0.000 A 
BRANCH   8   9
ATOM      9  O   UNL     1       2.589   1.771  17.547  0.00  0.00    +0.000 OA
ATOM     10  H   UNL     1       2.971   2.321  16.844  0.00  0.00    +0.000 HD
ENDBRANCH   8   9
ENDBRANCH   2   3
BRANCH   2  11
ATOM     11  C   UNL     1       4.687   4.717  17.518  0.00  0.00    +0.000 A 
ATOM     12  C   UNL     1       4.263   6.052  17.643  0.00  0.00    +0.000 A 
ATOM     13  C   UNL     1       4.541   6.994  16.651  0.00  0.00    +0.000 A 
ATOM     14  C   UNL     1       5.261   6.618  15.522  0.00  0.00    +0.000 A 
ATOM     15  C   UNL     1       5.672   5.294  15.370  0.00  0.00    +0.000 A 
ATOM     16  C   UNL     1       5.373   4.344  16.354  0.00  0.00    +0.000 A 
BRANCH  16  17
ATOM     17  O   UNL     1       5.760   3.048  16.146  0.00  0.00    +0.000 OA
ATOM     18  H   UNL     1       5.091   2.590  15.613  0.00  0.00    +0.000 HD
ENDBRANCH  16  17
ENDBRANCH   2  11
BRANCH   1  19
ATOM     19  O   UNL     1       5.192   2.245  20.158  0.00  0.00    +0.000 OA
ATOM     20  H   UNL     1       5.927   2.353  20.788  0.00  0.00    +0.000 HD
ENDBRANCH   1  19
TORSDOF 5
ENDMDL
MODEL 3
REMARK VINA RESULT:      -7.4      2.100      2.789
REMARK  Name = 
REMARK  5 active torsions:
REMARK  status: ('A' for Active; 'I' for Inactive)
REMARK    1  A    between atoms: O_1  and  N_2
REMARK    2  A    between atoms: C_3  and  C_4
REMARK    3  A    between atoms: C_3  and  C_11
REMARK    4  A    between atoms: C_9  and  O_10
REMARK    5  A    between atoms: C_16  and  O_17
REMARK                            x       y       z     vdW  Elec       q    Type
REMARK                         _______ _______ _______ _____ _____    ______ ____
ROOT
ATOM      1  N   UNL     1       4.648   3.364  17.035  0.00  0.00    +0.000 NA
ATOM      2  C   UNL     1       4.829   4.212  18.014  0.00  0.00    +0.000 C 
ENDROOT
BRANCH   2   3
ATOM      3  C   UNL     1       5.905   5.271  18.064  0.00  0.00    +0.000 A 
ATOM      4  C   UNL     1       6.901   5.163  19.054  0.00  0.00    +0.000 A 
ATOM      5  C   UNL     1       7.903   6.128  19.181  0.00  0.00    +0.000 A 
ATOM      6  C   UNL     1       7.969   7.185  18.279  0.00  0.00    +0.000 A 
ATOM      7  C   UNL     1       7.015   7.292  17.268  0.00  0.00    +0.000 A 
ATOM      8  C   UNL     1       5.974   6.358  17.178  0.00  0.00    +0.000 A 
BRANCH   8   9
ATOM      9  O   UNL     1       5.013   6.581  16.229  0.00  0.00    +0.000 OA
ATOM     10  H   UNL     1       4.521   5.753  16.106  0.00  0.00    +0.000 HD
ENDBRANCH   8   9
ENDBRANCH   2   3
BRANCH   2  11
ATOM     11  C   UNL     1       3.924   4.016  19.217  0.00  0.00    +0.000 A 
ATOM     12  C   UNL     1       2.973   5.023  19.463  0.00  0.00    +0.000 A 
ATOM     13  C   UNL     1       2.034   4.894  20.487  0.00  0.00    +0.000 A 
ATOM     14  C   UNL     1       2.021   3.748  21.275  0.00  0.00    +0.000 A 
ATOM     15  C   UNL     1       2.969   2.748  21.060  0.00  0.00    +0.000 A 
ATOM     16  C   UNL     1       3.927   2.887  20.048  0.00  0.00    +0.000 A 
BRANCH  16  17
ATOM     17  O   UNL     1       4.863   1.901  19.899  0.00  0.00    +0.000 OA
ATOM     18  H   UNL     1       5.258   1.694  20.760  0.00  0.00    +0.000 HD
ENDBRANCH  16  17
ENDBRANCH   2  11
BRANCH   1  19
ATOM     19  O   UNL     1       5.618   3.436  16.035  0.00  0.00    +0.000 OA
ATOM     20  H   UNL     1       5.074   3.435  15.228  0.00  0.00    +0.000 HD
ENDBRANCH   1  19
TORSDOF 5
ENDMDL
MODEL 4
REMARK VINA RESULT:      -7.3      1.895      5.156
REMARK  Name = 
REMARK  5 active torsions:
REMARK  status: ('A' for Active; 'I' for Inactive)
REMARK    1  A    between atoms: O_1  and  N_2
REMARK    2  A    between atoms: C_3  and  C_4
REMARK    3  A    between atoms: C_3  and  C_11
REMARK    4  A    between atoms: C_9  and  O_10
REMARK    5  A    between atoms: C_16  and  O_17
REMARK                            x       y       z     vdW  Elec       q    Type
REMARK                         _______ _______ _______ _____ _____    ______ ____
ROOT
ATOM      1  N   UNL     1       5.477   3.291  19.195  0.00  0.00    +0.000 NA
ATOM      2  C   UNL     1       4.419   3.846  18.664  0.00  0.00    +0.000 C 
ENDROOT
BRANCH   2   3
ATOM      3  C   UNL     1       2.991   3.578  19.077  0.00  0.00    +0.000 A 
ATOM      4  C   UNL     1       2.277   2.574  18.394  0.00  0.00    +0.000 A 
ATOM      5  C   UNL     1       0.941   2.301  18.700  0.00  0.00    +0.000 A 
ATOM      6  C   UNL     1       0.313   2.979  19.740  0.00  0.00    +0.000 A 
ATOM      7  C   UNL     1       1.012   3.951  20.453  0.00  0.00    +0.000 A 
ATOM      8  C   UNL     1       2.332   4.269  20.107  0.00  0.00    +0.000 A 
BRANCH   8   9
ATOM      9  O   UNL     1       2.923   5.305  20.778  0.00  0.00    +0.000 OA
ATOM     10  H   UNL     1       3.492   5.779  20.149  0.00  0.00    +0.000 HD
ENDBRANCH   8   9
ENDBRANCH   2   3
BRANCH   2  11
ATOM     11  C   UNL     1       4.689   4.754  17.477  0.00  0.00    +0.000 A 
ATOM     12  C   UNL     1       4.259   6.088  17.590  0.00  0.00    +0.000 A 
ATOM     13  C   UNL     1       4.542   7.025  16.595  0.00  0.00    +0.000 A 
ATOM     14  C   UNL     1       5.272   6.646  15.474  0.00  0.00    +0.000 A 
ATOM     15  C   UNL     1       5.689   5.322  15.333  0.00  0.00    +0.000 A 
ATOM     16  C   UNL     1       5.386   4.376  16.320  0.00  0.00    +0.000 A 
BRANCH  16  17
ATOM     17  O   UNL     1       5.779   3.081  16.123  0.00  0.00    +0.000 OA
ATOM     18  H   UNL     1       5.877   2.637  16.979  0.00  0.00    +0.000 HD
ENDBRANCH  16  17
ENDBRANCH   2  11
BRANCH   1  19
ATOM     19  O   UNL     1       5.187   2.312  20.146  0.00  0.00    +0.000 OA
ATOM     20  H   UNL     1       5.862   2.488  20.825  0.00  0.00    +0.000 HD
ENDBRANCH   1  19
TORSDOF 5
ENDMDL
MODEL 5
REMARK VINA RESULT:      -7.3      2.347      5.361
REMARK  Name = 
REMARK  5 active torsions:
REMARK  status: ('A' for Active; 'I' for Inactive)
REMARK    1  A    between atoms: O_1  and  N_2
REMARK    2  A    between atoms: C_3  and  C_4
REMARK    3  A    between atoms: C_3  and  C_11
REMARK    4  A    between atoms: C_9  and  O_10
REMARK    5  A    between atoms: C_16  and  O_17
REMARK                            x       y       z     vdW  Elec       q    Type
REMARK                         _______ _______ _______ _____ _____    ______ ____
ROOT
ATOM      1  N   UNL     1       3.926   4.007  16.827  0.00  0.00    +0.000 NA
ATOM      2  C   UNL     1       4.274   4.374  18.032  0.00  0.00    +0.000 C 
ENDROOT
BRANCH   2   3
ATOM      3  C   UNL     1       3.543   4.008  19.302  0.00  0.00    +0.000 A 
ATOM      4  C   UNL     1       2.553   4.890  19.779  0.00  0.00    +0.000 A 
ATOM      5  C   UNL     1       1.866   4.631  20.968  0.00  0.00    +0.000 A 
ATOM      6  C   UNL     1       2.106   3.453  21.668  0.00  0.00    +0.000 A 
ATOM      7  C   UNL     1       3.055   2.549  21.195  0.00  0.00    +0.000 A 
ATOM      8  C   UNL     1       3.788   2.836  20.036  0.00  0.00    +0.000 A 
BRANCH   8   9
ATOM      9  O   UNL     1       4.777   1.957  19.687  0.00  0.00    +0.000 OA
ATOM     10  H   UNL     1       4.393   1.308  19.074  0.00  0.00    +0.000 HD
ENDBRANCH   8   9
ENDBRANCH   2   3
BRANCH   2  11
ATOM     11  C   UNL     1       5.458   5.321  18.105  0.00  0.00    +0.000 A 
ATOM     12  C   UNL     1       6.409   5.068  19.110  0.00  0.00    +0.000 A 
ATOM     13  C   UNL     1       7.580   5.823  19.203  0.00  0.00    +0.000 A 
ATOM     14  C   UNL     1       7.826   6.836  18.283  0.00  0.00    +0.000 A 
ATOM     15  C   UNL     1       6.885   7.116  17.291  0.00  0.00    +0.000 A 
ATOM     16  C   UNL     1       5.700   6.375  17.212  0.00  0.00    +0.000 A 
BRANCH  16  17
ATOM     17  O   UNL     1       4.787   6.709  16.250  0.00  0.00    +0.000 OA
ATOM     18  H   UNL     1       4.265   7.470  16.547  0.00  0.00    +0.000 HD
ENDBRANCH  16  17
ENDBRANCH   2  11
BRANCH   1  19
ATOM     19  O   UNL     1       2.721   3.305  16.773  0.00  0.00    +0.000 OA
ATOM     20  H   UNL     1       2.595   3.052  17.705  0.00  0.00    +0.000 HD
ENDBRANCH   1  19
TORSDOF 5
ENDMDL
MODEL 6
REMARK VINA RESULT:      -7.3      2.456      5.280
REMARK  Name = 
REMARK  5 active torsions:
REMARK  status: ('A' for Active; 'I' for Inactive)
REMARK    1  A    between atoms: O_1  and  N_2
REMARK    2  A    between atoms: C_3  and  C_4
REMARK    3  A    between atoms: C_3  and  C_11
REMARK    4  A    between atoms: C_9  and  O_10
REMARK    5  A    between atoms: C_16  and  O_17
REMARK                            x       y       z     vdW  Elec       q    Type
REMARK                         _______ _______ _______ _____ _____    ______ ____
ROOT
ATOM      1  N   UNL     1       3.363   7.142  17.952  0.00  0.00    +0.000 NA
ATOM      2  C   UNL     1       3.553   5.850  18.021  0.00  0.00    +0.000 C 
ENDROOT
BRANCH   2   3
ATOM      3  C   UNL     1       2.592   4.858  18.632  0.00  0.00    +0.000 A 
ATOM      4  C   UNL     1       2.074   3.839  17.809  0.00  0.00    +0.000 A 
ATOM      5  C   UNL     1       1.151   2.911  18.300  0.00  0.00    +0.000 A 
ATOM      6  C   UNL     1       0.780   2.943  19.641  0.00  0.00    +0.000 A 
ATOM      7  C   UNL     1       1.307   3.921  20.482  0.00  0.00    +0.000 A 
ATOM      8  C   UNL     1       2.186   4.889  19.976  0.00  0.00    +0.000 A 
BRANCH   8   9
ATOM      9  O   UNL     1       2.584   5.881  20.830  0.00  0.00    +0.000 OA
ATOM     10  H   UNL     1       1.790   6.232  21.266  0.00  0.00    +0.000 HD
ENDBRANCH   8   9
ENDBRANCH   2   3
BRANCH   2  11
ATOM     11  C   UNL     1       4.901   5.365  17.520  0.00  0.00    +0.000 A 
ATOM     12  C   UNL     1       5.058   5.260  16.126  0.00  0.00    +0.000 A 
ATOM     13  C   UNL     1       6.286   4.913  15.562  0.00  0.00    +0.000 A 
ATOM     14  C   UNL     1       7.384   4.678  16.382  0.00  0.00    +0.000 A 
ATOM     15  C   UNL     1       7.244   4.757  17.768  0.00  0.00    +0.000 A 
ATOM     16  C   UNL     1       6.006   5.082  18.336  0.00  0.00    +0.000 A 
BRANCH  16  17
ATOM     17  O   UNL     1       5.903   5.109  19.699  0.00  0.00    +0.000 OA
ATOM     18  H   UNL     1       6.759   4.882  20.095  0.00  0.00    +0.000 HD
ENDBRANCH  16  17
ENDBRANCH   2  11
BRANCH   1  19
ATOM     19  O   UNL     1       2.208   7.582  18.600  0.00  0.00    +0.000 OA
ATOM     20  H   UNL     1       1.990   8.385  18.095  0.00  0.00    +0.000 HD
ENDBRANCH   1  19
TORSDOF 5
ENDMDL
MODEL 7
REMARK VINA RESULT:      -7.3      2.846      5.472
REMARK  Name = 
REMARK  5 active torsions:
REMARK  status: ('A' for Active; 'I' for Inactive)
REMARK    1  A    between atoms: O_1  and  N_2
REMARK    2  A    between atoms: C_3  and  C_4
REMARK    3  A    between atoms: C_3  and  C_11
REMARK    4  A    between atoms: C_9  and  O_10
REMARK    5  A    between atoms: C_16  and  O_17
REMARK                            x       y       z     vdW  Elec       q    Type
REMARK                         _______ _______ _______ _____ _____    ______ ____
ROOT
ATOM      1  N   UNL     1       3.166   7.594  17.717  0.00  0.00    +0.000 NA
ATOM      2  C   UNL     1       3.480   6.360  18.016  0.00  0.00    +0.000 C 
ENDROOT
BRANCH   2   3
ATOM      3  C   UNL     1       2.547   5.347  18.635  0.00  0.00    +0.000 A 
ATOM      4  C   UNL     1       2.137   4.251  17.850  0.00  0.00    +0.000 A 
ATOM      5  C   UNL     1       1.245   3.298  18.347  0.00  0.00    +0.000 A 
ATOM      6  C   UNL     1       0.797   3.384  19.661  0.00  0.00    +0.000 A 
ATOM      7  C   UNL     1       1.217   4.440  20.468  0.00  0.00    +0.000 A 
ATOM      8  C   UNL     1       2.063   5.430  19.951  0.00  0.00    +0.000 A 
BRANCH   8   9
ATOM      9  O   UNL     1       2.353   6.493  20.762  0.00  0.00    +0.000 OA
ATOM     10  H   UNL     1       2.602   6.142  21.633  0.00  0.00    +0.000 HD
ENDBRANCH   8   9
ENDBRANCH   2   3
BRANCH   2  11
ATOM     11  C   UNL     1       4.935   5.989  17.794  0.00  0.00    +0.000 A 
ATOM     12  C   UNL     1       5.602   5.372  18.868  0.00  0.00    +0.000 A 
ATOM     13  C   UNL     1       6.912   4.908  18.735  0.00  0.00    +0.000 A 
ATOM     14  C   UNL     1       7.574   5.043  17.520  0.00  0.00    +0.000 A 
ATOM     15  C   UNL     1       6.937   5.671  16.449  0.00  0.00    +0.000 A 
ATOM     16  C   UNL     1       5.632   6.157  16.589  0.00  0.00    +0.000 A 
BRANCH  16  17
ATOM     17  O   UNL     1       5.061   6.802  15.527  0.00  0.00    +0.000 OA
ATOM     18  H   UNL     1       5.512   7.648  15.378  0.00  0.00    +0.000 HD
ENDBRANCH  16  17
ENDBRANCH   2  11
BRANCH   1  19
ATOM     19  O   UNL     1       1.882   7.965  18.117  0.00  0.00    +0.000 OA
ATOM     20  H   UNL     1       1.328   7.342  17.615  0.00  0.00    +0.000 HD
ENDBRANCH   1  19
TORSDOF 5
ENDMDL
MODEL 8
REMARK VINA RESULT:      -7.2      1.706      5.078
REMARK  Name = 
REMARK  5 active torsions:
REMARK  status: ('A' for Active; 'I' for Inactive)
REMARK    1  A    between atoms: O_1  and  N_2
REMARK    2  A    between atoms: C_3  and  C_4
REMARK    3  A    between atoms: C_3  and  C_11
REMARK    4  A    between atoms: C_9  and  O_10
REMARK    5  A    between atoms: C_16  and  O_17
REMARK                            x       y       z     vdW  Elec       q    Type
REMARK                         _______ _______ _______ _____ _____    ______ ____
ROOT
ATOM      1  N   UNL     1       5.538   2.757  19.727  0.00  0.00    +0.000 NA
ATOM      2  C   UNL     1       4.651   3.590  19.248  0.00  0.00    +0.000 C 
ENDROOT
BRANCH   2   3
ATOM      3  C   UNL     1       3.154   3.461  19.411  0.00  0.00    +0.000 A 
ATOM      4  C   UNL     1       2.493   4.379  20.249  0.00  0.00    +0.000 A 
ATOM      5  C   UNL     1       1.117   4.293  20.474  0.00  0.00    +0.000 A 
ATOM      6  C   UNL     1       0.364   3.328  19.812  0.00  0.00    +0.000 A 
ATOM      7  C   UNL     1       0.991   2.432  18.950  0.00  0.00    +0.000 A 
ATOM      8  C   UNL     1       2.381   2.479  18.772  0.00  0.00    +0.000 A 
BRANCH   8   9
ATOM      9  O   UNL     1       2.945   1.504  17.994  0.00  0.00    +0.000 OA
ATOM     10  H   UNL     1       2.250   1.140  17.423  0.00  0.00    +0.000 HD
ENDBRANCH   8   9
ENDBRANCH   2   3
BRANCH   2  11
ATOM     11  C   UNL     1       5.209   4.709  18.387  0.00  0.00    +0.000 A 
ATOM     12  C   UNL     1       4.533   4.978  17.184  0.00  0.00    +0.000 A 
ATOM     13  C   UNL     1       4.910   6.046  16.367  0.00  0.00    +0.000 A 
ATOM     14  C   UNL     1       5.963   6.870  16.748  0.00  0.00    +0.000 A 
ATOM     15  C   UNL     1       6.660   6.607  17.927  0.00  0.00    +0.000 A 
ATOM     16  C   UNL     1       6.297   5.522  18.735  0.00  0.00    +0.000 A 
BRANCH  16  17
ATOM     17  O   UNL     1       7.032   5.276  19.861  0.00  0.00    +0.000 OA
ATOM     18  H   UNL     1       6.465   4.878  20.540  0.00  0.00    +0.000 HD
ENDBRANCH  16  17
ENDBRANCH   2  11
BRANCH   1  19
ATOM     19  O   UNL     1       4.987   1.632  20.341  0.00  0.00    +0.000 OA
ATOM     20  H   UNL     1       4.476   1.237  19.612  0.00  0.00    +0.000 HD
ENDBRANCH   1  19
TORSDOF 5
ENDMDL
MODEL 9
REMARK VINA RESULT:      -7.2      2.288      2.967
REMARK  Name = 
REMARK  5 active torsions:
REMARK  status: ('A' for Active; 'I' for Inactive)
REMARK    1  A    between atoms: O_1  and  N_2
REMARK    2  A    between atoms: C_3  and  C_4
REMARK    3  A    between atoms: C_3  and  C_11
REMARK    4  A    between atoms: C_9  and  O_10
REMARK    5  A    between atoms: C_16  and  O_17
REMARK                            x       y       z     vdW  Elec       q    Type
REMARK                         _______ _______ _______ _____ _____    ______ ____
ROOT
ATOM      1  N   UNL     1       5.004   3.589  15.968  0.00  0.00    +0.000 NA
ATOM      2  C   UNL     1       4.974   4.260  17.090  0.00  0.00    +0.000 C 
ENDROOT
BRANCH   2   3
ATOM      3  C   UNL     1       6.033   5.231  17.556  0.00  0.00    +0.000 A 
ATOM      4  C   UNL     1       6.746   4.925  18.731  0.00  0.00    +0.000 A 
ATOM      5  C   UNL     1       7.713   5.798  19.239  0.00  0.00    +0.000 A 
ATOM      6  C   UNL     1       8.033   6.960  18.545  0.00  0.00    +0.000 A 
ATOM      7  C   UNL     1       7.366   7.265  17.361  0.00  0.00    +0.000 A 
ATOM      8  C   UNL     1       6.353   6.421  16.884  0.00  0.00    +0.000 A 
BRANCH   8   9
ATOM      9  O   UNL     1       5.667   6.833  15.773  0.00  0.00    +0.000 OA
ATOM     10  H   UNL     1       4.866   7.292  16.073  0.00  0.00    +0.000 HD
ENDBRANCH   8   9
ENDBRANCH   2   3
BRANCH   2  11
ATOM     11  C   UNL     1       3.811   3.934  18.010  0.00  0.00    +0.000 A 
ATOM     12  C   UNL     1       3.036   5.019  18.458  0.00  0.00    +0.000 A 
ATOM     13  C   UNL     1       1.891   4.818  19.231  0.00  0.00    +0.000 A 
ATOM     14  C   UNL     1       1.494   3.527  19.557  0.00  0.00    +0.000 A 
ATOM     15  C   UNL     1       2.260   2.438  19.139  0.00  0.00    +0.000 A 
ATOM     16  C   UNL     1       3.422   2.640  18.384  0.00  0.00    +0.000 A 
BRANCH  16  17
ATOM     17  O   UNL     1       4.165   1.549  18.030  0.00  0.00    +0.000 OA
ATOM     18  H   UNL     1       3.948   0.804  18.612  0.00  0.00    +0.000 HD
ENDBRANCH  16  17
ENDBRANCH   2  11
BRANCH   1  19
ATOM     19  O   UNL     1       6.181   3.757  15.238  0.00  0.00    +0.000 OA
ATOM     20  H   UNL     1       6.185   2.959  14.680  0.00  0.00    +0.000 HD
ENDBRANCH   1  19
TORSDOF 5
ENDMDL
