MODEL 1
REMARK VINA RESULT:      -7.1      0.000      0.000
REMARK  Name = 
REMARK  5 active torsions:
REMARK  status: ('A' for Active; 'I' for Inactive)
REMARK    1  A    between atoms: C_2  and  O_3
REMARK    2  A    between atoms: C_2  and  C_4
REMARK    3  A    between atoms: N_8  and  S_9
REMARK    4  A    between atoms: S_9  and  C_12
REMARK    5  A    between atoms: C_17  and  C_18
REMARK                            x       y       z     vdW  Elec       q    Type
REMARK                         _______ _______ _______ _____ _____    ______ ____
ROOT
ATOM      1  S   UNL     1       4.330   5.747  18.537  0.00  0.00    +0.000 S 
ATOM      2  O   UNL     1       3.526   6.901  18.211  0.00  0.00    +0.000 OA
ATOM      3  O   UNL     1       5.305   5.755  19.607  0.00  0.00    +0.000 OA
ENDROOT
BRANCH   1   8
ATOM      4  C   UNL     1       1.539   3.991  20.964  0.00  0.00    +0.000 C 
ATOM      5  C   UNL     1       0.502   3.605  19.919  0.00  0.00    +0.000 C 
ATOM      6  C   UNL     1       1.156   3.128  18.626  0.00  0.00    +0.000 C 
ATOM      7  C   UNL     1       2.126   4.175  18.076  0.00  0.00    +0.000 C 
ATOM      8  N   UNL     1       3.200   4.466  19.087  0.00  0.00    +0.000 NA
ATOM      9  C   UNL     1       2.599   4.930  20.413  0.00  0.00    +0.000 C 
BRANCH   4  11
ATOM     10  O   UNL     1       1.447   2.040  22.377  0.00  0.00    +0.000 OA
ATOM     11  C   UNL     1       2.110   2.765  21.652  0.00  0.00    +0.000 C 
BRANCH  11  12
ATOM     12  O   UNL     1       3.395   2.483  21.344  0.00  0.00    +0.000 OA
ATOM     13  H   UNL     1       3.906   2.113  22.100  0.00  0.00    +0.000 HD
ENDBRANCH  11  12
ENDBRANCH   4  11
ENDBRANCH   1   8
BRANCH   1  14
ATOM     14  C   UNL     1       5.195   5.203  17.079  0.00  0.00    +0.000 A 
ATOM     15  C   UNL     1       4.593   4.145  16.355  0.00  0.00    +0.000 A 
ATOM     16  C   UNL     1       5.229   3.565  15.262  0.00  0.00    +0.000 A 
ATOM     17  C   UNL     1       6.486   4.004  14.898  0.00  0.00    +0.000 A 
ATOM     18  C   UNL     1       7.101   5.028  15.623  0.00  0.00    +0.000 A 
ATOM     19  C   UNL     1       6.486   5.710  16.714  0.00  0.00    +0.000 A 
BRANCH  19  20
ATOM     20  C   UNL     1       7.321   6.798  17.369  0.00  0.00    +0.000 A 
ATOM     21  C   UNL     1       7.265   8.135  16.930  0.00  0.00    +0.000 A 
ATOM     22  C   UNL     1       7.885   9.206  17.589  0.00  0.00    +0.000 A 
ATOM     23  C   UNL     1       8.524   9.000  18.795  0.00  0.00    +0.000 A 
ATOM     24  C   UNL     1       8.624   7.706  19.280  0.00  0.00    +0.000 A 
ATOM     25  C   UNL     1       8.090   6.617  18.555  0.00  0.00    +0.000 A 
ATOM     26 CL   UNL     1       8.485   5.058  19.220  0.00  0.00    +0.000 Cl
ENDBRANCH  19  20
ENDBRANCH   1  14
TORSDOF 5
ENDMDL
MODEL 2
REMARK VINA RESULT:      -7.0      1.314      1.605
REMARK  Name = 
REMARK  5 active torsions:
REMARK  status: ('A' for Active; 'I' for Inactive)
REMARK    1  A    between atoms: C_2  and  O_3
REMARK    2  A    between atoms: C_2  and  C_4
REMARK    3  A    between atoms: N_8  and  S_9
REMARK    4  A    between atoms: S_9  and  C_12
REMARK    5  A    between atoms: C_17  and  C_18
REMARK                            x       y       z     vdW  Elec       q    Type
REMARK                         _______ _______ _______ _____ _____    ______ ____
ROOT
ATOM      1  S   UNL     1       4.236   5.986  18.627  0.00  0.00    +0.000 S 
ATOM      2  O   UNL     1       3.726   7.306  18.341  0.00  0.00    +0.000 OA
ATOM      3  O   UNL     1       5.110   5.716  19.748  0.00  0.00    +0.000 OA
ENDROOT
BRANCH   1   8
ATOM      4  C   UNL     1       2.270   2.581  19.770  0.00  0.00    +0.000 C 
ATOM      5  C   UNL     1       1.380   3.157  20.863  0.00  0.00    +0.000 C 
ATOM      6  C   UNL     1       0.863   4.544  20.495  0.00  0.00    +0.000 C 
ATOM      7  C   UNL     1       2.014   5.496  20.165  0.00  0.00    +0.000 C 
ATOM      8  N   UNL     1       2.820   4.955  19.016  0.00  0.00    +0.000 NA
ATOM      9  C   UNL     1       3.348   3.555  19.323  0.00  0.00    +0.000 C 
BRANCH   4  11
ATOM     10  O   UNL     1       0.233   1.880  18.688  0.00  0.00    +0.000 OA
ATOM     11  C   UNL     1       1.445   2.019  18.627  0.00  0.00    +0.000 C 
BRANCH  11  12
ATOM     12  O   UNL     1       2.138   1.755  17.498  0.00  0.00    +0.000 OA
ATOM     13  H   UNL     1       2.263   0.792  17.334  0.00  0.00    +0.000 HD
ENDBRANCH  11  12
ENDBRANCH   4  11
ENDBRANCH   1   8
BRANCH   1  14
ATOM     14  C   UNL     1       5.065   5.352  17.185  0.00  0.00    +0.000 A 
ATOM     15  C   UNL     1       4.409   4.302  16.499  0.00  0.00    +0.000 A 
ATOM     16  C   UNL     1       5.010   3.656  15.424  0.00  0.00    +0.000 A 
ATOM     17  C   UNL     1       6.285   4.020  15.040  0.00  0.00    +0.000 A 
ATOM     18  C   UNL     1       6.952   5.037  15.728  0.00  0.00    +0.000 A 
ATOM     19  C   UNL     1       6.377   5.784  16.798  0.00  0.00    +0.000 A 
BRANCH  19  20
ATOM     20  C   UNL     1       7.268   6.851  17.412  0.00  0.00    +0.000 A 
ATOM     21  C   UNL     1       7.253   8.180  16.949  0.00  0.00    +0.000 A 
ATOM     22  C   UNL     1       7.929   9.239  17.573  0.00  0.00    +0.000 A 
ATOM     23  C   UNL     1       8.586   9.032  18.768  0.00  0.00    +0.000 A 
ATOM     24  C   UNL     1       8.647   7.744  19.277  0.00  0.00    +0.000 A 
ATOM     25  C   UNL     1       8.056   6.663  18.586  0.00  0.00    +0.000 A 
ATOM     26 CL   UNL     1       8.405   5.103  19.273  0.00  0.00    +0.000 Cl
ENDBRANCH  19  20
ENDBRANCH   1  14
TORSDOF 5
ENDMDL
MODEL 3
REMARK VINA RESULT:      -6.8      8.615      9.888
REMARK  Name = 
REMARK  5 active torsions:
REMARK  status: ('A' for Active; 'I' for Inactive)
REMARK    1  A    between atoms: C_2  and  O_3
REMARK    2  A    between atoms: C_2  and  C_4
REMARK    3  A    between atoms: N_8  and  S_9
REMARK    4  A    between atoms: S_9  and  C_12
REMARK    5  A    between atoms: C_17  and  C_18
REMARK                            x       y       z     vdW  Elec       q    Type
REMARK                         _______ _______ _______ _____ _____    ______ ____
ROOT
ATOM      1  S   UNL     1       8.973  13.705  21.320  0.00  0.00    +0.000 S 
ATOM      2  O   UNL     1      10.005  14.683  21.575  0.00  0.00    +0.000 OA
ATOM      3  O   UNL     1       9.272  12.335  20.961  0.00  0.00    +0.000 OA
ENDROOT
BRANCH   1   8
ATOM      4  C   UNL     1       7.501  11.674  24.556  0.00  0.00    +0.000 C 
ATOM      5  C   UNL     1       7.966  12.601  25.670  0.00  0.00    +0.000 C 
ATOM      6  C   UNL     1       7.856  14.068  25.265  0.00  0.00    +0.000 C 
ATOM      7  C   UNL     1       8.617  14.343  23.968  0.00  0.00    +0.000 C 
ATOM      8  N   UNL     1       8.072  13.489  22.857  0.00  0.00    +0.000 NA
ATOM      9  C   UNL     1       8.139  12.006  23.217  0.00  0.00    +0.000 C 
BRANCH   4  11
ATOM     10  O   UNL     1       5.317  11.081  25.389  0.00  0.00    +0.000 OA
ATOM     11  C   UNL     1       5.986  11.593  24.504  0.00  0.00    +0.000 C 
BRANCH  11  12
ATOM     12  O   UNL     1       5.417  12.200  23.440  0.00  0.00    +0.000 OA
ATOM     13  H   UNL     1       4.462  12.398  23.569  0.00  0.00    +0.000 HD
ENDBRANCH  11  12
ENDBRANCH   4  11
ENDBRANCH   1   8
BRANCH   1  14
ATOM     14  C   UNL     1       7.878  14.323  20.060  0.00  0.00    +0.000 A 
ATOM     15  C   UNL     1       6.590  14.721  20.493  0.00  0.00    +0.000 A 
ATOM     16  C   UNL     1       5.614  15.118  19.585  0.00  0.00    +0.000 A 
ATOM     17  C   UNL     1       5.893  15.089  18.234  0.00  0.00    +0.000 A 
ATOM     18  C   UNL     1       7.151  14.670  17.794  0.00  0.00    +0.000 A 
ATOM     19  C   UNL     1       8.219  14.309  18.667  0.00  0.00    +0.000 A 
BRANCH  19  20
ATOM     20  C   UNL     1       9.512  13.886  17.989  0.00  0.00    +0.000 A 
ATOM     21  C   UNL     1      10.510  14.821  17.656  0.00  0.00    +0.000 A 
ATOM     22  C   UNL     1      11.783  14.478  17.177  0.00  0.00    +0.000 A 
ATOM     23  C   UNL     1      12.159  13.152  17.100  0.00  0.00    +0.000 A 
ATOM     24  C   UNL     1      11.221  12.178  17.406  0.00  0.00    +0.000 A 
ATOM     25  C   UNL     1       9.906  12.531  17.783  0.00  0.00    +0.000 A 
ATOM     26 CL   UNL     1       8.823  11.178  17.934  0.00  0.00    +0.000 Cl
ENDBRANCH  19  20
ENDBRANCH   1  14
TORSDOF 5
ENDMDL
MODEL 4
REMARK VINA RESULT:      -6.8      3.029      6.121
REMARK  Name = 
REMARK  5 active torsions:
REMARK  status: ('A' for Active; 'I' for Inactive)
REMARK    1  A    between atoms: C_2  and  O_3
REMARK    2  A    between atoms: C_2  and  C_4
REMARK    3  A    between atoms: N_8  and  S_9
REMARK    4  A    between atoms: S_9  and  C_12
REMARK    5  A    between atoms: C_17  and  C_18
REMARK                            x       y       z     vdW  Elec       q    Type
REMARK                         _______ _______ _______ _____ _____    ______ ____
ROOT
ATOM      1  S   UNL     1       5.061   4.566  19.297  0.00  0.00    +0.000 S 
ATOM      2  O   UNL     1       5.905   3.485  19.750  0.00  0.00    +0.000 OA
ATOM      3  O   UNL     1       5.221   5.926  19.764  0.00  0.00    +0.000 OA
ENDROOT
BRANCH   1   8
ATOM      4  C   UNL     1       7.069   4.120  15.757  0.00  0.00    +0.000 C 
ATOM      5  C   UNL     1       5.940   3.577  14.892  0.00  0.00    +0.000 C 
ATOM      6  C   UNL     1       4.609   4.247  15.218  0.00  0.00    +0.000 C 
ATOM      7  C   UNL     1       4.273   4.118  16.705  0.00  0.00    +0.000 C 
ATOM      8  N   UNL     1       5.354   4.751  17.537  0.00  0.00    +0.000 NA
ATOM      9  C   UNL     1       6.717   4.130  17.235  0.00  0.00    +0.000 C 
BRANCH   4  11
ATOM     10  O   UNL     1       7.917   5.634  14.084  0.00  0.00    +0.000 OA
ATOM     11  C   UNL     1       7.564   5.458  15.240  0.00  0.00    +0.000 C 
BRANCH  11  12
ATOM     12  O   UNL     1       7.513   6.470  16.133  0.00  0.00    +0.000 OA
ATOM     13  H   UNL     1       7.780   6.202  17.042  0.00  0.00    +0.000 HD
ENDBRANCH  11  12
ENDBRANCH   4  11
ENDBRANCH   1   8
BRANCH   1  14
ATOM     14  C   UNL     1       3.356   4.139  19.584  0.00  0.00    +0.000 A 
ATOM     15  C   UNL     1       3.095   2.779  19.876  0.00  0.00    +0.000 A 
ATOM     16  C   UNL     1       1.793   2.307  20.012  0.00  0.00    +0.000 A 
ATOM     17  C   UNL     1       0.735   3.174  19.823  0.00  0.00    +0.000 A 
ATOM     18  C   UNL     1       0.982   4.512  19.507  0.00  0.00    +0.000 A 
ATOM     19  C   UNL     1       2.287   5.079  19.412  0.00  0.00    +0.000 A 
BRANCH  19  20
ATOM     20  C   UNL     1       2.341   6.557  19.061  0.00  0.00    +0.000 A 
ATOM     21  C   UNL     1       2.824   7.002  17.816  0.00  0.00    +0.000 A 
ATOM     22  C   UNL     1       2.753   8.331  17.373  0.00  0.00    +0.000 A 
ATOM     23  C   UNL     1       2.094   9.278  18.130  0.00  0.00    +0.000 A 
ATOM     24  C   UNL     1       1.601   8.909  19.372  0.00  0.00    +0.000 A 
ATOM     25  C   UNL     1       1.773   7.594  19.858  0.00  0.00    +0.000 A 
ATOM     26 CL   UNL     1       1.267   7.374  21.508  0.00  0.00    +0.000 Cl
ENDBRANCH  19  20
ENDBRANCH   1  14
TORSDOF 5
ENDMDL
MODEL 5
REMARK VINA RESULT:      -6.8      9.719     11.543
REMARK  Name = 
REMARK  5 active torsions:
REMARK  status: ('A' for Active; 'I' for Inactive)
REMARK    1  A    between atoms: C_2  and  O_3
REMARK    2  A    between atoms: C_2  and  C_4
REMARK    3  A    between atoms: N_8  and  S_9
REMARK    4  A    between atoms: S_9  and  C_12
REMARK    5  A    between atoms: C_17  and  C_18
REMARK                            x       y       z     vdW  Elec       q    Type
REMARK                         _______ _______ _______ _____ _____    ______ ____
ROOT
ATOM      1  S   UNL     1      -1.936  12.336  19.553  0.00  0.00    +0.000 S 
ATOM      2  O   UNL     1      -1.254  12.227  18.285  0.00  0.00    +0.000 OA
ATOM      3  O   UNL     1      -2.143  13.605  20.218  0.00  0.00    +0.000 OA
ENDROOT
BRANCH   1   8
ATOM      4  C   UNL     1      -6.019  12.635  19.512  0.00  0.00    +0.000 C 
ATOM      5  C   UNL     1      -6.292  12.183  18.085  0.00  0.00    +0.000 C 
ATOM      6  C   UNL     1      -5.360  11.051  17.664  0.00  0.00    +0.000 C 
ATOM      7  C   UNL     1      -3.893  11.444  17.845  0.00  0.00    +0.000 C 
ATOM      8  N   UNL     1      -3.623  11.789  19.284  0.00  0.00    +0.000 NA
ATOM      9  C   UNL     1      -4.545  12.907  19.766  0.00  0.00    +0.000 C 
BRANCH   4  11
ATOM     10  O   UNL     1      -6.290  11.628  21.686  0.00  0.00    +0.000 OA
ATOM     11  C   UNL     1      -6.644  11.686  20.519  0.00  0.00    +0.000 C 
BRANCH  11  12
ATOM     12  O   UNL     1      -7.682  10.959  20.051  0.00  0.00    +0.000 OA
ATOM     13  H   UNL     1      -7.514  10.566  19.164  0.00  0.00    +0.000 HD
ENDBRANCH  11  12
ENDBRANCH   4  11
ENDBRANCH   1   8
BRANCH   1  14
ATOM     14  C   UNL     1      -1.140  11.276  20.741  0.00  0.00    +0.000 A 
ATOM     15  C   UNL     1      -0.439  10.165  20.214  0.00  0.00    +0.000 A 
ATOM     16  C   UNL     1       0.131   9.209  21.049  0.00  0.00    +0.000 A 
ATOM     17  C   UNL     1      -0.020   9.326  22.416  0.00  0.00    +0.000 A 
ATOM     18  C   UNL     1      -0.735  10.404  22.945  0.00  0.00    +0.000 A 
ATOM     19  C   UNL     1      -1.293  11.452  22.156  0.00  0.00    +0.000 A 
BRANCH  19  20
ATOM     20  C   UNL     1      -2.030  12.537  22.925  0.00  0.00    +0.000 A 
ATOM     21  C   UNL     1      -3.305  12.311  23.478  0.00  0.00    +0.000 A 
ATOM     22  C   UNL     1      -3.965  13.211  24.328  0.00  0.00    +0.000 A 
ATOM     23  C   UNL     1      -3.327  14.360  24.749  0.00  0.00    +0.000 A 
ATOM     24  C   UNL     1      -2.072  14.647  24.236  0.00  0.00    +0.000 A 
ATOM     25  C   UNL     1      -1.459  13.789  23.296  0.00  0.00    +0.000 A 
ATOM     26 CL   UNL     1       0.017  14.414  22.619  0.00  0.00    +0.000 Cl
ENDBRANCH  19  20
ENDBRANCH   1  14
TORSDOF 5
ENDMDL
MODEL 6
REMARK VINA RESULT:      -6.8      3.490      6.148
REMARK  Name = 
REMARK  5 active torsions:
REMARK  status: ('A' for Active; 'I' for Inactive)
REMARK    1  A    between atoms: C_2  and  O_3
REMARK    2  A    between atoms: C_2  and  C_4
REMARK    3  A    between atoms: N_8  and  S_9
REMARK    4  A    between atoms: S_9  and  C_12
REMARK    5  A    between atoms: C_17  and  C_18
REMARK                            x       y       z     vdW  Elec       q    Type
REMARK                         _______ _______ _______ _____ _____    ______ ____
ROOT
ATOM      1  S   UNL     1       2.628   7.195  17.838  0.00  0.00    +0.000 S 
ATOM      2  O   UNL     1       1.624   6.162  17.726  0.00  0.00    +0.000 OA
ATOM      3  O   UNL     1       2.868   8.162  16.789  0.00  0.00    +0.000 OA
ENDROOT
BRANCH   1   8
ATOM      4  C   UNL     1       0.386  10.019  19.777  0.00  0.00    +0.000 C 
ATOM      5  C   UNL     1       0.069   9.257  21.056  0.00  0.00    +0.000 C 
ATOM      6  C   UNL     1       1.256   8.418  21.521  0.00  0.00    +0.000 C 
ATOM      7  C   UNL     1       1.730   7.470  20.419  0.00  0.00    +0.000 C 
ATOM      8  N   UNL     1       2.134   8.253  19.200  0.00  0.00    +0.000 NA
ATOM      9  C   UNL     1       0.986   9.129  18.701  0.00  0.00    +0.000 C 
BRANCH   4  11
ATOM     10  O   UNL     1       1.362  11.710  21.192  0.00  0.00    +0.000 OA
ATOM     11  C   UNL     1       1.208  11.262  20.066  0.00  0.00    +0.000 C 
BRANCH  11  12
ATOM     12  O   UNL     1       1.828  11.799  18.993  0.00  0.00    +0.000 OA
ATOM     13  H   UNL     1       2.297  11.134  18.440  0.00  0.00    +0.000 HD
ENDBRANCH  11  12
ENDBRANCH   4  11
ENDBRANCH   1   8
BRANCH   1  14
ATOM     14  C   UNL     1       4.203   6.447  18.195  0.00  0.00    +0.000 A 
ATOM     15  C   UNL     1       5.340   7.109  17.674  0.00  0.00    +0.000 A 
ATOM     16  C   UNL     1       6.614   6.562  17.796  0.00  0.00    +0.000 A 
ATOM     17  C   UNL     1       6.767   5.333  18.406  0.00  0.00    +0.000 A 
ATOM     18  C   UNL     1       5.648   4.658  18.899  0.00  0.00    +0.000 A 
ATOM     19  C   UNL     1       4.323   5.184  18.864  0.00  0.00    +0.000 A 
BRANCH  19  20
ATOM     20  C   UNL     1       3.243   4.294  19.457  0.00  0.00    +0.000 A 
ATOM     21  C   UNL     1       2.871   4.389  20.812  0.00  0.00    +0.000 A 
ATOM     22  C   UNL     1       1.780   3.712  21.378  0.00  0.00    +0.000 A 
ATOM     23  C   UNL     1       0.936   2.969  20.579  0.00  0.00    +0.000 A 
ATOM     24  C   UNL     1       1.249   2.827  19.236  0.00  0.00    +0.000 A 
ATOM     25  C   UNL     1       2.410   3.423  18.695  0.00  0.00    +0.000 A 
ATOM     26 CL   UNL     1       2.739   2.971  17.048  0.00  0.00    +0.000 Cl
ENDBRANCH  19  20
ENDBRANCH   1  14
TORSDOF 5
ENDMDL
MODEL 7
REMARK VINA RESULT:      -6.8      9.060     11.261
REMARK  Name = 
REMARK  5 active torsions:
REMARK  status: ('A' for Active; 'I' for Inactive)
REMARK    1  A    between atoms: C_2  and  O_3
REMARK    2  A    between atoms: C_2  and  C_4
REMARK    3  A    between atoms: N_8  and  S_9
REMARK    4  A    between atoms: S_9  and  C_12
REMARK    5  A    between atoms: C_17  and  C_18
REMARK                            x       y       z     vdW  Elec       q    Type
REMARK                         _______ _______ _______ _____ _____    ______ ____
ROOT
ATOM      1  S   UNL     1      -0.868  12.786  19.696  0.00  0.00    +0.000 S 
ATOM      2  O   UNL     1       0.361  12.879  18.943  0.00  0.00    +0.000 OA
ATOM      3  O   UNL     1      -1.554  13.951  20.212  0.00  0.00    +0.000 OA
ENDROOT
BRANCH   1   8
ATOM      4  C   UNL     1      -2.604   9.955  17.301  0.00  0.00    +0.000 C 
ATOM      5  C   UNL     1      -4.011   9.959  17.882  0.00  0.00    +0.000 C 
ATOM      6  C   UNL     1      -4.457  11.367  18.266  0.00  0.00    +0.000 C 
ATOM      7  C   UNL     1      -3.464  12.022  19.227  0.00  0.00    +0.000 C 
ATOM      8  N   UNL     1      -2.103  12.098  18.591  0.00  0.00    +0.000 NA
ATOM      9  C   UNL     1      -1.613  10.714  18.168  0.00  0.00    +0.000 C 
BRANCH   4  11
ATOM     10  O   UNL     1      -2.948   9.667  14.932  0.00  0.00    +0.000 OA
ATOM     11  C   UNL     1      -2.607  10.398  15.850  0.00  0.00    +0.000 C 
BRANCH  11  12
ATOM     12  O   UNL     1      -2.278  11.692  15.646  0.00  0.00    +0.000 OA
ATOM     13  H   UNL     1      -1.307  11.850  15.629  0.00  0.00    +0.000 HD
ENDBRANCH  11  12
ENDBRANCH   4  11
ENDBRANCH   1   8
BRANCH   1  14
ATOM     14  C   UNL     1      -0.625  11.696  21.083  0.00  0.00    +0.000 A 
ATOM     15  C   UNL     1       0.292  10.635  20.890  0.00  0.00    +0.000 A 
ATOM     16  C   UNL     1       0.483   9.659  21.862  0.00  0.00    +0.000 A 
ATOM     17  C   UNL     1      -0.262   9.705  23.024  0.00  0.00    +0.000 A 
ATOM     18  C   UNL     1      -1.190  10.732  23.212  0.00  0.00    +0.000 A 
ATOM     19  C   UNL     1      -1.395  11.799  22.289  0.00  0.00    +0.000 A 
BRANCH  19  20
ATOM     20  C   UNL     1      -2.450  12.820  22.682  0.00  0.00    +0.000 A 
ATOM     21  C   UNL     1      -3.825  12.532  22.592  0.00  0.00    +0.000 A 
ATOM     22  C   UNL     1      -4.838  13.366  23.086  0.00  0.00    +0.000 A 
ATOM     23  C   UNL     1      -4.513  14.507  23.792  0.00  0.00    +0.000 A 
ATOM     24  C   UNL     1      -3.176  14.855  23.910  0.00  0.00    +0.000 A 
ATOM     25  C   UNL     1      -2.167  14.065  23.316  0.00  0.00    +0.000 A 
ATOM     26 CL   UNL     1      -0.576  14.764  23.402  0.00  0.00    +0.000 Cl
ENDBRANCH  19  20
ENDBRANCH   1  14
TORSDOF 5
ENDMDL
MODEL 8
REMARK VINA RESULT:      -6.7      2.843      5.923
REMARK  Name = 
REMARK  5 active torsions:
REMARK  status: ('A' for Active; 'I' for Inactive)
REMARK    1  A    between atoms: C_2  and  O_3
REMARK    2  A    between atoms: C_2  and  C_4
REMARK    3  A    between atoms: N_8  and  S_9
REMARK    4  A    between atoms: S_9  and  C_12
REMARK    5  A    between atoms: C_17  and  C_18
REMARK                            x       y       z     vdW  Elec       q    Type
REMARK                         _______ _______ _______ _____ _____    ______ ____
ROOT
ATOM      1  S   UNL     1       3.220   3.442  17.585  0.00  0.00    +0.000 S 
ATOM      2  O   UNL     1       2.094   3.942  16.831  0.00  0.00    +0.000 OA
ATOM      3  O   UNL     1       3.734   2.100  17.418  0.00  0.00    +0.000 OA
ENDROOT
BRANCH   1   8
ATOM      4  C   UNL     1       7.140   4.622  17.582  0.00  0.00    +0.000 C 
ATOM      5  C   UNL     1       7.396   4.648  16.082  0.00  0.00    +0.000 C 
ATOM      6  C   UNL     1       6.186   5.171  15.314  0.00  0.00    +0.000 C 
ATOM      7  C   UNL     1       4.929   4.363  15.643  0.00  0.00    +0.000 C 
ATOM      8  N   UNL     1       4.639   4.435  17.117  0.00  0.00    +0.000 NA
ATOM      9  C   UNL     1       5.829   3.941  17.938  0.00  0.00    +0.000 C 
BRANCH   4  11
ATOM     10  O   UNL     1       7.036   7.030  17.583  0.00  0.00    +0.000 OA
ATOM     11  C   UNL     1       7.294   6.003  18.192  0.00  0.00    +0.000 C 
BRANCH  11  12
ATOM     12  O   UNL     1       7.663   6.017  19.491  0.00  0.00    +0.000 OA
ATOM     13  H   UNL     1       7.549   5.148  19.939  0.00  0.00    +0.000 HD
ENDBRANCH  11  12
ENDBRANCH   4  11
ENDBRANCH   1   8
BRANCH   1  14
ATOM     14  C   UNL     1       2.894   3.638  19.325  0.00  0.00    +0.000 A 
ATOM     15  C   UNL     1       2.768   2.443  20.073  0.00  0.00    +0.000 A 
ATOM     16  C   UNL     1       2.408   2.467  21.417  0.00  0.00    +0.000 A 
ATOM     17  C   UNL     1       2.134   3.677  22.023  0.00  0.00    +0.000 A 
ATOM     18  C   UNL     1       2.228   4.860  21.285  0.00  0.00    +0.000 A 
ATOM     19  C   UNL     1       2.650   4.917  19.924  0.00  0.00    +0.000 A 
BRANCH  19  20
ATOM     20  C   UNL     1       2.690   6.304  19.303  0.00  0.00    +0.000 A 
ATOM     21  C   UNL     1       3.437   6.569  18.139  0.00  0.00    +0.000 A 
ATOM     22  C   UNL     1       3.388   7.778  17.431  0.00  0.00    +0.000 A 
ATOM     23  C   UNL     1       2.500   8.765  17.807  0.00  0.00    +0.000 A 
ATOM     24  C   UNL     1       1.739   8.573  18.950  0.00  0.00    +0.000 A 
ATOM     25  C   UNL     1       1.873   7.395  19.720  0.00  0.00    +0.000 A 
ATOM     26 CL   UNL     1       0.988   7.421  21.217  0.00  0.00    +0.000 Cl
ENDBRANCH  19  20
ENDBRANCH   1  14
TORSDOF 5
ENDMDL
MODEL 9
REMARK VINA RESULT:      -6.6      3.108      4.800
REMARK  Name = 
REMARK  5 active torsions:
REMARK  status: ('A' for Active; 'I' for Inactive)
REMARK    1  A    between atoms: C_2  and  O_3
REMARK    2  A    between atoms: C_2  and  C_4
REMARK    3  A    between atoms: N_8  and  S_9
REMARK    4  A    between atoms: S_9  and  C_12
REMARK    5  A    between atoms: C_17  and  C_18
REMARK                            x       y       z     vdW  Elec       q    Type
REMARK                         _______ _______ _______ _____ _____    ______ ____
ROOT
ATOM      1  S   UNL     1       3.124   6.668  18.545  0.00  0.00    +0.000 S 
ATOM      2  O   UNL     1       3.553   7.197  17.270  0.00  0.00    +0.000 OA
ATOM      3  O   UNL     1       3.978   6.669  19.713  0.00  0.00    +0.000 OA
ENDROOT
BRANCH   1   8
ATOM      4  C   UNL     1       1.049   9.108  21.094  0.00  0.00    +0.000 C 
ATOM      5  C   UNL     1       0.715  10.246  20.141  0.00  0.00    +0.000 C 
ATOM      6  C   UNL     1       0.382   9.731  18.744  0.00  0.00    +0.000 C 
ATOM      7  C   UNL     1       1.512   8.863  18.189  0.00  0.00    +0.000 C 
ATOM      8  N   UNL     1       1.756   7.689  19.096  0.00  0.00    +0.000 NA
ATOM      9  C   UNL     1       2.075   8.147  20.518  0.00  0.00    +0.000 C 
BRANCH   4  11
ATOM     10  O   UNL     1      -0.676   7.423  21.077  0.00  0.00    +0.000 OA
ATOM     11  C   UNL     1      -0.210   8.425  21.598  0.00  0.00    +0.000 C 
BRANCH  11  12
ATOM     12  O   UNL     1      -0.741   8.959  22.719  0.00  0.00    +0.000 OA
ATOM     13  H   UNL     1      -0.309   8.642  23.545  0.00  0.00    +0.000 HD
ENDBRANCH  11  12
ENDBRANCH   4  11
ENDBRANCH   1   8
BRANCH   1  14
ATOM     14  C   UNL     1       2.576   4.988  18.329  0.00  0.00    +0.000 A 
ATOM     15  C   UNL     1       1.383   4.630  19.002  0.00  0.00    +0.000 A 
ATOM     16  C   UNL     1       0.916   3.320  18.995  0.00  0.00    +0.000 A 
ATOM     17  C   UNL     1       1.648   2.342  18.351  0.00  0.00    +0.000 A 
ATOM     18  C   UNL     1       2.841   2.680  17.707  0.00  0.00    +0.000 A 
ATOM     19  C   UNL     1       3.349   4.010  17.620  0.00  0.00    +0.000 A 
BRANCH  19  20
ATOM     20  C   UNL     1       4.663   4.167  16.872  0.00  0.00    +0.000 A 
ATOM     21  C   UNL     1       4.720   4.128  15.466  0.00  0.00    +0.000 A 
ATOM     22  C   UNL     1       5.867   4.423  14.715  0.00  0.00    +0.000 A 
ATOM     23  C   UNL     1       7.009   4.875  15.346  0.00  0.00    +0.000 A 
ATOM     24  C   UNL     1       7.024   4.930  16.731  0.00  0.00    +0.000 A 
ATOM     25  C   UNL     1       5.899   4.527  17.484  0.00  0.00    +0.000 A 
ATOM     26 CL   UNL     1       6.174   4.478  19.202  0.00  0.00    +0.000 Cl
ENDBRANCH  19  20
ENDBRANCH   1  14
TORSDOF 5
ENDMDL
