MODEL 1
REMARK VINA RESULT:      -7.4      0.000      0.000
REMARK  Name = 
REMARK  10 active torsions:
REMARK  status: ('A' for Active; 'I' for Inactive)
REMARK    1  A    between atoms: C_1  and  C_2
REMARK    2  A    between atoms: C_2  and  C_3
REMARK    3  A    between atoms: C_2  and  C_4
REMARK    4  A    between atoms: C_2  and  C_5
REMARK    5  A    between atoms: C_6  and  C_7
REMARK    6  A    between atoms: C_7  and  O_8
REMARK    7  A    between atoms: C_23  and  C_24
REMARK    8  A    between atoms: C_27  and  C_28
REMARK    9  A    between atoms: C_28  and  C_29
REMARK   10  A    between atoms: C_36  and  C_37
REMARK                            x       y       z     vdW  Elec       q    Type
REMARK                         _______ _______ _______ _____ _____    ______ ____
ROOT
ATOM      1  C   UNL     1       1.464   7.241  20.136  0.00  0.00    +0.000 C 
ATOM      2  C   UNL     1       1.810   8.420  21.043  0.00  0.00    +0.000 C 
ATOM      3  C   UNL     1       0.397   8.539  21.568  0.00  0.00    +0.000 C 
ATOM      4  C   UNL     1      -0.260   9.379  20.529  0.00  0.00    +0.000 C 
ATOM      5  C   UNL     1      -0.355  10.872  21.168  0.00  0.00    +0.000 C 
ATOM      6  C   UNL     1      -0.981  10.646  22.573  0.00  0.00    +0.000 C 
ATOM      7  C   UNL     1      -1.705  11.754  23.273  0.00  0.00    +0.000 C 
ATOM      8  C   UNL     1      -1.292  13.013  22.684  0.00  0.00    +0.000 C 
ATOM      9  C   UNL     1      -0.986  14.074  23.541  0.00  0.00    +0.000 C 
ATOM     10  C   UNL     1      -2.399  14.584  23.774  0.00  0.00    +0.000 C 
ATOM     11  O   UNL     1      -2.973  14.499  24.838  0.00  0.00    +0.000 OA
ATOM     12  C   UNL     1      -2.898  15.274  22.506  0.00  0.00    +0.000 C 
ATOM     13  C   UNL     1      -2.235  14.620  21.141  0.00  0.00    +0.000 C 
ATOM     14  C   UNL     1      -1.515  13.178  21.247  0.00  0.00    +0.000 C 
ATOM     15  C   UNL     1      -1.011  12.094  20.462  0.00  0.00    +0.000 C 
ATOM     16  C   UNL     1      -0.561  11.845  18.913  0.00  0.00    +0.000 C 
ATOM     17  C   UNL     1      -0.627  10.099  18.530  0.00  0.00    +0.000 C 
ATOM     18  C   UNL     1       0.456   8.673  19.119  0.00  0.00    +0.000 C 
ATOM     19  C   UNL     1       1.558   9.182  18.054  0.00  0.00    +0.000 C 
ENDROOT
BRANCH  16  20
ATOM     20  C   UNL     1       0.811  12.590  18.617  0.00  0.00    +0.000 A 
ATOM     21  C   UNL     1       0.766  13.989  18.686  0.00  0.00    +0.000 A 
ATOM     22  C   UNL     1       1.885  14.814  18.620  0.00  0.00    +0.000 A 
ATOM     23  C   UNL     1       3.174  14.343  18.443  0.00  0.00    +0.000 A 
ATOM     24  C   UNL     1       3.242  12.941  18.227  0.00  0.00    +0.000 A 
ATOM     25  C   UNL     1       2.079  12.089  18.294  0.00  0.00    +0.000 A 
BRANCH  23  26
ATOM     26  C   UNL     1       4.391  15.375  18.533  0.00  0.00    +0.000 C 
ATOM     27  C   UNL     1       5.634  14.761  17.861  0.00  0.00    +0.000 C 
ATOM     28  C   UNL     1       4.214  16.849  18.106  0.00  0.00    +0.000 C 
ATOM     29  O   UNL     1       4.849  17.331  19.317  0.00  0.00    +0.000 OA
ATOM     30  C   UNL     1       4.653  16.033  19.934  0.00  0.00    +0.000 C 
ENDBRANCH  23  26
ENDBRANCH  16  20
BRANCH   1  32
ATOM     31  C   UNL     1       3.724   6.553  18.590  0.00  0.00    +0.000 C 
ATOM     32  C   UNL     1       2.680   6.871  19.304  0.00  0.00    +0.000 C 
BRANCH  31  34
ATOM     33  C   UNL     1       4.533   5.139  16.712  0.00  0.00    +0.000 C 
ATOM     34  C   UNL     1       4.941   6.182  17.759  0.00  0.00    +0.000 C 
ATOM     35  C   UNL     1       6.019   5.600  18.682  0.00  0.00    +0.000 C 
ATOM     36  C   UNL     1       5.474   7.441  17.062  0.00  0.00    +0.000 C 
ENDBRANCH  31  34
ENDBRANCH   1  32
BRANCH   1  37
ATOM     37  O   UNL     1       1.232   6.232  21.077  0.00  0.00    +0.000 OA
ATOM     38  H   UNL     1       0.326   5.916  20.838  0.00  0.00    +0.000 HD
ENDBRANCH   1  37
TORSDOF 5
ENDMDL
MODEL 2
REMARK VINA RESULT:      -7.4      0.561      1.162
REMARK  Name = 
REMARK  10 active torsions:
REMARK  status: ('A' for Active; 'I' for Inactive)
REMARK    1  A    between atoms: C_1  and  C_2
REMARK    2  A    between atoms: C_2  and  C_3
REMARK    3  A    between atoms: C_2  and  C_4
REMARK    4  A    between atoms: C_2  and  C_5
REMARK    5  A    between atoms: C_6  and  C_7
REMARK    6  A    between atoms: C_7  and  O_8
REMARK    7  A    between atoms: C_23  and  C_24
REMARK    8  A    between atoms: C_27  and  C_28
REMARK    9  A    between atoms: C_28  and  C_29
REMARK   10  A    between atoms: C_36  and  C_37
REMARK                            x       y       z     vdW  Elec       q    Type
REMARK                         _______ _______ _______ _____ _____    ______ ____
ROOT
ATOM      1  C   UNL     1       1.451   7.247  20.100  0.00  0.00    +0.000 C 
ATOM      2  C   UNL     1       1.807   8.419  21.012  0.00  0.00    +0.000 C 
ATOM      3  C   UNL     1       0.384   8.580  21.498  0.00  0.00    +0.000 C 
ATOM      4  C   UNL     1      -0.220   9.435  20.439  0.00  0.00    +0.000 C 
ATOM      5  C   UNL     1      -0.289  10.933  21.070  0.00  0.00    +0.000 C 
ATOM      6  C   UNL     1      -0.959  10.730  22.459  0.00  0.00    +0.000 C 
ATOM      7  C   UNL     1      -1.669  11.862  23.136  0.00  0.00    +0.000 C 
ATOM      8  C   UNL     1      -1.204  13.106  22.554  0.00  0.00    +0.000 C 
ATOM      9  C   UNL     1      -0.890  14.162  23.415  0.00  0.00    +0.000 C 
ATOM     10  C   UNL     1      -2.294  14.713  23.609  0.00  0.00    +0.000 C 
ATOM     11  O   UNL     1      -2.898  14.649  24.657  0.00  0.00    +0.000 OA
ATOM     12  C   UNL     1      -2.737  15.412  22.325  0.00  0.00    +0.000 C 
ATOM     13  C   UNL     1      -2.058  14.734  20.980  0.00  0.00    +0.000 C 
ATOM     14  C   UNL     1      -1.383  13.272  21.110  0.00  0.00    +0.000 C 
ATOM     15  C   UNL     1      -0.889  12.171  20.343  0.00  0.00    +0.000 C 
ATOM     16  C   UNL     1      -0.405  11.903  18.807  0.00  0.00    +0.000 C 
ATOM     17  C   UNL     1      -0.511  10.157  18.429  0.00  0.00    +0.000 C 
ATOM     18  C   UNL     1       0.514   8.703  19.051  0.00  0.00    +0.000 C 
ATOM     19  C   UNL     1       1.658   9.175  18.014  0.00  0.00    +0.000 C 
ENDROOT
BRANCH  16  20
ATOM     20  C   UNL     1       0.995  12.606  18.547  0.00  0.00    +0.000 A 
ATOM     21  C   UNL     1       1.010  13.999  18.701  0.00  0.00    +0.000 A 
ATOM     22  C   UNL     1       2.162  14.779  18.677  0.00  0.00    +0.000 A 
ATOM     23  C   UNL     1       3.429  14.267  18.460  0.00  0.00    +0.000 A 
ATOM     24  C   UNL     1       3.437  12.878  18.158  0.00  0.00    +0.000 A 
ATOM     25  C   UNL     1       2.239  12.073  18.183  0.00  0.00    +0.000 A 
BRANCH  23  26
ATOM     26  C   UNL     1       4.689  15.239  18.603  0.00  0.00    +0.000 C 
ATOM     27  C   UNL     1       4.250  16.691  18.336  0.00  0.00    +0.000 C 
ATOM     28  C   UNL     1       5.610  15.167  19.842  0.00  0.00    +0.000 C 
ATOM     29  O   UNL     1       6.803  15.157  19.020  0.00  0.00    +0.000 OA
ATOM     30  C   UNL     1       6.003  14.799  17.865  0.00  0.00    +0.000 C 
ENDBRANCH  23  26
ENDBRANCH  16  20
BRANCH   1  32
ATOM     31  C   UNL     1       3.731   6.486  18.617  0.00  0.00    +0.000 C 
ATOM     32  C   UNL     1       2.678   6.838  19.302  0.00  0.00    +0.000 C 
BRANCH  31  34
ATOM     33  C   UNL     1       6.006   5.496  18.776  0.00  0.00    +0.000 C 
ATOM     34  C   UNL     1       4.958   6.077  17.820  0.00  0.00    +0.000 C 
ATOM     35  C   UNL     1       5.526   7.311  17.109  0.00  0.00    +0.000 C 
ATOM     36  C   UNL     1       4.552   5.019  16.785  0.00  0.00    +0.000 C 
ENDBRANCH  31  34
ENDBRANCH   1  32
BRANCH   1  37
ATOM     37  O   UNL     1       1.165   6.248  21.037  0.00  0.00    +0.000 OA
ATOM     38  H   UNL     1       1.226   5.421  20.499  0.00  0.00    +0.000 HD
ENDBRANCH   1  37
TORSDOF 5
ENDMDL
MODEL 3
REMARK VINA RESULT:      -7.1      3.738      7.917
REMARK  Name = 
REMARK  10 active torsions:
REMARK  status: ('A' for Active; 'I' for Inactive)
REMARK    1  A    between atoms: C_1  and  C_2
REMARK    2  A    between atoms: C_2  and  C_3
REMARK    3  A    between atoms: C_2  and  C_4
REMARK    4  A    between atoms: C_2  and  C_5
REMARK    5  A    between atoms: C_6  and  C_7
REMARK    6  A    between atoms: C_7  and  O_8
REMARK    7  A    between atoms: C_23  and  C_24
REMARK    8  A    between atoms: C_27  and  C_28
REMARK    9  A    between atoms: C_28  and  C_29
REMARK   10  A    between atoms: C_36  and  C_37
REMARK                            x       y       z     vdW  Elec       q    Type
REMARK                         _______ _______ _______ _____ _____    ______ ____
ROOT
ATOM      1  C   UNL     1      -3.660  14.537  23.362  0.00  0.00    +0.000 C 
ATOM      2  C   UNL     1      -3.568  14.849  21.870  0.00  0.00    +0.000 C 
ATOM      3  C   UNL     1      -4.344  13.612  21.479  0.00  0.00    +0.000 C 
ATOM      4  C   UNL     1      -3.283  12.567  21.447  0.00  0.00    +0.000 C 
ATOM      5  C   UNL     1      -2.947  12.332  19.872  0.00  0.00    +0.000 C 
ATOM      6  C   UNL     1      -4.340  12.124  19.212  0.00  0.00    +0.000 C 
ATOM      7  C   UNL     1      -4.468  11.384  17.917  0.00  0.00    +0.000 C 
ATOM      8  C   UNL     1      -3.173  11.380  17.264  0.00  0.00    +0.000 C 
ATOM      9  C   UNL     1      -3.122  11.665  15.896  0.00  0.00    +0.000 C 
ATOM     10  C   UNL     1      -3.455  10.278  15.369  0.00  0.00    +0.000 C 
ATOM     11  O   UNL     1      -4.491  10.009  14.802  0.00  0.00    +0.000 OA
ATOM     12  C   UNL     1      -2.256   9.358  15.593  0.00  0.00    +0.000 C 
ATOM     13  C   UNL     1      -1.383   9.787  16.929  0.00  0.00    +0.000 C 
ATOM     14  C   UNL     1      -2.059  10.786  18.003  0.00  0.00    +0.000 C 
ATOM     15  C   UNL     1      -1.921  11.292  19.334  0.00  0.00    +0.000 C 
ATOM     16  C   UNL     1      -0.746  11.393  20.462  0.00  0.00    +0.000 C 
ATOM     17  C   UNL     1      -1.471  11.589  22.085  0.00  0.00    +0.000 C 
ATOM     18  C   UNL     1      -2.389  13.046  22.851  0.00  0.00    +0.000 C 
ATOM     19  C   UNL     1      -0.944  13.731  23.073  0.00  0.00    +0.000 C 
ENDROOT
BRANCH  16  20
ATOM     20  C   UNL     1       0.335  12.473  20.027  0.00  0.00    +0.000 A 
ATOM     21  C   UNL     1      -0.155  13.548  19.272  0.00  0.00    +0.000 A 
ATOM     22  C   UNL     1       0.592  14.672  18.934  0.00  0.00    +0.000 A 
ATOM     23  C   UNL     1       1.921  14.841  19.277  0.00  0.00    +0.000 A 
ATOM     24  C   UNL     1       2.491  13.709  19.919  0.00  0.00    +0.000 A 
ATOM     25  C   UNL     1       1.714  12.544  20.268  0.00  0.00    +0.000 A 
BRANCH  23  26
ATOM     26  C   UNL     1       2.628  16.239  18.961  0.00  0.00    +0.000 C 
ATOM     27  C   UNL     1       3.087  16.262  17.491  0.00  0.00    +0.000 C 
ATOM     28  C   UNL     1       1.950  17.575  19.341  0.00  0.00    +0.000 C 
ATOM     29  O   UNL     1       3.166  18.081  19.945  0.00  0.00    +0.000 OA
ATOM     30  C   UNL     1       3.700  16.734  19.996  0.00  0.00    +0.000 C 
ENDBRANCH  23  26
ENDBRANCH  16  20
BRANCH   1  32
ATOM     31  C   UNL     1      -2.166  16.445  24.812  0.00  0.00    +0.000 C 
ATOM     32  C   UNL     1      -2.856  15.564  24.143  0.00  0.00    +0.000 C 
BRANCH  31  34
ATOM     33  C   UNL     1      -0.224  17.994  24.706  0.00  0.00    +0.000 C 
ATOM     34  C   UNL     1      -1.361  17.472  25.592  0.00  0.00    +0.000 C 
ATOM     35  C   UNL     1      -0.782  16.806  26.845  0.00  0.00    +0.000 C 
ATOM     36  C   UNL     1      -2.284  18.630  25.994  0.00  0.00    +0.000 C 
ENDBRANCH  31  34
ENDBRANCH   1  32
BRANCH   1  37
ATOM     37  O   UNL     1      -5.022  14.749  23.602  0.00  0.00    +0.000 OA
ATOM     38  H   UNL     1      -5.086  14.662  24.585  0.00  0.00    +0.000 HD
ENDBRANCH   1  37
TORSDOF 5
ENDMDL
MODEL 4
REMARK VINA RESULT:      -7.1      1.577      2.273
REMARK  Name = 
REMARK  10 active torsions:
REMARK  status: ('A' for Active; 'I' for Inactive)
REMARK    1  A    between atoms: C_1  and  C_2
REMARK    2  A    between atoms: C_2  and  C_3
REMARK    3  A    between atoms: C_2  and  C_4
REMARK    4  A    between atoms: C_2  and  C_5
REMARK    5  A    between atoms: C_6  and  C_7
REMARK    6  A    between atoms: C_7  and  O_8
REMARK    7  A    between atoms: C_23  and  C_24
REMARK    8  A    between atoms: C_27  and  C_28
REMARK    9  A    between atoms: C_28  and  C_29
REMARK   10  A    between atoms: C_36  and  C_37
REMARK                            x       y       z     vdW  Elec       q    Type
REMARK                         _______ _______ _______ _____ _____    ______ ____
ROOT
ATOM      1  C   UNL     1       0.013   8.865  21.024  0.00  0.00    +0.000 C 
ATOM      2  C   UNL     1       0.741   9.958  21.804  0.00  0.00    +0.000 C 
ATOM      3  C   UNL     1      -0.543  10.547  22.342  0.00  0.00    +0.000 C 
ATOM      4  C   UNL     1      -0.966  11.452  21.238  0.00  0.00    +0.000 C 
ATOM      5  C   UNL     1      -0.576  12.953  21.729  0.00  0.00    +0.000 C 
ATOM      6  C   UNL     1      -1.173  13.053  23.162  0.00  0.00    +0.000 C 
ATOM      7  C   UNL     1      -1.495  14.386  23.763  0.00  0.00    +0.000 C 
ATOM      8  C   UNL     1      -0.751  15.402  23.045  0.00  0.00    +0.000 C 
ATOM      9  C   UNL     1      -0.098  16.391  23.787  0.00  0.00    +0.000 C 
ATOM     10  C   UNL     1      -1.280  17.325  23.997  0.00  0.00    +0.000 C 
ATOM     11  O   UNL     1      -1.800  17.513  25.075  0.00  0.00    +0.000 OA
ATOM     12  C   UNL     1      -1.608  18.020  22.677  0.00  0.00    +0.000 C 
ATOM     13  C   UNL     1      -1.241  17.078  21.370  0.00  0.00    +0.000 C 
ATOM     14  C   UNL     1      -0.984  15.501  21.603  0.00  0.00    +0.000 C 
ATOM     15  C   UNL     1      -0.867  14.250  20.919  0.00  0.00    +0.000 C 
ATOM     16  C   UNL     1      -0.589  13.741  19.393  0.00  0.00    +0.000 C 
ATOM     17  C   UNL     1      -1.196  12.071  19.186  0.00  0.00    +0.000 C 
ATOM     18  C   UNL     1      -0.565  10.440  19.891  0.00  0.00    +0.000 C 
ATOM     19  C   UNL     1       0.586  10.494  18.759  0.00  0.00    +0.000 C 
ENDROOT
BRANCH  16  20
ATOM     20  C   UNL     1       0.927  14.004  18.999  0.00  0.00    +0.000 A 
ATOM     21  C   UNL     1       1.448  15.244  19.393  0.00  0.00    +0.000 A 
ATOM     22  C   UNL     1       2.789  15.601  19.288  0.00  0.00    +0.000 A 
ATOM     23  C   UNL     1       3.759  14.779  18.746  0.00  0.00    +0.000 A 
ATOM     24  C   UNL     1       3.244  13.570  18.205  0.00  0.00    +0.000 A 
ATOM     25  C   UNL     1       1.852  13.204  18.315  0.00  0.00    +0.000 A 
BRANCH  23  26
ATOM     26  C   UNL     1       5.288  15.239  18.815  0.00  0.00    +0.000 C 
ATOM     27  C   UNL     1       6.093  14.515  17.719  0.00  0.00    +0.000 C 
ATOM     28  C   UNL     1       5.664  16.737  18.866  0.00  0.00    +0.000 C 
ATOM     29  O   UNL     1       6.578  16.525  19.970  0.00  0.00    +0.000 OA
ATOM     30  C   UNL     1       5.957  15.242  20.236  0.00  0.00    +0.000 C 
ENDBRANCH  23  26
ENDBRANCH  16  20
BRANCH   1  32
ATOM     31  C   UNL     1       1.883   7.388  19.509  0.00  0.00    +0.000 C 
ATOM     32  C   UNL     1       1.019   8.071  20.209  0.00  0.00    +0.000 C 
BRANCH  31  34
ATOM     33  C   UNL     1       3.927   5.980  19.640  0.00  0.00    +0.000 C 
ATOM     34  C   UNL     1       2.888   6.593  18.693  0.00  0.00    +0.000 C 
ATOM     35  C   UNL     1       3.580   7.533  17.699  0.00  0.00    +0.000 C 
ATOM     36  C   UNL     1       2.151   5.481  17.935  0.00  0.00    +0.000 C 
ENDBRANCH  31  34
ENDBRANCH   1  32
BRANCH   1  37
ATOM     37  O   UNL     1      -0.466   8.061  22.064  0.00  0.00    +0.000 OA
ATOM     38  H   UNL     1       0.360   7.643  22.413  0.00  0.00    +0.000 HD
ENDBRANCH   1  37
TORSDOF 5
ENDMDL
MODEL 5
REMARK VINA RESULT:      -7.0      1.644      2.315
REMARK  Name = 
REMARK  10 active torsions:
REMARK  status: ('A' for Active; 'I' for Inactive)
REMARK    1  A    between atoms: C_1  and  C_2
REMARK    2  A    between atoms: C_2  and  C_3
REMARK    3  A    between atoms: C_2  and  C_4
REMARK    4  A    between atoms: C_2  and  C_5
REMARK    5  A    between atoms: C_6  and  C_7
REMARK    6  A    between atoms: C_7  and  O_8
REMARK    7  A    between atoms: C_23  and  C_24
REMARK    8  A    between atoms: C_27  and  C_28
REMARK    9  A    between atoms: C_28  and  C_29
REMARK   10  A    between atoms: C_36  and  C_37
REMARK                            x       y       z     vdW  Elec       q    Type
REMARK                         _______ _______ _______ _____ _____    ______ ____
ROOT
ATOM      1  C   UNL     1       0.021   8.844  21.025  0.00  0.00    +0.000 C 
ATOM      2  C   UNL     1       0.747   9.940  21.802  0.00  0.00    +0.000 C 
ATOM      3  C   UNL     1      -0.538  10.525  22.342  0.00  0.00    +0.000 C 
ATOM      4  C   UNL     1      -0.965  11.428  21.237  0.00  0.00    +0.000 C 
ATOM      5  C   UNL     1      -0.579  12.931  21.726  0.00  0.00    +0.000 C 
ATOM      6  C   UNL     1      -1.173  13.031  23.160  0.00  0.00    +0.000 C 
ATOM      7  C   UNL     1      -1.498  14.364  23.760  0.00  0.00    +0.000 C 
ATOM      8  C   UNL     1      -0.758  15.381  23.039  0.00  0.00    +0.000 C 
ATOM      9  C   UNL     1      -0.106  16.373  23.779  0.00  0.00    +0.000 C 
ATOM     10  C   UNL     1      -1.290  17.304  23.990  0.00  0.00    +0.000 C 
ATOM     11  O   UNL     1      -1.809  17.491  25.069  0.00  0.00    +0.000 OA
ATOM     12  C   UNL     1      -1.623  17.996  22.670  0.00  0.00    +0.000 C 
ATOM     13  C   UNL     1      -1.255  17.054  21.363  0.00  0.00    +0.000 C 
ATOM     14  C   UNL     1      -0.993  15.478  21.598  0.00  0.00    +0.000 C 
ATOM     15  C   UNL     1      -0.875  14.226  20.915  0.00  0.00    +0.000 C 
ATOM     16  C   UNL     1      -0.598  13.716  19.389  0.00  0.00    +0.000 C 
ATOM     17  C   UNL     1      -1.200  12.044  19.185  0.00  0.00    +0.000 C 
ATOM     18  C   UNL     1      -0.564  10.416  19.891  0.00  0.00    +0.000 C 
ATOM     19  C   UNL     1       0.585  10.472  18.757  0.00  0.00    +0.000 C 
ENDROOT
BRANCH  16  20
ATOM     20  C   UNL     1       0.917  13.983  18.992  0.00  0.00    +0.000 A 
ATOM     21  C   UNL     1       1.390  15.278  19.248  0.00  0.00    +0.000 A 
ATOM     22  C   UNL     1       2.721  15.664  19.124  0.00  0.00    +0.000 A 
ATOM     23  C   UNL     1       3.728  14.819  18.697  0.00  0.00    +0.000 A 
ATOM     24  C   UNL     1       3.262  13.539  18.293  0.00  0.00    +0.000 A 
ATOM     25  C   UNL     1       1.881  13.141  18.421  0.00  0.00    +0.000 A 
BRANCH  23  26
ATOM     26  C   UNL     1       5.239  15.335  18.738  0.00  0.00    +0.000 C 
ATOM     27  C   UNL     1       5.259  16.873  18.644  0.00  0.00    +0.000 C 
ATOM     28  C   UNL     1       6.217  14.844  19.829  0.00  0.00    +0.000 C 
ATOM     29  O   UNL     1       7.250  14.564  18.853  0.00  0.00    +0.000 OA
ATOM     30  C   UNL     1       6.259  14.603  17.795  0.00  0.00    +0.000 C 
ENDBRANCH  23  26
ENDBRANCH  16  20
BRANCH   1  32
ATOM     31  C   UNL     1       1.892   7.371  19.508  0.00  0.00    +0.000 C 
ATOM     32  C   UNL     1       1.028   8.052  20.209  0.00  0.00    +0.000 C 
BRANCH  31  34
ATOM     33  C   UNL     1       2.159   5.481  17.915  0.00  0.00    +0.000 C 
ATOM     34  C   UNL     1       2.898   6.577  18.691  0.00  0.00    +0.000 C 
ATOM     35  C   UNL     1       3.923   5.945  19.640  0.00  0.00    +0.000 C 
ATOM     36  C   UNL     1       3.606   7.523  17.713  0.00  0.00    +0.000 C 
ENDBRANCH  31  34
ENDBRANCH   1  32
BRANCH   1  37
ATOM     37  O   UNL     1      -0.454   8.040  22.066  0.00  0.00    +0.000 OA
ATOM     38  H   UNL     1      -1.103   8.632  22.521  0.00  0.00    +0.000 HD
ENDBRANCH   1  37
TORSDOF 5
ENDMDL
MODEL 6
REMARK VINA RESULT:      -6.8      1.039      1.325
REMARK  Name = 
REMARK  10 active torsions:
REMARK  status: ('A' for Active; 'I' for Inactive)
REMARK    1  A    between atoms: C_1  and  C_2
REMARK    2  A    between atoms: C_2  and  C_3
REMARK    3  A    between atoms: C_2  and  C_4
REMARK    4  A    between atoms: C_2  and  C_5
REMARK    5  A    between atoms: C_6  and  C_7
REMARK    6  A    between atoms: C_7  and  O_8
REMARK    7  A    between atoms: C_23  and  C_24
REMARK    8  A    between atoms: C_27  and  C_28
REMARK    9  A    between atoms: C_28  and  C_29
REMARK   10  A    between atoms: C_36  and  C_37
REMARK                            x       y       z     vdW  Elec       q    Type
REMARK                         _______ _______ _______ _____ _____    ______ ____
ROOT
ATOM      1  C   UNL     1       1.141   7.505  20.052  0.00  0.00    +0.000 C 
ATOM      2  C   UNL     1       1.449   8.495  21.173  0.00  0.00    +0.000 C 
ATOM      3  C   UNL     1      -0.013   8.758  21.456  0.00  0.00    +0.000 C 
ATOM      4  C   UNL     1      -0.346   9.811  20.458  0.00  0.00    +0.000 C 
ATOM      5  C   UNL     1      -0.376  11.210  21.289  0.00  0.00    +0.000 C 
ATOM      6  C   UNL     1      -1.285  10.905  22.514  0.00  0.00    +0.000 C 
ATOM      7  C   UNL     1      -1.987  12.013  23.237  0.00  0.00    +0.000 C 
ATOM      8  C   UNL     1      -1.314  13.259  22.926  0.00  0.00    +0.000 C 
ATOM      9  C   UNL     1      -1.049  14.146  23.974  0.00  0.00    +0.000 C 
ATOM     10  C   UNL     1      -2.406  14.829  24.032  0.00  0.00    +0.000 C 
ATOM     11  O   UNL     1      -3.181  14.699  24.955  0.00  0.00    +0.000 OA
ATOM     12  C   UNL     1      -2.560  15.741  22.816  0.00  0.00    +0.000 C 
ATOM     13  C   UNL     1      -1.733  15.171  21.504  0.00  0.00    +0.000 C 
ATOM     14  C   UNL     1      -1.233  13.636  21.514  0.00  0.00    +0.000 C 
ATOM     15  C   UNL     1      -0.725  12.596  20.673  0.00  0.00    +0.000 C 
ATOM     16  C   UNL     1      -0.019  12.479  19.206  0.00  0.00    +0.000 C 
ATOM     17  C   UNL     1      -0.227  10.824  18.558  0.00  0.00    +0.000 C 
ATOM     18  C   UNL     1       0.536   9.189  19.103  0.00  0.00    +0.000 C 
ATOM     19  C   UNL     1       1.877   9.656  18.335  0.00  0.00    +0.000 C 
ENDROOT
BRANCH  16  20
ATOM     20  C   UNL     1       1.466  13.040  19.270  0.00  0.00    +0.000 A 
ATOM     21  C   UNL     1       2.030  13.398  18.038  0.00  0.00    +0.000 A 
ATOM     22  C   UNL     1       3.249  14.055  17.896  0.00  0.00    +0.000 A 
ATOM     23  C   UNL     1       4.063  14.399  18.959  0.00  0.00    +0.000 A 
ATOM     24  C   UNL     1       3.591  13.924  20.213  0.00  0.00    +0.000 A 
ATOM     25  C   UNL     1       2.327  13.242  20.357  0.00  0.00    +0.000 A 
BRANCH  23  26
ATOM     26  C   UNL     1       5.365  15.281  18.681  0.00  0.00    +0.000 C 
ATOM     27  C   UNL     1       4.953  16.751  18.471  0.00  0.00    +0.000 C 
ATOM     28  C   UNL     1       6.599  15.188  19.606  0.00  0.00    +0.000 C 
ATOM     29  O   UNL     1       7.501  15.063  18.478  0.00  0.00    +0.000 OA
ATOM     30  C   UNL     1       6.381  14.722  17.622  0.00  0.00    +0.000 C 
ENDBRANCH  23  26
ENDBRANCH  16  20
BRANCH   1  32
ATOM     31  C   UNL     1       3.553   6.684  18.835  0.00  0.00    +0.000 C 
ATOM     32  C   UNL     1       2.439   7.064  19.397  0.00  0.00    +0.000 C 
BRANCH  31  34
ATOM     33  C   UNL     1       4.534   5.223  17.079  0.00  0.00    +0.000 C 
ATOM     34  C   UNL     1       4.851   6.241  18.180  0.00  0.00    +0.000 C 
ATOM     35  C   UNL     1       5.752   5.599  19.241  0.00  0.00    +0.000 C 
ATOM     36  C   UNL     1       5.549   7.466  17.573  0.00  0.00    +0.000 C 
ENDBRANCH  31  34
ENDBRANCH   1  32
BRANCH   1  37
ATOM     37  O   UNL     1       0.608   6.432  20.774  0.00  0.00    +0.000 OA
ATOM     38  H   UNL     1       0.550   5.719  20.091  0.00  0.00    +0.000 HD
ENDBRANCH   1  37
TORSDOF 5
ENDMDL
MODEL 7
REMARK VINA RESULT:      -6.7      0.820      1.110
REMARK  Name = 
REMARK  10 active torsions:
REMARK  status: ('A' for Active; 'I' for Inactive)
REMARK    1  A    between atoms: C_1  and  C_2
REMARK    2  A    between atoms: C_2  and  C_3
REMARK    3  A    between atoms: C_2  and  C_4
REMARK    4  A    between atoms: C_2  and  C_5
REMARK    5  A    between atoms: C_6  and  C_7
REMARK    6  A    between atoms: C_7  and  O_8
REMARK    7  A    between atoms: C_23  and  C_24
REMARK    8  A    between atoms: C_27  and  C_28
REMARK    9  A    between atoms: C_28  and  C_29
REMARK   10  A    between atoms: C_36  and  C_37
REMARK                            x       y       z     vdW  Elec       q    Type
REMARK                         _______ _______ _______ _____ _____    ______ ____
ROOT
ATOM      1  C   UNL     1       1.178   7.482  20.068  0.00  0.00    +0.000 C 
ATOM      2  C   UNL     1       1.479   8.481  21.183  0.00  0.00    +0.000 C 
ATOM      3  C   UNL     1       0.015   8.725  21.473  0.00  0.00    +0.000 C 
ATOM      4  C   UNL     1      -0.339   9.769  20.472  0.00  0.00    +0.000 C 
ATOM      5  C   UNL     1      -0.384  11.171  21.298  0.00  0.00    +0.000 C 
ATOM      6  C   UNL     1      -1.282  10.859  22.528  0.00  0.00    +0.000 C 
ATOM      7  C   UNL     1      -1.995  11.960  23.251  0.00  0.00    +0.000 C 
ATOM      8  C   UNL     1      -1.341  13.215  22.930  0.00  0.00    +0.000 C 
ATOM      9  C   UNL     1      -1.083  14.110  23.973  0.00  0.00    +0.000 C 
ATOM     10  C   UNL     1      -2.449  14.774  24.036  0.00  0.00    +0.000 C 
ATOM     11  O   UNL     1      -3.217  14.637  24.963  0.00  0.00    +0.000 OA
ATOM     12  C   UNL     1      -2.622  15.678  22.817  0.00  0.00    +0.000 C 
ATOM     13  C   UNL     1      -1.795  15.114  21.502  0.00  0.00    +0.000 C 
ATOM     14  C   UNL     1      -1.273  13.586  21.516  0.00  0.00    +0.000 C 
ATOM     15  C   UNL     1      -0.755  12.549  20.677  0.00  0.00    +0.000 C 
ATOM     16  C   UNL     1      -0.056  12.435  19.207  0.00  0.00    +0.000 C 
ATOM     17  C   UNL     1      -0.244  10.775  18.567  0.00  0.00    +0.000 C 
ATOM     18  C   UNL     1       0.544   9.153  19.116  0.00  0.00    +0.000 C 
ATOM     19  C   UNL     1       1.875   9.635  18.338  0.00  0.00    +0.000 C 
ENDROOT
BRANCH  16  20
ATOM     20  C   UNL     1       1.422  13.017  19.260  0.00  0.00    +0.000 A 
ATOM     21  C   UNL     1       1.929  13.490  18.043  0.00  0.00    +0.000 A 
ATOM     22  C   UNL     1       3.130  14.180  17.909  0.00  0.00    +0.000 A 
ATOM     23  C   UNL     1       3.982  14.447  18.965  0.00  0.00    +0.000 A 
ATOM     24  C   UNL     1       3.569  13.858  20.191  0.00  0.00    +0.000 A 
ATOM     25  C   UNL     1       2.323  13.142  20.326  0.00  0.00    +0.000 A 
BRANCH  23  26
ATOM     26  C   UNL     1       5.257  15.375  18.713  0.00  0.00    +0.000 C 
ATOM     27  C   UNL     1       6.194  14.696  17.695  0.00  0.00    +0.000 C 
ATOM     28  C   UNL     1       5.093  16.876  18.383  0.00  0.00    +0.000 C 
ATOM     29  O   UNL     1       6.092  17.255  19.363  0.00  0.00    +0.000 OA
ATOM     30  C   UNL     1       5.971  15.951  19.987  0.00  0.00    +0.000 C 
ENDBRANCH  23  26
ENDBRANCH  16  20
BRANCH   1  32
ATOM     31  C   UNL     1       3.596   6.690  18.843  0.00  0.00    +0.000 C 
ATOM     32  C   UNL     1       2.478   7.056  19.408  0.00  0.00    +0.000 C 
BRANCH  31  34
ATOM     33  C   UNL     1       5.768   5.540  19.217  0.00  0.00    +0.000 C 
ATOM     34  C   UNL     1       4.897   6.264  18.184  0.00  0.00    +0.000 C 
ATOM     35  C   UNL     1       5.626   7.510  17.667  0.00  0.00    +0.000 C 
ATOM     36  C   UNL     1       4.581   5.322  17.015  0.00  0.00    +0.000 C 
ENDBRANCH  31  34
ENDBRANCH   1  32
BRANCH   1  37
ATOM     37  O   UNL     1       0.664   6.405  20.798  0.00  0.00    +0.000 OA
ATOM     38  H   UNL     1       1.390   5.736  20.738  0.00  0.00    +0.000 HD
ENDBRANCH   1  37
TORSDOF 5
ENDMDL
MODEL 8
REMARK VINA RESULT:      -6.7      1.736      2.395
REMARK  Name = 
REMARK  10 active torsions:
REMARK  status: ('A' for Active; 'I' for Inactive)
REMARK    1  A    between atoms: C_1  and  C_2
REMARK    2  A    between atoms: C_2  and  C_3
REMARK    3  A    between atoms: C_2  and  C_4
REMARK    4  A    between atoms: C_2  and  C_5
REMARK    5  A    between atoms: C_6  and  C_7
REMARK    6  A    between atoms: C_7  and  O_8
REMARK    7  A    between atoms: C_23  and  C_24
REMARK    8  A    between atoms: C_27  and  C_28
REMARK    9  A    between atoms: C_28  and  C_29
REMARK   10  A    between atoms: C_36  and  C_37
REMARK                            x       y       z     vdW  Elec       q    Type
REMARK                         _______ _______ _______ _____ _____    ______ ____
ROOT
ATOM      1  C   UNL     1      -0.132   8.980  20.899  0.00  0.00    +0.000 C 
ATOM      2  C   UNL     1       0.543   9.908  21.907  0.00  0.00    +0.000 C 
ATOM      3  C   UNL     1      -0.760  10.570  22.296  0.00  0.00    +0.000 C 
ATOM      4  C   UNL     1      -0.910  11.619  21.251  0.00  0.00    +0.000 C 
ATOM      5  C   UNL     1      -0.484  13.016  21.968  0.00  0.00    +0.000 C 
ATOM      6  C   UNL     1      -1.306  13.033  23.288  0.00  0.00    +0.000 C 
ATOM      7  C   UNL     1      -1.612  14.325  23.981  0.00  0.00    +0.000 C 
ATOM      8  C   UNL     1      -0.672  15.326  23.514  0.00  0.00    +0.000 C 
ATOM      9  C   UNL     1      -0.074  16.163  24.461  0.00  0.00    +0.000 C 
ATOM     10  C   UNL     1      -1.191  17.188  24.585  0.00  0.00    +0.000 C 
ATOM     11  O   UNL     1      -1.870  17.320  25.579  0.00  0.00    +0.000 OA
ATOM     12  C   UNL     1      -1.228  18.042  23.318  0.00  0.00    +0.000 C 
ATOM     13  C   UNL     1      -0.724  17.203  21.987  0.00  0.00    +0.000 C 
ATOM     14  C   UNL     1      -0.645  15.592  22.075  0.00  0.00    +0.000 C 
ATOM     15  C   UNL     1      -0.520  14.411  21.278  0.00  0.00    +0.000 C 
ATOM     16  C   UNL     1      -0.029  14.031  19.768  0.00  0.00    +0.000 C 
ATOM     17  C   UNL     1      -0.731  12.461  19.274  0.00  0.00    +0.000 C 
ATOM     18  C   UNL     1      -0.371  10.712  19.877  0.00  0.00    +0.000 C 
ATOM     19  C   UNL     1       0.957  10.760  18.960  0.00  0.00    +0.000 C 
ENDROOT
BRANCH  16  20
ATOM     20  C   UNL     1       1.549  14.174  19.657  0.00  0.00    +0.000 A 
ATOM     21  C   UNL     1       2.019  14.778  18.482  0.00  0.00    +0.000 A 
ATOM     22  C   UNL     1       3.345  15.140  18.264  0.00  0.00    +0.000 A 
ATOM     23  C   UNL     1       4.362  14.911  19.173  0.00  0.00    +0.000 A 
ATOM     24  C   UNL     1       3.948  14.173  20.315  0.00  0.00    +0.000 A 
ATOM     25  C   UNL     1       2.572  13.798  20.538  0.00  0.00    +0.000 A 
BRANCH  23  26
ATOM     26  C   UNL     1       5.814  15.505  18.873  0.00  0.00    +0.000 C 
ATOM     27  C   UNL     1       6.442  14.750  17.685  0.00  0.00    +0.000 C 
ATOM     28  C   UNL     1       6.034  17.028  18.728  0.00  0.00    +0.000 C 
ATOM     29  O   UNL     1       7.177  17.001  19.618  0.00  0.00    +0.000 OA
ATOM     30  C   UNL     1       6.763  15.700  20.108  0.00  0.00    +0.000 C 
ENDBRANCH  23  26
ENDBRANCH  16  20
BRANCH   1  32
ATOM     31  C   UNL     1       1.838   7.477  19.544  0.00  0.00    +0.000 C 
ATOM     32  C   UNL     1       0.928   8.172  20.170  0.00  0.00    +0.000 C 
BRANCH  31  34
ATOM     33  C   UNL     1       2.209   5.590  17.969  0.00  0.00    +0.000 C 
ATOM     34  C   UNL     1       2.897   6.668  18.814  0.00  0.00    +0.000 C 
ATOM     35  C   UNL     1       3.822   6.011  19.846  0.00  0.00    +0.000 C 
ATOM     36  C   UNL     1       3.707   7.605  17.908  0.00  0.00    +0.000 C 
ENDBRANCH  31  34
ENDBRANCH   1  32
BRANCH   1  37
ATOM     37  O   UNL     1      -0.848   8.130  21.748  0.00  0.00    +0.000 OA
ATOM     38  H   UNL     1      -0.277   7.323  21.779  0.00  0.00    +0.000 HD
ENDBRANCH   1  37
TORSDOF 5
ENDMDL
MODEL 9
REMARK VINA RESULT:      -6.4      3.746      8.179
REMARK  Name = 
REMARK  10 active torsions:
REMARK  status: ('A' for Active; 'I' for Inactive)
REMARK    1  A    between atoms: C_1  and  C_2
REMARK    2  A    between atoms: C_2  and  C_3
REMARK    3  A    between atoms: C_2  and  C_4
REMARK    4  A    between atoms: C_2  and  C_5
REMARK    5  A    between atoms: C_6  and  C_7
REMARK    6  A    between atoms: C_7  and  O_8
REMARK    7  A    between atoms: C_23  and  C_24
REMARK    8  A    between atoms: C_27  and  C_28
REMARK    9  A    between atoms: C_28  and  C_29
REMARK   10  A    between atoms: C_36  and  C_37
REMARK                            x       y       z     vdW  Elec       q    Type
REMARK                         _______ _______ _______ _____ _____    ______ ____
ROOT
ATOM      1  C   UNL     1      -4.340  14.561  22.962  0.00  0.00    +0.000 C 
ATOM      2  C   UNL     1      -4.202  14.830  21.466  0.00  0.00    +0.000 C 
ATOM      3  C   UNL     1      -4.849  13.518  21.085  0.00  0.00    +0.000 C 
ATOM      4  C   UNL     1      -3.702  12.569  21.140  0.00  0.00    +0.000 C 
ATOM      5  C   UNL     1      -3.271  12.312  19.593  0.00  0.00    +0.000 C 
ATOM      6  C   UNL     1      -4.607  11.963  18.877  0.00  0.00    +0.000 C 
ATOM      7  C   UNL     1      -4.607  11.173  17.605  0.00  0.00    +0.000 C 
ATOM      8  C   UNL     1      -3.286  11.259  17.013  0.00  0.00    +0.000 C 
ATOM      9  C   UNL     1      -3.192  11.503  15.640  0.00  0.00    +0.000 C 
ATOM     10  C   UNL     1      -3.379  10.076  15.150  0.00  0.00    +0.000 C 
ATOM     11  O   UNL     1      -4.359   9.699  14.546  0.00  0.00    +0.000 OA
ATOM     12  C   UNL     1      -2.118   9.272  15.462  0.00  0.00    +0.000 C 
ATOM     13  C   UNL     1      -1.352   9.818  16.821  0.00  0.00    +0.000 C 
ATOM     14  C   UNL     1      -2.162  10.789  17.825  0.00  0.00    +0.000 C 
ATOM     15  C   UNL     1      -2.134  11.349  19.141  0.00  0.00    +0.000 C 
ATOM     16  C   UNL     1      -1.029  11.588  20.317  0.00  0.00    +0.000 C 
ATOM     17  C   UNL     1      -1.847  11.774  21.898  0.00  0.00    +0.000 C 
ATOM     18  C   UNL     1      -2.923  13.170  22.565  0.00  0.00    +0.000 C 
ATOM     19  C   UNL     1      -1.554  13.985  22.829  0.00  0.00    +0.000 C 
ENDROOT
BRANCH  16  20
ATOM     20  C   UNL     1      -0.024  12.744  19.894  0.00  0.00    +0.000 A 
ATOM     21  C   UNL     1       1.327  12.506  20.183  0.00  0.00    +0.000 A 
ATOM     22  C   UNL     1       2.374  13.314  19.751  0.00  0.00    +0.000 A 
ATOM     23  C   UNL     1       2.197  14.470  19.013  0.00  0.00    +0.000 A 
ATOM     24  C   UNL     1       0.832  14.819  18.822  0.00  0.00    +0.000 A 
ATOM     25  C   UNL     1      -0.252  13.979  19.273  0.00  0.00    +0.000 A 
BRANCH  23  26
ATOM     26  C   UNL     1       3.483  15.231  18.449  0.00  0.00    +0.000 C 
ATOM     27  C   UNL     1       4.432  14.214  17.785  0.00  0.00    +0.000 C 
ATOM     28  C   UNL     1       3.337  16.493  17.570  0.00  0.00    +0.000 C 
ATOM     29  O   UNL     1       4.321  17.216  18.350  0.00  0.00    +0.000 OA
ATOM     30  C   UNL     1       4.180  16.249  19.421  0.00  0.00    +0.000 C 
ENDBRANCH  23  26
ENDBRANCH  16  20
BRANCH   1  32
ATOM     31  C   UNL     1      -3.087  16.637  24.409  0.00  0.00    +0.000 C 
ATOM     32  C   UNL     1      -3.666  15.678  23.741  0.00  0.00    +0.000 C 
BRANCH  31  34
ATOM     33  C   UNL     1      -3.489  18.631  25.839  0.00  0.00    +0.000 C 
ATOM     34  C   UNL     1      -2.412  17.754  25.188  0.00  0.00    +0.000 C 
ATOM     35  C   UNL     1      -1.567  18.595  24.223  0.00  0.00    +0.000 C 
ATOM     36  C   UNL     1      -1.515  17.140  26.269  0.00  0.00    +0.000 C 
ENDBRANCH  31  34
ENDBRANCH   1  32
BRANCH   1  37
ATOM     37  O   UNL     1      -5.725  14.661  23.131  0.00  0.00    +0.000 OA
ATOM     38  H   UNL     1      -5.973  15.364  22.481  0.00  0.00    +0.000 HD
ENDBRANCH   1  37
TORSDOF 5
ENDMDL
