MODEL 1
REMARK VINA RESULT:      -6.9      0.000      0.000
REMARK  Name = 
REMARK  8 active torsions:
REMARK  status: ('A' for Active; 'I' for Inactive)
REMARK    1  A    between atoms: C_1  and  C_2
REMARK    2  A    between atoms: C_2  and  C_3
REMARK    3  A    between atoms: C_5  and  C_6
REMARK    4  A    between atoms: C_9  and  O_10
REMARK    5  A    between atoms: O_10  and  C_11
REMARK    6  A    between atoms: C_11  and  C_12
REMARK    7  A    between atoms: C_12  and  O_13
REMARK    8  A    between atoms: O_13  and  C_14
REMARK                            x       y       z     vdW  Elec       q    Type
REMARK                         _______ _______ _______ _____ _____    ______ ____
ROOT
ATOM      1  C   UNL     1       5.163   3.681  18.799  0.00  0.00    +0.000 C 
ENDROOT
BRANCH   1   2
ATOM      2  O   UNL     1       6.315   4.097  18.091  0.00  0.00    +0.000 OA
BRANCH   2   9
ATOM      3  C   UNL     1       6.307   6.347  16.943  0.00  0.00    +0.000 A 
ATOM      4  N   UNL     1       6.879   7.586  16.925  0.00  0.00    +0.000 NA
ATOM      5  C   UNL     1       7.800   7.924  17.855  0.00  0.00    +0.000 A 
ATOM      6  C   UNL     1       8.433   9.274  17.733  0.00  0.00    +0.000 C 
ATOM      7  C   UNL     1       8.171   7.059  18.863  0.00  0.00    +0.000 A 
ATOM      8  C   UNL     1       7.596   5.795  18.881  0.00  0.00    +0.000 A 
ATOM      9  C   UNL     1       6.661   5.400  17.911  0.00  0.00    +0.000 A 
BRANCH   3  11
ATOM     10  C   UNL     1       5.657   4.988  14.865  0.00  0.00    +0.000 C 
ATOM     11  C   UNL     1       5.310   6.125  15.831  0.00  0.00    +0.000 C 
ENDBRANCH   3  11
ENDBRANCH   2   9
ENDBRANCH   1   2
BRANCH   1  12
ATOM     12  C   UNL     1       3.990   3.445  17.851  0.00  0.00    +0.000 C 
BRANCH  12  13
ATOM     13  O   UNL     1       2.796   3.649  18.597  0.00  0.00    +0.000 OA
BRANCH  13  14
ATOM     14  C   UNL     1       2.482   4.909  19.020  0.00  0.00    +0.000 A 
ATOM     15  C   UNL     1       2.690   6.076  18.281  0.00  0.00    +0.000 A 
ATOM     16  C   UNL     1       2.347   7.320  18.824  0.00  0.00    +0.000 A 
ATOM     17  C   UNL     1       1.793   7.398  20.100  0.00  0.00    +0.000 A 
ATOM     18 CL   UNL     1       1.386   8.933  20.763  0.00  0.00    +0.000 Cl
ATOM     19  C   UNL     1       1.570   6.245  20.845  0.00  0.00    +0.000 A 
ATOM     20  C   UNL     1       1.913   5.006  20.304  0.00  0.00    +0.000 A 
ATOM     21 CL   UNL     1       1.615   3.596  21.260  0.00  0.00    +0.000 Cl
ENDBRANCH  13  14
ENDBRANCH  12  13
ENDBRANCH   1  12
TORSDOF 6
ENDMDL
MODEL 2
REMARK VINA RESULT:      -6.8      1.935      3.380
REMARK  Name = 
REMARK  8 active torsions:
REMARK  status: ('A' for Active; 'I' for Inactive)
REMARK    1  A    between atoms: C_1  and  C_2
REMARK    2  A    between atoms: C_2  and  C_3
REMARK    3  A    between atoms: C_5  and  C_6
REMARK    4  A    between atoms: C_9  and  O_10
REMARK    5  A    between atoms: O_10  and  C_11
REMARK    6  A    between atoms: C_11  and  C_12
REMARK    7  A    between atoms: C_12  and  O_13
REMARK    8  A    between atoms: O_13  and  C_14
REMARK                            x       y       z     vdW  Elec       q    Type
REMARK                         _______ _______ _______ _____ _____    ______ ____
ROOT
ATOM      1  C   UNL     1       3.486   3.860  17.420  0.00  0.00    +0.000 C 
ENDROOT
BRANCH   1   2
ATOM      2  O   UNL     1       4.887   3.921  17.607  0.00  0.00    +0.000 OA
BRANCH   2   9
ATOM      3  C   UNL     1       6.727   5.356  16.640  0.00  0.00    +0.000 A 
ATOM      4  N   UNL     1       7.417   5.658  15.501  0.00  0.00    +0.000 NA
ATOM      5  C   UNL     1       7.176   4.978  14.359  0.00  0.00    +0.000 A 
ATOM      6  C   UNL     1       7.921   5.408  13.135  0.00  0.00    +0.000 C 
ATOM      7  C   UNL     1       6.264   3.944  14.303  0.00  0.00    +0.000 A 
ATOM      8  C   UNL     1       5.556   3.638  15.457  0.00  0.00    +0.000 A 
ATOM      9  C   UNL     1       5.757   4.347  16.652  0.00  0.00    +0.000 A 
BRANCH   3  11
ATOM     10  C   UNL     1       7.624   7.613  17.469  0.00  0.00    +0.000 C 
ATOM     11  C   UNL     1       7.104   6.217  17.822  0.00  0.00    +0.000 C 
ENDBRANCH   3  11
ENDBRANCH   2   9
ENDBRANCH   1   2
BRANCH   1  12
ATOM     12  C   UNL     1       2.744   4.249  18.696  0.00  0.00    +0.000 C 
BRANCH  12  13
ATOM     13  O   UNL     1       3.396   5.396  19.230  0.00  0.00    +0.000 OA
BRANCH  13  14
ATOM     14  C   UNL     1       2.663   6.519  19.492  0.00  0.00    +0.000 A 
ATOM     15  C   UNL     1       1.896   6.723  20.642  0.00  0.00    +0.000 A 
ATOM     16  C   UNL     1       1.167   7.907  20.797  0.00  0.00    +0.000 A 
ATOM     17  C   UNL     1       1.205   8.887  19.807  0.00  0.00    +0.000 A 
ATOM     18 CL   UNL     1       0.295  10.335  20.001  0.00  0.00    +0.000 Cl
ATOM     19  C   UNL     1       1.971   8.703  18.661  0.00  0.00    +0.000 A 
ATOM     20  C   UNL     1       2.698   7.523  18.507  0.00  0.00    +0.000 A 
ATOM     21 CL   UNL     1       3.641   7.335  17.069  0.00  0.00    +0.000 Cl
ENDBRANCH  13  14
ENDBRANCH  12  13
ENDBRANCH   1  12
TORSDOF 6
ENDMDL
MODEL 3
REMARK VINA RESULT:      -6.7      1.975      3.534
REMARK  Name = 
REMARK  8 active torsions:
REMARK  status: ('A' for Active; 'I' for Inactive)
REMARK    1  A    between atoms: C_1  and  C_2
REMARK    2  A    between atoms: C_2  and  C_3
REMARK    3  A    between atoms: C_5  and  C_6
REMARK    4  A    between atoms: C_9  and  O_10
REMARK    5  A    between atoms: O_10  and  C_11
REMARK    6  A    between atoms: C_11  and  C_12
REMARK    7  A    between atoms: C_12  and  O_13
REMARK    8  A    between atoms: O_13  and  C_14
REMARK                            x       y       z     vdW  Elec       q    Type
REMARK                         _______ _______ _______ _____ _____    ______ ____
ROOT
ATOM      1  C   UNL     1       3.694   3.820  19.343  0.00  0.00    +0.000 C 
ENDROOT
BRANCH   1   2
ATOM      2  O   UNL     1       4.963   4.433  19.219  0.00  0.00    +0.000 OA
BRANCH   2   9
ATOM      3  C   UNL     1       6.780   5.258  17.671  0.00  0.00    +0.000 A 
ATOM      4  N   UNL     1       7.207   5.283  16.374  0.00  0.00    +0.000 NA
ATOM      5  C   UNL     1       6.529   4.608  15.421  0.00  0.00    +0.000 A 
ATOM      6  C   UNL     1       7.015   4.737  14.012  0.00  0.00    +0.000 C 
ATOM      7  C   UNL     1       5.415   3.850  15.716  0.00  0.00    +0.000 A 
ATOM      8  C   UNL     1       4.973   3.826  17.032  0.00  0.00    +0.000 A 
ATOM      9  C   UNL     1       5.636   4.543  18.042  0.00  0.00    +0.000 A 
BRANCH   3  11
ATOM     10  C   UNL     1       7.967   7.488  18.121  0.00  0.00    +0.000 C 
ATOM     11  C   UNL     1       7.640   6.074  18.607  0.00  0.00    +0.000 C 
ENDBRANCH   3  11
ENDBRANCH   2   9
ENDBRANCH   1   2
BRANCH   1  12
ATOM     12  C   UNL     1       2.576   4.858  19.301  0.00  0.00    +0.000 C 
BRANCH  12  13
ATOM     13  O   UNL     1       3.110   6.074  19.813  0.00  0.00    +0.000 OA
BRANCH  13  14
ATOM     14  C   UNL     1       2.422   7.239  19.618  0.00  0.00    +0.000 A 
ATOM     15  C   UNL     1       1.565   7.827  20.551  0.00  0.00    +0.000 A 
ATOM     16  C   UNL     1       0.894   9.015  20.236  0.00  0.00    +0.000 A 
ATOM     17  C   UNL     1       1.081   9.615  18.992  0.00  0.00    +0.000 A 
ATOM     18 CL   UNL     1       0.243  11.068  18.609  0.00  0.00    +0.000 Cl
ATOM     19  C   UNL     1       1.938   9.047  18.056  0.00  0.00    +0.000 A 
ATOM     20  C   UNL     1       2.606   7.864  18.371  0.00  0.00    +0.000 A 
ATOM     21 CL   UNL     1       3.667   7.192  17.180  0.00  0.00    +0.000 Cl
ENDBRANCH  13  14
ENDBRANCH  12  13
ENDBRANCH   1  12
TORSDOF 6
ENDMDL
MODEL 4
REMARK VINA RESULT:      -6.7      2.112      3.726
REMARK  Name = 
REMARK  8 active torsions:
REMARK  status: ('A' for Active; 'I' for Inactive)
REMARK    1  A    between atoms: C_1  and  C_2
REMARK    2  A    between atoms: C_2  and  C_3
REMARK    3  A    between atoms: C_5  and  C_6
REMARK    4  A    between atoms: C_9  and  O_10
REMARK    5  A    between atoms: O_10  and  C_11
REMARK    6  A    between atoms: C_11  and  C_12
REMARK    7  A    between atoms: C_12  and  O_13
REMARK    8  A    between atoms: O_13  and  C_14
REMARK                            x       y       z     vdW  Elec       q    Type
REMARK                         _______ _______ _______ _____ _____    ______ ____
ROOT
ATOM      1  C   UNL     1       3.293   4.740  18.158  0.00  0.00    +0.000 C 
ENDROOT
BRANCH   1   2
ATOM      2  O   UNL     1       4.496   5.479  18.075  0.00  0.00    +0.000 OA
BRANCH   2   9
ATOM      3  C   UNL     1       6.650   5.916  16.829  0.00  0.00    +0.000 A 
ATOM      4  N   UNL     1       7.310   5.720  15.650  0.00  0.00    +0.000 NA
ATOM      5  C   UNL     1       6.750   4.975  14.672  0.00  0.00    +0.000 A 
ATOM      6  C   UNL     1       7.501   4.859  13.383  0.00  0.00    +0.000 C 
ATOM      7  C   UNL     1       5.523   4.364  14.831  0.00  0.00    +0.000 A 
ATOM      8  C   UNL     1       4.845   4.567  16.026  0.00  0.00    +0.000 A 
ATOM      9  C   UNL     1       5.384   5.362  17.050  0.00  0.00    +0.000 A 
BRANCH   3  11
ATOM     10  C   UNL     1       7.903   6.060  19.064  0.00  0.00    +0.000 C 
ATOM     11  C   UNL     1       7.406   6.782  17.809  0.00  0.00    +0.000 C 
ENDBRANCH   3  11
ENDBRANCH   2   9
ENDBRANCH   1   2
BRANCH   1  12
ATOM     12  C   UNL     1       2.406   5.260  19.286  0.00  0.00    +0.000 C 
BRANCH  12  13
ATOM     13  O   UNL     1       2.924   6.525  19.681  0.00  0.00    +0.000 OA
BRANCH  13  14
ATOM     14  C   UNL     1       2.058   7.555  19.919  0.00  0.00    +0.000 A 
ATOM     15  C   UNL     1       1.338   7.738  21.101  0.00  0.00    +0.000 A 
ATOM     16  C   UNL     1       0.461   8.822  21.228  0.00  0.00    +0.000 A 
ATOM     17  C   UNL     1       0.307   9.723  20.177  0.00  0.00    +0.000 A 
ATOM     18 CL   UNL     1      -0.782  11.046  20.337  0.00  0.00    +0.000 Cl
ATOM     19  C   UNL     1       1.024   9.561  18.996  0.00  0.00    +0.000 A 
ATOM     20  C   UNL     1       1.898   8.480  18.871  0.00  0.00    +0.000 A 
ATOM     21 CL   UNL     1       2.774   8.317  17.389  0.00  0.00    +0.000 Cl
ENDBRANCH  13  14
ENDBRANCH  12  13
ENDBRANCH   1  12
TORSDOF 6
ENDMDL
MODEL 5
REMARK VINA RESULT:      -6.7      1.385      2.857
REMARK  Name = 
REMARK  8 active torsions:
REMARK  status: ('A' for Active; 'I' for Inactive)
REMARK    1  A    between atoms: C_1  and  C_2
REMARK    2  A    between atoms: C_2  and  C_3
REMARK    3  A    between atoms: C_5  and  C_6
REMARK    4  A    between atoms: C_9  and  O_10
REMARK    5  A    between atoms: O_10  and  C_11
REMARK    6  A    between atoms: C_11  and  C_12
REMARK    7  A    between atoms: C_12  and  O_13
REMARK    8  A    between atoms: O_13  and  C_14
REMARK                            x       y       z     vdW  Elec       q    Type
REMARK                         _______ _______ _______ _____ _____    ______ ____
ROOT
ATOM      1  C   UNL     1       4.183   2.887  17.213  0.00  0.00    +0.000 C 
ENDROOT
BRANCH   1   2
ATOM      2  O   UNL     1       5.026   4.018  17.321  0.00  0.00    +0.000 OA
BRANCH   2   9
ATOM      3  C   UNL     1       6.867   5.412  16.299  0.00  0.00    +0.000 A 
ATOM      4  N   UNL     1       7.549   5.678  15.146  0.00  0.00    +0.000 NA
ATOM      5  C   UNL     1       7.295   4.966  14.026  0.00  0.00    +0.000 A 
ATOM      6  C   UNL     1       8.032   5.357  12.784  0.00  0.00    +0.000 C 
ATOM      7  C   UNL     1       6.376   3.938  14.007  0.00  0.00    +0.000 A 
ATOM      8  C   UNL     1       5.675   3.669  15.175  0.00  0.00    +0.000 A 
ATOM      9  C   UNL     1       5.891   4.411  16.347  0.00  0.00    +0.000 A 
BRANCH   3  11
ATOM     10  C   UNL     1       7.872   5.580  18.654  0.00  0.00    +0.000 C 
ATOM     11  C   UNL     1       7.259   6.304  17.452  0.00  0.00    +0.000 C 
ENDBRANCH   3  11
ENDBRANCH   2   9
ENDBRANCH   1   2
BRANCH   1  12
ATOM     12  C   UNL     1       3.440   2.627  18.520  0.00  0.00    +0.000 C 
BRANCH  12  13
ATOM     13  O   UNL     1       2.192   3.305  18.438  0.00  0.00    +0.000 OA
BRANCH  13  14
ATOM     14  C   UNL     1       2.077   4.557  18.972  0.00  0.00    +0.000 A 
ATOM     15  C   UNL     1       2.437   5.740  18.322  0.00  0.00    +0.000 A 
ATOM     16  C   UNL     1       2.294   6.970  18.975  0.00  0.00    +0.000 A 
ATOM     17  C   UNL     1       1.789   7.019  20.273  0.00  0.00    +0.000 A 
ATOM     18 CL   UNL     1       1.628   8.535  21.072  0.00  0.00    +0.000 Cl
ATOM     19  C   UNL     1       1.417   5.851  20.930  0.00  0.00    +0.000 A 
ATOM     20  C   UNL     1       1.560   4.626  20.279  0.00  0.00    +0.000 A 
ATOM     21 CL   UNL     1       1.081   3.198  21.129  0.00  0.00    +0.000 Cl
ENDBRANCH  13  14
ENDBRANCH  12  13
ENDBRANCH   1  12
TORSDOF 6
ENDMDL
MODEL 6
REMARK VINA RESULT:      -6.6      1.853      3.290
REMARK  Name = 
REMARK  8 active torsions:
REMARK  status: ('A' for Active; 'I' for Inactive)
REMARK    1  A    between atoms: C_1  and  C_2
REMARK    2  A    between atoms: C_2  and  C_3
REMARK    3  A    between atoms: C_5  and  C_6
REMARK    4  A    between atoms: C_9  and  O_10
REMARK    5  A    between atoms: O_10  and  C_11
REMARK    6  A    between atoms: C_11  and  C_12
REMARK    7  A    between atoms: C_12  and  O_13
REMARK    8  A    between atoms: O_13  and  C_14
REMARK                            x       y       z     vdW  Elec       q    Type
REMARK                         _______ _______ _______ _____ _____    ______ ____
ROOT
ATOM      1  C   UNL     1       4.604   4.137  19.556  0.00  0.00    +0.000 C 
ENDROOT
BRANCH   1   2
ATOM      2  O   UNL     1       5.206   5.265  18.950  0.00  0.00    +0.000 OA
BRANCH   2   9
ATOM      3  C   UNL     1       6.978   5.913  17.271  0.00  0.00    +0.000 A 
ATOM      4  N   UNL     1       7.394   5.757  15.979  0.00  0.00    +0.000 NA
ATOM      5  C   UNL     1       6.736   4.919  15.149  0.00  0.00    +0.000 A 
ATOM      6  C   UNL     1       7.207   4.851  13.731  0.00  0.00    +0.000 C 
ATOM      7  C   UNL     1       5.655   4.173  15.571  0.00  0.00    +0.000 A 
ATOM      8  C   UNL     1       5.225   4.333  16.881  0.00  0.00    +0.000 A 
ATOM      9  C   UNL     1       5.865   5.220  17.761  0.00  0.00    +0.000 A 
BRANCH   3  11
ATOM     10  C   UNL     1       7.722   8.349  17.590  0.00  0.00    +0.000 C 
ATOM     11  C   UNL     1       7.811   6.894  18.060  0.00  0.00    +0.000 C 
ENDBRANCH   3  11
ENDBRANCH   2   9
ENDBRANCH   1   2
BRANCH   1  12
ATOM     12  C   UNL     1       3.159   4.430  19.949  0.00  0.00    +0.000 C 
BRANCH  12  13
ATOM     13  O   UNL     1       2.669   5.419  19.051  0.00  0.00    +0.000 OA
BRANCH  13  14
ATOM     14  C   UNL     1       2.143   6.575  19.554  0.00  0.00    +0.000 A 
ATOM     15  C   UNL     1       1.444   6.677  20.759  0.00  0.00    +0.000 A 
ATOM     16  C   UNL     1       0.929   7.913  21.168  0.00  0.00    +0.000 A 
ATOM     17  C   UNL     1       1.114   9.045  20.377  0.00  0.00    +0.000 A 
ATOM     18 CL   UNL     1       0.467  10.557  20.882  0.00  0.00    +0.000 Cl
ATOM     19  C   UNL     1       1.816   8.961  19.179  0.00  0.00    +0.000 A 
ATOM     20  C   UNL     1       2.329   7.730  18.772  0.00  0.00    +0.000 A 
ATOM     21 CL   UNL     1       3.200   7.670  17.278  0.00  0.00    +0.000 Cl
ENDBRANCH  13  14
ENDBRANCH  12  13
ENDBRANCH   1  12
TORSDOF 6
ENDMDL
MODEL 7
REMARK VINA RESULT:      -6.6      1.271      1.572
REMARK  Name = 
REMARK  8 active torsions:
REMARK  status: ('A' for Active; 'I' for Inactive)
REMARK    1  A    between atoms: C_1  and  C_2
REMARK    2  A    between atoms: C_2  and  C_3
REMARK    3  A    between atoms: C_5  and  C_6
REMARK    4  A    between atoms: C_9  and  O_10
REMARK    5  A    between atoms: O_10  and  C_11
REMARK    6  A    between atoms: C_11  and  C_12
REMARK    7  A    between atoms: C_12  and  O_13
REMARK    8  A    between atoms: O_13  and  C_14
REMARK                            x       y       z     vdW  Elec       q    Type
REMARK                         _______ _______ _______ _____ _____    ______ ____
ROOT
ATOM      1  C   UNL     1       4.263   2.555  18.209  0.00  0.00    +0.000 C 
ENDROOT
BRANCH   1   2
ATOM      2  O   UNL     1       4.632   3.342  17.092  0.00  0.00    +0.000 OA
BRANCH   2   9
ATOM      3  C   UNL     1       5.959   5.301  16.208  0.00  0.00    +0.000 A 
ATOM      4  N   UNL     1       6.805   6.316  16.553  0.00  0.00    +0.000 NA
ATOM      5  C   UNL     1       7.121   6.526  17.850  0.00  0.00    +0.000 A 
ATOM      6  C   UNL     1       8.106   7.612  18.147  0.00  0.00    +0.000 C 
ATOM      7  C   UNL     1       6.588   5.760  18.865  0.00  0.00    +0.000 A 
ATOM      8  C   UNL     1       5.733   4.722  18.518  0.00  0.00    +0.000 A 
ATOM      9  C   UNL     1       5.409   4.455  17.178  0.00  0.00    +0.000 A 
BRANCH   3  11
ATOM     10  C   UNL     1       6.216   3.896  14.075  0.00  0.00    +0.000 C 
ATOM     11  C   UNL     1       5.720   5.193  14.721  0.00  0.00    +0.000 C 
ENDBRANCH   3  11
ENDBRANCH   2   9
ENDBRANCH   1   2
BRANCH   1  12
ATOM     12  C   UNL     1       2.992   1.759  17.924  0.00  0.00    +0.000 C 
BRANCH  12  13
ATOM     13  O   UNL     1       1.966   2.293  18.753  0.00  0.00    +0.000 OA
BRANCH  13  14
ATOM     14  C   UNL     1       1.960   3.631  19.029  0.00  0.00    +0.000 A 
ATOM     15  C   UNL     1       1.818   4.643  18.077  0.00  0.00    +0.000 A 
ATOM     16  C   UNL     1       1.846   5.986  18.471  0.00  0.00    +0.000 A 
ATOM     17  C   UNL     1       2.014   6.317  19.814  0.00  0.00    +0.000 A 
ATOM     18 CL   UNL     1       2.060   7.971  20.288  0.00  0.00    +0.000 Cl
ATOM     19  C   UNL     1       2.147   5.321  20.776  0.00  0.00    +0.000 A 
ATOM     20  C   UNL     1       2.118   3.983  20.382  0.00  0.00    +0.000 A 
ATOM     21 CL   UNL     1       2.283   2.775  21.609  0.00  0.00    +0.000 Cl
ENDBRANCH  13  14
ENDBRANCH  12  13
ENDBRANCH   1  12
TORSDOF 6
ENDMDL
MODEL 8
REMARK VINA RESULT:      -6.5      1.914      3.377
REMARK  Name = 
REMARK  8 active torsions:
REMARK  status: ('A' for Active; 'I' for Inactive)
REMARK    1  A    between atoms: C_1  and  C_2
REMARK    2  A    between atoms: C_2  and  C_3
REMARK    3  A    between atoms: C_5  and  C_6
REMARK    4  A    between atoms: C_9  and  O_10
REMARK    5  A    between atoms: O_10  and  C_11
REMARK    6  A    between atoms: C_11  and  C_12
REMARK    7  A    between atoms: C_12  and  O_13
REMARK    8  A    between atoms: O_13  and  C_14
REMARK                            x       y       z     vdW  Elec       q    Type
REMARK                         _______ _______ _______ _____ _____    ______ ____
ROOT
ATOM      1  C   UNL     1       4.347   4.676  18.662  0.00  0.00    +0.000 C 
ENDROOT
BRANCH   1   2
ATOM      2  O   UNL     1       4.708   3.806  17.606  0.00  0.00    +0.000 OA
BRANCH   2   9
ATOM      3  C   UNL     1       6.941   4.586  16.718  0.00  0.00    +0.000 A 
ATOM      4  N   UNL     1       7.628   4.929  15.589  0.00  0.00    +0.000 NA
ATOM      5  C   UNL     1       7.044   4.818  14.377  0.00  0.00    +0.000 A 
ATOM      6  C   UNL     1       7.833   5.276  13.191  0.00  0.00    +0.000 C 
ATOM      7  C   UNL     1       5.762   4.331  14.225  0.00  0.00    +0.000 A 
ATOM      8  C   UNL     1       5.057   3.986  15.371  0.00  0.00    +0.000 A 
ATOM      9  C   UNL     1       5.623   4.121  16.649  0.00  0.00    +0.000 A 
BRANCH   3  11
ATOM     10  C   UNL     1       7.778   6.221  18.510  0.00  0.00    +0.000 C 
ATOM     11  C   UNL     1       7.731   4.782  17.990  0.00  0.00    +0.000 C 
ENDBRANCH   3  11
ENDBRANCH   2   9
ENDBRANCH   1   2
BRANCH   1  12
ATOM     12  C   UNL     1       4.150   6.102  18.156  0.00  0.00    +0.000 C 
BRANCH  12  13
ATOM     13  O   UNL     1       2.748   6.325  18.056  0.00  0.00    +0.000 OA
BRANCH  13  14
ATOM     14  C   UNL     1       2.231   7.518  18.477  0.00  0.00    +0.000 A 
ATOM     15  C   UNL     1       2.179   8.683  17.707  0.00  0.00    +0.000 A 
ATOM     16  C   UNL     1       1.643   9.857  18.249  0.00  0.00    +0.000 A 
ATOM     17  C   UNL     1       1.158   9.868  19.555  0.00  0.00    +0.000 A 
ATOM     18 CL   UNL     1       0.513  11.319  20.217  0.00  0.00    +0.000 Cl
ATOM     19  C   UNL     1       1.194   8.714  20.331  0.00  0.00    +0.000 A 
ATOM     20  C   UNL     1       1.728   7.544  19.790  0.00  0.00    +0.000 A 
ATOM     21 CL   UNL     1       1.750   6.130  20.786  0.00  0.00    +0.000 Cl
ENDBRANCH  13  14
ENDBRANCH  12  13
ENDBRANCH   1  12
TORSDOF 6
ENDMDL
MODEL 9
REMARK VINA RESULT:      -6.5      3.957      6.737
REMARK  Name = 
REMARK  8 active torsions:
REMARK  status: ('A' for Active; 'I' for Inactive)
REMARK    1  A    between atoms: C_1  and  C_2
REMARK    2  A    between atoms: C_2  and  C_3
REMARK    3  A    between atoms: C_5  and  C_6
REMARK    4  A    between atoms: C_9  and  O_10
REMARK    5  A    between atoms: O_10  and  C_11
REMARK    6  A    between atoms: C_11  and  C_12
REMARK    7  A    between atoms: C_12  and  O_13
REMARK    8  A    between atoms: O_13  and  C_14
REMARK                            x       y       z     vdW  Elec       q    Type
REMARK                         _______ _______ _______ _____ _____    ______ ____
ROOT
ATOM      1  C   UNL     1       6.929   6.113  18.080  0.00  0.00    +0.000 C 
ENDROOT
BRANCH   1   2
ATOM      2  O   UNL     1       6.091   5.501  19.042  0.00  0.00    +0.000 OA
BRANCH   2   9
ATOM      3  C   UNL     1       3.703   5.621  18.226  0.00  0.00    +0.000 A 
ATOM      4  N   UNL     1       2.524   4.938  18.137  0.00  0.00    +0.000 NA
ATOM      5  C   UNL     1       2.445   3.660  18.567  0.00  0.00    +0.000 A 
ATOM      6  C   UNL     1       1.105   2.997  18.502  0.00  0.00    +0.000 C 
ATOM      7  C   UNL     1       3.539   2.990  19.073  0.00  0.00    +0.000 A 
ATOM      8  C   UNL     1       4.739   3.683  19.171  0.00  0.00    +0.000 A 
ATOM      9  C   UNL     1       4.848   5.023  18.764  0.00  0.00    +0.000 A 
BRANCH   3  11
ATOM     10  C   UNL     1       2.323   7.778  18.060  0.00  0.00    +0.000 C 
ATOM     11  C   UNL     1       3.620   7.040  17.716  0.00  0.00    +0.000 C 
ENDBRANCH   3  11
ENDBRANCH   2   9
ENDBRANCH   1   2
BRANCH   1  12
ATOM     12  C   UNL     1       7.545   5.073  17.148  0.00  0.00    +0.000 C 
BRANCH  12  13
ATOM     13  O   UNL     1       7.498   5.607  15.830  0.00  0.00    +0.000 OA
BRANCH  13  14
ATOM     14  C   UNL     1       6.821   4.926  14.858  0.00  0.00    +0.000 A 
ATOM     15  C   UNL     1       5.642   4.204  15.062  0.00  0.00    +0.000 A 
ATOM     16  C   UNL     1       5.042   3.526  13.995  0.00  0.00    +0.000 A 
ATOM     17  C   UNL     1       5.616   3.571  12.726  0.00  0.00    +0.000 A 
ATOM     18 CL   UNL     1       4.878   2.724  11.423  0.00  0.00    +0.000 Cl
ATOM     19  C   UNL     1       6.784   4.293  12.505  0.00  0.00    +0.000 A 
ATOM     20  C   UNL     1       7.381   4.969  13.569  0.00  0.00    +0.000 A 
ATOM     21 CL   UNL     1       8.830   5.859  13.251  0.00  0.00    +0.000 Cl
ENDBRANCH  13  14
ENDBRANCH  12  13
ENDBRANCH   1  12
TORSDOF 6
ENDMDL
