MODEL 1
REMARK VINA RESULT:      -6.6      0.000      0.000
REMARK  Name = 
REMARK  11 active torsions:
REMARK  status: ('A' for Active; 'I' for Inactive)
REMARK    1  A    between atoms: N_1  and  C_2
REMARK    2  A    between atoms: C_2  and  C_3
REMARK    3  A    between atoms: C_2  and  C_5
REMARK    4  A    between atoms: C_3  and  O_4
REMARK    5  A    between atoms: C_5  and  O_6
REMARK    6  A    between atoms: C_5  and  C_7
REMARK    7  A    between atoms: C_11  and  C_12
REMARK    8  A    between atoms: C_13  and  C_14
REMARK    9  A    between atoms: C_14  and  C_15
REMARK   10  A    between atoms: C_15  and  C_16
REMARK   11  A    between atoms: C_16  and  C_17
REMARK                            x       y       z     vdW  Elec       q    Type
REMARK                         _______ _______ _______ _____ _____    ______ ____
ROOT
ATOM      1  C   UNK     1       1.046   9.578  19.490  0.00  0.00    +0.000 A 
ATOM      2  C   UNK     1       0.728   8.924  20.681  0.00  0.00    +0.000 A 
ATOM      3  C   UNK     1       1.267   7.667  20.926  0.00  0.00    +0.000 A 
ATOM      4  C   UNK     1       2.138   7.111  19.997  0.00  0.00    +0.000 A 
ATOM      5  C   UNK     1       2.436   7.839  18.854  0.00  0.00    +0.000 A 
ATOM      6  N   UNK     1       1.902   9.052  18.568  0.00  0.00    +0.000 NA
ENDROOT
BRANCH   5   7
ATOM      7  C   UNK     1       3.384   7.335  17.910  0.00  0.00    +0.000 C 
ATOM      8  C   UNK     1       4.145   6.847  17.112  0.00  0.00    +0.000 C 
BRANCH   8   9
ATOM      9  C   UNK     1       5.054   6.205  16.149  0.00  0.00    +0.000 C 
BRANCH   9  10
ATOM     10  C   UNK     1       5.646   4.917  16.726  0.00  0.00    +0.000 C 
BRANCH  10  11
ATOM     11  C   UNK     1       4.710   3.720  16.530  0.00  0.00    +0.000 C 
BRANCH  11  12
ATOM     12  C   UNK     1       3.720   3.607  17.664  0.00  0.00    +0.000 A 
ATOM     13  C   UNK     1       2.341   3.632  17.416  0.00  0.00    +0.000 A 
ATOM     14  C   UNK     1       1.429   3.580  18.472  0.00  0.00    +0.000 A 
ATOM     15  C   UNK     1       1.885   3.502  19.786  0.00  0.00    +0.000 A 
ATOM     16  C   UNK     1       3.253   3.470  20.045  0.00  0.00    +0.000 A 
ATOM     17  C   UNK     1       4.167   3.522  18.990  0.00  0.00    +0.000 A 
ENDBRANCH  11  12
ENDBRANCH  10  11
ENDBRANCH   9  10
ENDBRANCH   8   9
ENDBRANCH   5   7
BRANCH   1  18
ATOM     18  C   UNK     1       0.419  10.930  19.177  0.00  0.00    +0.000 C 
BRANCH  18  19
ATOM     19  O   UNK     1       1.233  11.615  18.197  0.00  0.00    +0.000 OA
ATOM     20  H   UNK     1       1.982  11.985  18.709  0.00  0.00    +0.000 HD
ENDBRANCH  18  19
BRANCH  18  21
ATOM     21  C   UNK     1      -1.018  10.825  18.585  0.00  0.00    +0.000 C 
BRANCH  21  22
ATOM     22  N   UNK     1      -0.998   9.964  17.365  0.00  0.00    +0.000 NA
ATOM     23  H   UNK     1      -0.801   9.001  17.636  0.00  0.00    +0.000 HD
ATOM     24  H   UNK     1      -0.199  10.271  16.800  0.00  0.00    +0.000 HD
ENDBRANCH  21  22
BRANCH  21  25
ATOM     25  C   UNK     1      -1.621  12.174  18.168  0.00  0.00    +0.000 C 
BRANCH  25  26
ATOM     26  O   UNK     1      -1.648  12.273  16.746  0.00  0.00    +0.000 OA
ATOM     27  H   UNK     1      -1.472  13.222  16.565  0.00  0.00    +0.000 HD
ENDBRANCH  25  26
ENDBRANCH  21  25
ENDBRANCH  18  21
ENDBRANCH   1  18
TORSDOF 11
ENDMDL
MODEL 2
REMARK VINA RESULT:      -6.5      4.514      7.064
REMARK  Name = 
REMARK  11 active torsions:
REMARK  status: ('A' for Active; 'I' for Inactive)
REMARK    1  A    between atoms: N_1  and  C_2
REMARK    2  A    between atoms: C_2  and  C_3
REMARK    3  A    between atoms: C_2  and  C_5
REMARK    4  A    between atoms: C_3  and  O_4
REMARK    5  A    between atoms: C_5  and  O_6
REMARK    6  A    between atoms: C_5  and  C_7
REMARK    7  A    between atoms: C_11  and  C_12
REMARK    8  A    between atoms: C_13  and  C_14
REMARK    9  A    between atoms: C_14  and  C_15
REMARK   10  A    between atoms: C_15  and  C_16
REMARK   11  A    between atoms: C_16  and  C_17
REMARK                            x       y       z     vdW  Elec       q    Type
REMARK                         _______ _______ _______ _____ _____    ______ ____
ROOT
ATOM      1  C   UNK     1       6.443   5.426  16.655  0.00  0.00    +0.000 A 
ATOM      2  C   UNK     1       7.426   6.239  17.222  0.00  0.00    +0.000 A 
ATOM      3  C   UNK     1       7.563   6.270  18.604  0.00  0.00    +0.000 A 
ATOM      4  C   UNK     1       6.744   5.464  19.384  0.00  0.00    +0.000 A 
ATOM      5  C   UNK     1       5.815   4.654  18.746  0.00  0.00    +0.000 A 
ATOM      6  N   UNK     1       5.632   4.624  17.404  0.00  0.00    +0.000 NA
ENDROOT
BRANCH   5   7
ATOM      7  C   UNK     1       5.004   3.755  19.508  0.00  0.00    +0.000 C 
ATOM      8  C   UNK     1       4.261   3.026  20.115  0.00  0.00    +0.000 C 
BRANCH   8   9
ATOM      9  C   UNK     1       3.314   2.164  20.842  0.00  0.00    +0.000 C 
BRANCH   9  10
ATOM     10  C   UNK     1       2.209   2.993  21.499  0.00  0.00    +0.000 C 
BRANCH  10  11
ATOM     11  C   UNK     1       1.159   3.456  20.483  0.00  0.00    +0.000 C 
BRANCH  11  12
ATOM     12  C   UNK     1       1.597   4.719  19.780  0.00  0.00    +0.000 A 
ATOM     13  C   UNK     1       1.777   4.738  18.390  0.00  0.00    +0.000 A 
ATOM     14  C   UNK     1       2.231   5.893  17.750  0.00  0.00    +0.000 A 
ATOM     15  C   UNK     1       2.510   7.040  18.492  0.00  0.00    +0.000 A 
ATOM     16  C   UNK     1       2.329   7.034  19.873  0.00  0.00    +0.000 A 
ATOM     17  C   UNK     1       1.875   5.880  20.515  0.00  0.00    +0.000 A 
ENDBRANCH  11  12
ENDBRANCH  10  11
ENDBRANCH   9  10
ENDBRANCH   8   9
ENDBRANCH   5   7
BRANCH   1  18
ATOM     18  C   UNK     1       6.238   5.422  15.147  0.00  0.00    +0.000 C 
BRANCH  18  19
ATOM     19  O   UNK     1       7.527   5.460  14.493  0.00  0.00    +0.000 OA
ATOM     20  H   UNK     1       7.321   5.495  13.536  0.00  0.00    +0.000 HD
ENDBRANCH  18  19
BRANCH  18  21
ATOM     21  C   UNK     1       5.496   4.156  14.625  0.00  0.00    +0.000 C 
BRANCH  21  22
ATOM     22  N   UNK     1       6.117   2.931  15.212  0.00  0.00    +0.000 NA
ATOM     23  H   UNK     1       7.114   3.092  15.349  0.00  0.00    +0.000 HD
ATOM     24  H   UNK     1       6.041   2.194  14.503  0.00  0.00    +0.000 HD
ENDBRANCH  21  22
BRANCH  21  25
ATOM     25  C   UNK     1       5.541   3.992  13.099  0.00  0.00    +0.000 C 
BRANCH  25  26
ATOM     26  O   UNK     1       6.537   3.035  12.746  0.00  0.00    +0.000 OA
ATOM     27  H   UNK     1       7.203   3.101  13.465  0.00  0.00    +0.000 HD
ENDBRANCH  25  26
ENDBRANCH  21  25
ENDBRANCH  18  21
ENDBRANCH   1  18
TORSDOF 11
ENDMDL
MODEL 3
REMARK VINA RESULT:      -6.5      6.926      7.967
REMARK  Name = 
REMARK  11 active torsions:
REMARK  status: ('A' for Active; 'I' for Inactive)
REMARK    1  A    between atoms: N_1  and  C_2
REMARK    2  A    between atoms: C_2  and  C_3
REMARK    3  A    between atoms: C_2  and  C_5
REMARK    4  A    between atoms: C_3  and  O_4
REMARK    5  A    between atoms: C_5  and  O_6
REMARK    6  A    between atoms: C_5  and  C_7
REMARK    7  A    between atoms: C_11  and  C_12
REMARK    8  A    between atoms: C_13  and  C_14
REMARK    9  A    between atoms: C_14  and  C_15
REMARK   10  A    between atoms: C_15  and  C_16
REMARK   11  A    between atoms: C_16  and  C_17
REMARK                            x       y       z     vdW  Elec       q    Type
REMARK                         _______ _______ _______ _____ _____    ______ ____
ROOT
ATOM      1  C   UNK     1      10.671  12.260  18.824  0.00  0.00    +0.000 A 
ATOM      2  C   UNK     1      10.642  12.425  20.209  0.00  0.00    +0.000 A 
ATOM      3  C   UNK     1       9.860  11.569  20.976  0.00  0.00    +0.000 A 
ATOM      4  C   UNK     1       9.160  10.547  20.347  0.00  0.00    +0.000 A 
ATOM      5  C   UNK     1       9.269  10.422  18.969  0.00  0.00    +0.000 A 
ATOM      6  N   UNK     1       9.993  11.260  18.189  0.00  0.00    +0.000 NA
ENDROOT
BRANCH   5   7
ATOM      7  C   UNK     1       8.622   9.340  18.294  0.00  0.00    +0.000 C 
ATOM      8  C   UNK     1       8.104   8.383  17.776  0.00  0.00    +0.000 C 
BRANCH   8   9
ATOM      9  C   UNK     1       7.501   7.183  17.173  0.00  0.00    +0.000 C 
BRANCH   9  10
ATOM     10  C   UNK     1       6.041   7.026  17.604  0.00  0.00    +0.000 C 
BRANCH  10  11
ATOM     11  C   UNK     1       5.846   5.830  18.541  0.00  0.00    +0.000 C 
BRANCH  11  12
ATOM     12  C   UNK     1       4.490   5.195  18.345  0.00  0.00    +0.000 A 
ATOM     13  C   UNK     1       4.244   4.357  17.248  0.00  0.00    +0.000 A 
ATOM     14  C   UNK     1       2.974   3.814  17.043  0.00  0.00    +0.000 A 
ATOM     15  C   UNK     1       1.939   4.101  17.929  0.00  0.00    +0.000 A 
ATOM     16  C   UNK     1       2.173   4.927  19.026  0.00  0.00    +0.000 A 
ATOM     17  C   UNK     1       3.443   5.472  19.234  0.00  0.00    +0.000 A 
ENDBRANCH  11  12
ENDBRANCH  10  11
ENDBRANCH   9  10
ENDBRANCH   8   9
ENDBRANCH   5   7
BRANCH   1  18
ATOM     18  C   UNK     1      11.473  13.224  17.961  0.00  0.00    +0.000 C 
BRANCH  18  19
ATOM     19  O   UNK     1      11.563  12.697  16.618  0.00  0.00    +0.000 OA
ATOM     20  H   UNK     1      11.958  13.421  16.091  0.00  0.00    +0.000 HD
ENDBRANCH  18  19
BRANCH  18  21
ATOM     21  C   UNK     1      10.835  14.640  17.856  0.00  0.00    +0.000 C 
BRANCH  21  22
ATOM     22  N   UNK     1       9.419  14.521  17.396  0.00  0.00    +0.000 NA
ATOM     23  H   UNK     1       9.362  13.820  16.658  0.00  0.00    +0.000 HD
ATOM     24  H   UNK     1       9.174  15.417  16.960  0.00  0.00    +0.000 HD
ENDBRANCH  21  22
BRANCH  21  25
ATOM     25  C   UNK     1      11.547  15.574  16.867  0.00  0.00    +0.000 C 
BRANCH  25  26
ATOM     26  O   UNK     1      10.664  15.912  15.800  0.00  0.00    +0.000 OA
ATOM     27  H   UNK     1      10.303  15.049  15.501  0.00  0.00    +0.000 HD
ENDBRANCH  25  26
ENDBRANCH  21  25
ENDBRANCH  18  21
ENDBRANCH   1  18
TORSDOF 11
ENDMDL
MODEL 4
REMARK VINA RESULT:      -6.5      7.114      8.182
REMARK  Name = 
REMARK  11 active torsions:
REMARK  status: ('A' for Active; 'I' for Inactive)
REMARK    1  A    between atoms: N_1  and  C_2
REMARK    2  A    between atoms: C_2  and  C_3
REMARK    3  A    between atoms: C_2  and  C_5
REMARK    4  A    between atoms: C_3  and  O_4
REMARK    5  A    between atoms: C_5  and  O_6
REMARK    6  A    between atoms: C_5  and  C_7
REMARK    7  A    between atoms: C_11  and  C_12
REMARK    8  A    between atoms: C_13  and  C_14
REMARK    9  A    between atoms: C_14  and  C_15
REMARK   10  A    between atoms: C_15  and  C_16
REMARK   11  A    between atoms: C_16  and  C_17
REMARK                            x       y       z     vdW  Elec       q    Type
REMARK                         _______ _______ _______ _____ _____    ______ ____
ROOT
ATOM      1  C   UNK     1      10.829  12.249  18.945  0.00  0.00    +0.000 A 
ATOM      2  C   UNK     1      10.784  12.498  20.317  0.00  0.00    +0.000 A 
ATOM      3  C   UNK     1       9.963  11.715  21.120  0.00  0.00    +0.000 A 
ATOM      4  C   UNK     1       9.239  10.681  20.541  0.00  0.00    +0.000 A 
ATOM      5  C   UNK     1       9.365  10.470  19.175  0.00  0.00    +0.000 A 
ATOM      6  N   UNK     1      10.129  11.236  18.358  0.00  0.00    +0.000 NA
ENDROOT
BRANCH   5   7
ATOM      7  C   UNK     1       8.693   9.371  18.554  0.00  0.00    +0.000 C 
ATOM      8  C   UNK     1       8.066   8.487  18.027  0.00  0.00    +0.000 C 
BRANCH   8   9
ATOM      9  C   UNK     1       7.258   7.432  17.394  0.00  0.00    +0.000 C 
BRANCH   9  10
ATOM     10  C   UNK     1       7.607   6.055  17.963  0.00  0.00    +0.000 C 
BRANCH  10  11
ATOM     11  C   UNK     1       6.676   5.658  19.113  0.00  0.00    +0.000 C 
BRANCH  11  12
ATOM     12  C   UNK     1       5.369   5.108  18.595  0.00  0.00    +0.000 A 
ATOM     13  C   UNK     1       5.340   4.267  17.474  0.00  0.00    +0.000 A 
ATOM     14  C   UNK     1       4.125   3.803  16.968  0.00  0.00    +0.000 A 
ATOM     15  C   UNK     1       2.927   4.173  17.575  0.00  0.00    +0.000 A 
ATOM     16  C   UNK     1       2.943   5.002  18.694  0.00  0.00    +0.000 A 
ATOM     17  C   UNK     1       4.158   5.469  19.203  0.00  0.00    +0.000 A 
ENDBRANCH  11  12
ENDBRANCH  10  11
ENDBRANCH   9  10
ENDBRANCH   8   9
ENDBRANCH   5   7
BRANCH   1  18
ATOM     18  C   UNK     1      11.677  13.133  18.040  0.00  0.00    +0.000 C 
BRANCH  18  19
ATOM     19  O   UNK     1      12.150  12.351  16.920  0.00  0.00    +0.000 OA
ATOM     20  H   UNK     1      12.738  12.956  16.423  0.00  0.00    +0.000 HD
ENDBRANCH  18  19
BRANCH  18  21
ATOM     21  C   UNK     1      10.898  14.348  17.454  0.00  0.00    +0.000 C 
BRANCH  21  22
ATOM     22  N   UNK     1      11.163  14.455  15.988  0.00  0.00    +0.000 NA
ATOM     23  H   UNK     1      11.171  13.521  15.578  0.00  0.00    +0.000 HD
ATOM     24  H   UNK     1      12.116  14.821  15.887  0.00  0.00    +0.000 HD
ENDBRANCH  21  22
BRANCH  21  25
ATOM     25  C   UNK     1      11.286  15.697  18.077  0.00  0.00    +0.000 C 
BRANCH  25  26
ATOM     26  O   UNK     1      10.203  16.616  17.950  0.00  0.00    +0.000 OA
ATOM     27  H   UNK     1      10.600  17.489  18.161  0.00  0.00    +0.000 HD
ENDBRANCH  25  26
ENDBRANCH  21  25
ENDBRANCH  18  21
ENDBRANCH   1  18
TORSDOF 11
ENDMDL
MODEL 5
REMARK VINA RESULT:      -6.5      0.405      1.066
REMARK  Name = 
REMARK  11 active torsions:
REMARK  status: ('A' for Active; 'I' for Inactive)
REMARK    1  A    between atoms: N_1  and  C_2
REMARK    2  A    between atoms: C_2  and  C_3
REMARK    3  A    between atoms: C_2  and  C_5
REMARK    4  A    between atoms: C_3  and  O_4
REMARK    5  A    between atoms: C_5  and  O_6
REMARK    6  A    between atoms: C_5  and  C_7
REMARK    7  A    between atoms: C_11  and  C_12
REMARK    8  A    between atoms: C_13  and  C_14
REMARK    9  A    between atoms: C_14  and  C_15
REMARK   10  A    between atoms: C_15  and  C_16
REMARK   11  A    between atoms: C_16  and  C_17
REMARK                            x       y       z     vdW  Elec       q    Type
REMARK                         _______ _______ _______ _____ _____    ______ ____
ROOT
ATOM      1  C   UNK     1       1.144   9.586  19.371  0.00  0.00    +0.000 A 
ATOM      2  C   UNK     1       0.818   8.954  20.572  0.00  0.00    +0.000 A 
ATOM      3  C   UNK     1       1.339   7.693  20.835  0.00  0.00    +0.000 A 
ATOM      4  C   UNK     1       2.203   7.112  19.915  0.00  0.00    +0.000 A 
ATOM      5  C   UNK     1       2.511   7.819  18.761  0.00  0.00    +0.000 A 
ATOM      6  N   UNK     1       1.993   9.034  18.457  0.00  0.00    +0.000 NA
ENDROOT
BRANCH   5   7
ATOM      7  C   UNK     1       3.452   7.288  17.824  0.00  0.00    +0.000 C 
ATOM      8  C   UNK     1       4.202   6.780  17.029  0.00  0.00    +0.000 C 
BRANCH   8   9
ATOM      9  C   UNK     1       5.096   6.114  16.067  0.00  0.00    +0.000 C 
BRANCH   9  10
ATOM     10  C   UNK     1       4.775   4.622  15.961  0.00  0.00    +0.000 C 
BRANCH  10  11
ATOM     11  C   UNK     1       5.055   3.881  17.272  0.00  0.00    +0.000 C 
BRANCH  11  12
ATOM     12  C   UNK     1       3.801   3.738  18.100  0.00  0.00    +0.000 A 
ATOM     13  C   UNK     1       3.870   3.665  19.498  0.00  0.00    +0.000 A 
ATOM     14  C   UNK     1       2.712   3.481  20.256  0.00  0.00    +0.000 A 
ATOM     15  C   UNK     1       1.474   3.367  19.626  0.00  0.00    +0.000 A 
ATOM     16  C   UNK     1       1.392   3.444  18.238  0.00  0.00    +0.000 A 
ATOM     17  C   UNK     1       2.549   3.628  17.477  0.00  0.00    +0.000 A 
ENDBRANCH  11  12
ENDBRANCH  10  11
ENDBRANCH   9  10
ENDBRANCH   8   9
ENDBRANCH   5   7
BRANCH   1  18
ATOM     18  C   UNK     1       0.536  10.941  19.037  0.00  0.00    +0.000 C 
BRANCH  18  19
ATOM     19  O   UNK     1       1.328  11.576  18.007  0.00  0.00    +0.000 OA
ATOM     20  H   UNK     1       1.764  10.837  17.535  0.00  0.00    +0.000 HD
ENDBRANCH  18  19
BRANCH  18  21
ATOM     21  C   UNK     1      -0.924  10.851  18.502  0.00  0.00    +0.000 C 
BRANCH  21  22
ATOM     22  N   UNK     1      -0.973   9.930  17.327  0.00  0.00    +0.000 NA
ATOM     23  H   UNK     1      -0.857  10.471  16.470  0.00  0.00    +0.000 HD
ATOM     24  H   UNK     1      -1.923   9.544  17.296  0.00  0.00    +0.000 HD
ENDBRANCH  21  22
BRANCH  21  25
ATOM     25  C   UNK     1      -1.503  12.196  18.039  0.00  0.00    +0.000 C 
BRANCH  25  26
ATOM     26  O   UNK     1      -1.932  12.095  16.683  0.00  0.00    +0.000 OA
ATOM     27  H   UNK     1      -1.233  12.559  16.173  0.00  0.00    +0.000 HD
ENDBRANCH  25  26
ENDBRANCH  21  25
ENDBRANCH  18  21
ENDBRANCH   1  18
TORSDOF 11
ENDMDL
MODEL 6
REMARK VINA RESULT:      -6.5      7.743      9.014
REMARK  Name = 
REMARK  11 active torsions:
REMARK  status: ('A' for Active; 'I' for Inactive)
REMARK    1  A    between atoms: N_1  and  C_2
REMARK    2  A    between atoms: C_2  and  C_3
REMARK    3  A    between atoms: C_2  and  C_5
REMARK    4  A    between atoms: C_3  and  O_4
REMARK    5  A    between atoms: C_5  and  O_6
REMARK    6  A    between atoms: C_5  and  C_7
REMARK    7  A    between atoms: C_11  and  C_12
REMARK    8  A    between atoms: C_13  and  C_14
REMARK    9  A    between atoms: C_14  and  C_15
REMARK   10  A    between atoms: C_15  and  C_16
REMARK   11  A    between atoms: C_16  and  C_17
REMARK                            x       y       z     vdW  Elec       q    Type
REMARK                         _______ _______ _______ _____ _____    ______ ____
ROOT
ATOM      1  C   UNK     1      11.297  13.050  18.203  0.00  0.00    +0.000 A 
ATOM      2  C   UNK     1      11.771  13.174  19.510  0.00  0.00    +0.000 A 
ATOM      3  C   UNK     1      11.287  12.313  20.488  0.00  0.00    +0.000 A 
ATOM      4  C   UNK     1      10.374  11.329  20.132  0.00  0.00    +0.000 A 
ATOM      5  C   UNK     1       9.979  11.244  18.805  0.00  0.00    +0.000 A 
ATOM      6  N   UNK     1      10.404  12.087  17.833  0.00  0.00    +0.000 NA
ENDROOT
BRANCH   5   7
ATOM      7  C   UNK     1       9.098  10.199  18.384  0.00  0.00    +0.000 C 
ATOM      8  C   UNK     1       8.409   9.270  18.042  0.00  0.00    +0.000 C 
BRANCH   8   9
ATOM      9  C   UNK     1       7.611   8.108  17.622  0.00  0.00    +0.000 C 
BRANCH   9  10
ATOM     10  C   UNK     1       8.030   6.848  18.384  0.00  0.00    +0.000 C 
BRANCH  10  11
ATOM     11  C   UNK     1       6.845   5.911  18.636  0.00  0.00    +0.000 C 
BRANCH  11  12
ATOM     12  C   UNK     1       6.356   5.287  17.351  0.00  0.00    +0.000 A 
ATOM     13  C   UNK     1       4.988   5.068  17.137  0.00  0.00    +0.000 A 
ATOM     14  C   UNK     1       4.545   4.443  15.969  0.00  0.00    +0.000 A 
ATOM     15  C   UNK     1       5.462   4.032  15.005  0.00  0.00    +0.000 A 
ATOM     16  C   UNK     1       6.823   4.250  15.203  0.00  0.00    +0.000 A 
ATOM     17  C   UNK     1       7.270   4.874  16.371  0.00  0.00    +0.000 A 
ENDBRANCH  11  12
ENDBRANCH  10  11
ENDBRANCH   9  10
ENDBRANCH   8   9
ENDBRANCH   5   7
BRANCH   1  18
ATOM     18  C   UNK     1      11.771  14.020  17.130  0.00  0.00    +0.000 C 
BRANCH  18  19
ATOM     19  O   UNK     1      11.424  13.494  15.828  0.00  0.00    +0.000 OA
ATOM     20  H   UNK     1      12.036  13.940  15.207  0.00  0.00    +0.000 HD
ENDBRANCH  18  19
BRANCH  18  21
ATOM     21  C   UNK     1      11.122  15.432  17.240  0.00  0.00    +0.000 C 
BRANCH  21  22
ATOM     22  N   UNK     1      10.787  15.940  15.876  0.00  0.00    +0.000 NA
ATOM     23  H   UNK     1      11.644  16.033  15.331  0.00  0.00    +0.000 HD
ATOM     24  H   UNK     1      10.421  16.890  15.998  0.00  0.00    +0.000 HD
ENDBRANCH  21  22
BRANCH  21  25
ATOM     25  C   UNK     1      12.026  16.484  17.898  0.00  0.00    +0.000 C 
BRANCH  25  26
ATOM     26  O   UNK     1      11.802  17.757  17.297  0.00  0.00    +0.000 OA
ATOM     27  H   UNK     1      10.824  17.832  17.245  0.00  0.00    +0.000 HD
ENDBRANCH  25  26
ENDBRANCH  21  25
ENDBRANCH  18  21
ENDBRANCH   1  18
TORSDOF 11
ENDMDL
MODEL 7
REMARK VINA RESULT:      -6.4      1.788      2.601
REMARK  Name = 
REMARK  11 active torsions:
REMARK  status: ('A' for Active; 'I' for Inactive)
REMARK    1  A    between atoms: N_1  and  C_2
REMARK    2  A    between atoms: C_2  and  C_3
REMARK    3  A    between atoms: C_2  and  C_5
REMARK    4  A    between atoms: C_3  and  O_4
REMARK    5  A    between atoms: C_5  and  O_6
REMARK    6  A    between atoms: C_5  and  C_7
REMARK    7  A    between atoms: C_11  and  C_12
REMARK    8  A    between atoms: C_13  and  C_14
REMARK    9  A    between atoms: C_14  and  C_15
REMARK   10  A    between atoms: C_15  and  C_16
REMARK   11  A    between atoms: C_16  and  C_17
REMARK                            x       y       z     vdW  Elec       q    Type
REMARK                         _______ _______ _______ _____ _____    ______ ____
ROOT
ATOM      1  C   UNK     1      -1.181  10.932  19.685  0.00  0.00    +0.000 A 
ATOM      2  C   UNK     1      -0.962  11.177  21.042  0.00  0.00    +0.000 A 
ATOM      3  C   UNK     1       0.131  10.590  21.667  0.00  0.00    +0.000 A 
ATOM      4  C   UNK     1       0.999   9.806  20.917  0.00  0.00    +0.000 A 
ATOM      5  C   UNK     1       0.736   9.639  19.565  0.00  0.00    +0.000 A 
ATOM      6  N   UNK     1      -0.338  10.168  18.931  0.00  0.00    +0.000 NA
ENDROOT
BRANCH   5   7
ATOM      7  C   UNK     1       1.645   8.900  18.744  0.00  0.00    +0.000 C 
ATOM      8  C   UNK     1       2.465   8.297  18.098  0.00  0.00    +0.000 C 
BRANCH   8   9
ATOM      9  C   UNK     1       3.503   7.587  17.333  0.00  0.00    +0.000 C 
BRANCH   9  10
ATOM     10  C   UNK     1       3.997   6.354  18.092  0.00  0.00    +0.000 C 
BRANCH  10  11
ATOM     11  C   UNK     1       3.425   5.056  17.511  0.00  0.00    +0.000 C 
BRANCH  11  12
ATOM     12  C   UNK     1       2.440   4.418  18.461  0.00  0.00    +0.000 A 
ATOM     13  C   UNK     1       2.207   4.969  19.728  0.00  0.00    +0.000 A 
ATOM     14  C   UNK     1       1.335   4.347  20.623  0.00  0.00    +0.000 A 
ATOM     15  C   UNK     1       0.686   3.168  20.261  0.00  0.00    +0.000 A 
ATOM     16  C   UNK     1       0.904   2.614  19.002  0.00  0.00    +0.000 A 
ATOM     17  C   UNK     1       1.777   3.235  18.105  0.00  0.00    +0.000 A 
ENDBRANCH  11  12
ENDBRANCH  10  11
ENDBRANCH   9  10
ENDBRANCH   8   9
ENDBRANCH   5   7
BRANCH   1  18
ATOM     18  C   UNK     1      -2.405  11.518  18.996  0.00  0.00    +0.000 C 
BRANCH  18  19
ATOM     19  O   UNK     1      -2.218  12.941  18.825  0.00  0.00    +0.000 OA
ATOM     20  H   UNK     1      -1.546  13.022  18.118  0.00  0.00    +0.000 HD
ENDBRANCH  18  19
BRANCH  18  21
ATOM     21  C   UNK     1      -2.668  10.918  17.583  0.00  0.00    +0.000 C 
BRANCH  21  22
ATOM     22  N   UNK     1      -1.926  11.707  16.555  0.00  0.00    +0.000 NA
ATOM     23  H   UNK     1      -1.066  11.216  16.310  0.00  0.00    +0.000 HD
ATOM     24  H   UNK     1      -1.637  12.581  17.007  0.00  0.00    +0.000 HD
ENDBRANCH  21  22
BRANCH  21  25
ATOM     25  C   UNK     1      -4.146  10.923  17.168  0.00  0.00    +0.000 C 
BRANCH  25  26
ATOM     26  O   UNK     1      -4.545  12.247  16.821  0.00  0.00    +0.000 OA
ATOM     27  H   UNK     1      -5.511  12.265  17.000  0.00  0.00    +0.000 HD
ENDBRANCH  25  26
ENDBRANCH  21  25
ENDBRANCH  18  21
ENDBRANCH   1  18
TORSDOF 11
ENDMDL
MODEL 8
REMARK VINA RESULT:      -6.3      3.684      7.919
REMARK  Name = 
REMARK  11 active torsions:
REMARK  status: ('A' for Active; 'I' for Inactive)
REMARK    1  A    between atoms: N_1  and  C_2
REMARK    2  A    between atoms: C_2  and  C_3
REMARK    3  A    between atoms: C_2  and  C_5
REMARK    4  A    between atoms: C_3  and  O_4
REMARK    5  A    between atoms: C_5  and  O_6
REMARK    6  A    between atoms: C_5  and  C_7
REMARK    7  A    between atoms: C_11  and  C_12
REMARK    8  A    between atoms: C_13  and  C_14
REMARK    9  A    between atoms: C_14  and  C_15
REMARK   10  A    between atoms: C_15  and  C_16
REMARK   11  A    between atoms: C_16  and  C_17
REMARK                            x       y       z     vdW  Elec       q    Type
REMARK                         _______ _______ _______ _____ _____    ______ ____
ROOT
ATOM      1  C   UNK     1       2.740   3.945  18.041  0.00  0.00    +0.000 A 
ATOM      2  C   UNK     1       4.053   3.661  17.662  0.00  0.00    +0.000 A 
ATOM      3  C   UNK     1       4.885   4.703  17.273  0.00  0.00    +0.000 A 
ATOM      4  C   UNK     1       4.401   6.005  17.308  0.00  0.00    +0.000 A 
ATOM      5  C   UNK     1       3.096   6.213  17.732  0.00  0.00    +0.000 A 
ATOM      6  N   UNK     1       2.247   5.217  18.085  0.00  0.00    +0.000 NA
ENDROOT
BRANCH   5   7
ATOM      7  C   UNK     1       2.584   7.543  17.852  0.00  0.00    +0.000 C 
ATOM      8  C   UNK     1       2.220   8.685  17.974  0.00  0.00    +0.000 C 
BRANCH   8   9
ATOM      9  C   UNK     1       1.817  10.090  18.151  0.00  0.00    +0.000 C 
BRANCH   9  10
ATOM     10  C   UNK     1       0.419  10.188  18.765  0.00  0.00    +0.000 C 
BRANCH  10  11
ATOM     11  C   UNK     1      -0.670   9.744  17.783  0.00  0.00    +0.000 C 
BRANCH  11  12
ATOM     12  C   UNK     1      -1.970  10.467  18.041  0.00  0.00    +0.000 A 
ATOM     13  C   UNK     1      -2.037  11.503  18.983  0.00  0.00    +0.000 A 
ATOM     14  C   UNK     1      -3.253  12.134  19.256  0.00  0.00    +0.000 A 
ATOM     15  C   UNK     1      -4.411  11.738  18.592  0.00  0.00    +0.000 A 
ATOM     16  C   UNK     1      -4.355  10.714  17.649  0.00  0.00    +0.000 A 
ATOM     17  C   UNK     1      -3.141  10.081  17.374  0.00  0.00    +0.000 A 
ENDBRANCH  11  12
ENDBRANCH  10  11
ENDBRANCH   9  10
ENDBRANCH   8   9
ENDBRANCH   5   7
BRANCH   1  18
ATOM     18  C   UNK     1       1.795   2.812  18.413  0.00  0.00    +0.000 C 
BRANCH  18  19
ATOM     19  O   UNK     1       2.381   1.553  18.008  0.00  0.00    +0.000 OA
ATOM     20  H   UNK     1       1.916   1.316  17.179  0.00  0.00    +0.000 HD
ENDBRANCH  18  19
BRANCH  18  21
ATOM     21  C   UNK     1       1.515   2.715  19.942  0.00  0.00    +0.000 C 
BRANCH  21  22
ATOM     22  N   UNK     1       0.653   3.858  20.369  0.00  0.00    +0.000 NA
ATOM     23  H   UNK     1      -0.243   3.499  20.696  0.00  0.00    +0.000 HD
ATOM     24  H   UNK     1       0.452   4.405  19.526  0.00  0.00    +0.000 HD
ENDBRANCH  21  22
BRANCH  21  25
ATOM     25  C   UNK     1       2.779   2.760  20.812  0.00  0.00    +0.000 C 
BRANCH  25  26
ATOM     26  O   UNK     1       2.417   2.924  22.182  0.00  0.00    +0.000 OA
ATOM     27  H   UNK     1       1.492   2.598  22.229  0.00  0.00    +0.000 HD
ENDBRANCH  25  26
ENDBRANCH  21  25
ENDBRANCH  18  21
ENDBRANCH   1  18
TORSDOF 11
ENDMDL
MODEL 9
REMARK VINA RESULT:      -6.3      6.377      9.242
REMARK  Name = 
REMARK  11 active torsions:
REMARK  status: ('A' for Active; 'I' for Inactive)
REMARK    1  A    between atoms: N_1  and  C_2
REMARK    2  A    between atoms: C_2  and  C_3
REMARK    3  A    between atoms: C_2  and  C_5
REMARK    4  A    between atoms: C_3  and  O_4
REMARK    5  A    between atoms: C_5  and  O_6
REMARK    6  A    between atoms: C_5  and  C_7
REMARK    7  A    between atoms: C_11  and  C_12
REMARK    8  A    between atoms: C_13  and  C_14
REMARK    9  A    between atoms: C_14  and  C_15
REMARK   10  A    between atoms: C_15  and  C_16
REMARK   11  A    between atoms: C_16  and  C_17
REMARK                            x       y       z     vdW  Elec       q    Type
REMARK                         _______ _______ _______ _____ _____    ______ ____
ROOT
ATOM      1  C   UNK     1       4.514   4.932  17.562  0.00  0.00    +0.000 A 
ATOM      2  C   UNK     1       4.643   4.328  16.310  0.00  0.00    +0.000 A 
ATOM      3  C   UNK     1       5.671   4.732  15.467  0.00  0.00    +0.000 A 
ATOM      4  C   UNK     1       6.566   5.699  15.907  0.00  0.00    +0.000 A 
ATOM      5  C   UNK     1       6.396   6.227  17.180  0.00  0.00    +0.000 A 
ATOM      6  N   UNK     1       5.386   5.880  18.013  0.00  0.00    +0.000 NA
ENDROOT
BRANCH   5   7
ATOM      7  C   UNK     1       7.338   7.170  17.697  0.00  0.00    +0.000 C 
ATOM      8  C   UNK     1       8.090   7.971  18.193  0.00  0.00    +0.000 C 
BRANCH   8   9
ATOM      9  C   UNK     1       8.972   8.961  18.833  0.00  0.00    +0.000 C 
BRANCH   9  10
ATOM     10  C   UNK     1       8.929  10.297  18.089  0.00  0.00    +0.000 C 
BRANCH  10  11
ATOM     11  C   UNK     1       9.096  11.487  19.039  0.00  0.00    +0.000 C 
BRANCH  11  12
ATOM     12  C   UNK     1      10.205  12.404  18.580  0.00  0.00    +0.000 A 
ATOM     13  C   UNK     1      10.390  12.678  17.218  0.00  0.00    +0.000 A 
ATOM     14  C   UNK     1      11.448  13.484  16.795  0.00  0.00    +0.000 A 
ATOM     15  C   UNK     1      12.332  14.024  17.727  0.00  0.00    +0.000 A 
ATOM     16  C   UNK     1      12.154  13.764  19.084  0.00  0.00    +0.000 A 
ATOM     17  C   UNK     1      11.096  12.958  19.510  0.00  0.00    +0.000 A 
ENDBRANCH  11  12
ENDBRANCH  10  11
ENDBRANCH   9  10
ENDBRANCH   8   9
ENDBRANCH   5   7
BRANCH   1  18
ATOM     18  C   UNK     1       3.360   4.546  18.476  0.00  0.00    +0.000 C 
BRANCH  18  19
ATOM     19  O   UNK     1       2.155   4.413  17.688  0.00  0.00    +0.000 OA
ATOM     20  H   UNK     1       2.131   5.218  17.130  0.00  0.00    +0.000 HD
ENDBRANCH  18  19
BRANCH  18  21
ATOM     21  C   UNK     1       3.578   3.190  19.211  0.00  0.00    +0.000 C 
BRANCH  21  22
ATOM     22  N   UNK     1       5.035   2.984  19.465  0.00  0.00    +0.000 NA
ATOM     23  H   UNK     1       5.546   3.071  18.587  0.00  0.00    +0.000 HD
ATOM     24  H   UNK     1       5.147   2.010  19.766  0.00  0.00    +0.000 HD
ENDBRANCH  21  22
BRANCH  21  25
ATOM     25  C   UNK     1       3.086   1.967  18.423  0.00  0.00    +0.000 C 
BRANCH  25  26
ATOM     26  O   UNK     1       1.709   1.732  18.708  0.00  0.00    +0.000 OA
ATOM     27  H   UNK     1       1.264   2.573  18.463  0.00  0.00    +0.000 HD
ENDBRANCH  25  26
ENDBRANCH  21  25
ENDBRANCH  18  21
ENDBRANCH   1  18
TORSDOF 11
ENDMDL
