MODEL 1
REMARK VINA RESULT:      -6.7      0.000      0.000
REMARK  Name = 
REMARK  13 active torsions:
REMARK  status: ('A' for Active; 'I' for Inactive)
REMARK    1  A    between atoms: C_1  and  C_2
REMARK    2  A    between atoms: C_2  and  C_3
REMARK    3  A    between atoms: C_3  and  C_4
REMARK    4  A    between atoms: C_4  and  C_5
REMARK    5  A    between atoms: C_5  and  C_6
REMARK    6  A    between atoms: C_6  and  C_7
REMARK    7  A    between atoms: C_7  and  C_8
REMARK    8  A    between atoms: N_10  and  C_11
REMARK    9  A    between atoms: C_12  and  O_13
REMARK   10  A    between atoms: C_15  and  C_16
REMARK   11  A    between atoms: C_16  and  O_17
REMARK   12  A    between atoms: C_18  and  O_19
REMARK   13  A    between atoms: C_20  and  O_21
REMARK                            x       y       z     vdW  Elec       q    Type
REMARK                         _______ _______ _______ _____ _____    ______ ____
ROOT
ATOM      1  C   UNL     1       4.039   3.993  17.922  0.00  0.00    +0.000 C 
ATOM      2  C   UNL     1       3.026   5.153  18.061  0.00  0.00    +0.000 C 
ATOM      3  O   UNL     1       2.270   5.004  19.256  0.00  0.00    +0.000 OA
ATOM      4  C   UNL     1       1.457   3.819  19.264  0.00  0.00    +0.000 C 
ATOM      5  C   UNL     1       2.314   2.549  19.113  0.00  0.00    +0.000 C 
ATOM      6  C   UNL     1       3.271   2.656  17.910  0.00  0.00    +0.000 C 
ENDROOT
BRANCH   1   9
ATOM      7  C   UNL     1       6.296   4.412  16.951  0.00  0.00    +0.000 C 
ATOM      8  O   UNL     1       6.831   4.485  18.050  0.00  0.00    +0.000 OA
ATOM      9  N   UNL     1       4.955   4.133  16.787  0.00  0.00    +0.000 N 
ATOM     10  H   UNL     1       4.555   4.208  15.864  0.00  0.00    +0.000 HD
BRANCH   7  11
ATOM     11  C   UNL     1       7.063   4.616  15.659  0.00  0.00    +0.000 C 
BRANCH  11  12
ATOM     12  C   UNL     1       6.371   4.024  14.434  0.00  0.00    +0.000 C 
BRANCH  12  13
ATOM     13  C   UNL     1       7.146   4.308  13.144  0.00  0.00    +0.000 C 
BRANCH  13  14
ATOM     14  C   UNL     1       6.430   3.717  11.933  0.00  0.00    +0.000 C 
BRANCH  14  15
ATOM     15  C   UNL     1       4.922   3.660  12.167  0.00  0.00    +0.000 C 
BRANCH  15  17
ATOM     16  C   UNL     1       3.332   3.860  10.233  0.00  0.00    +0.000 C 
ATOM     17  C   UNL     1       4.216   2.920  11.034  0.00  0.00    +0.000 C 
ENDBRANCH  15  17
ENDBRANCH  14  15
ENDBRANCH  13  14
ENDBRANCH  12  13
ENDBRANCH  11  12
ENDBRANCH   7  11
ENDBRANCH   1   9
BRANCH   2  18
ATOM     18  O   UNL     1       3.699   6.400  18.176  0.00  0.00    +0.000 OA
ATOM     19  H   UNL     1       4.539   6.202  18.619  0.00  0.00    +0.000 HD
ENDBRANCH   2  18
BRANCH   5  20
ATOM     20  O   UNL     1       1.470   1.401  18.986  0.00  0.00    +0.000 OA
ATOM     21  H   UNL     1       1.479   0.911  19.827  0.00  0.00    +0.000 HD
ENDBRANCH   5  20
BRANCH   6  22
ATOM     22  O   UNL     1       4.202   1.558  17.904  0.00  0.00    +0.000 OA
ATOM     23  H   UNL     1       4.207   1.159  17.017  0.00  0.00    +0.000 HD
ENDBRANCH   6  22
BRANCH   4  24
ATOM     24  C   UNL     1       0.726   3.825  20.617  0.00  0.00    +0.000 C 
BRANCH  24  25
ATOM     25  O   UNL     1       1.049   2.637  21.347  0.00  0.00    +0.000 OA
ATOM     26  H   UNL     1       0.509   1.932  20.942  0.00  0.00    +0.000 HD
ENDBRANCH  24  25
ENDBRANCH   4  24
TORSDOF 12
ENDMDL
MODEL 2
REMARK VINA RESULT:      -6.7      1.575      1.974
REMARK  Name = 
REMARK  13 active torsions:
REMARK  status: ('A' for Active; 'I' for Inactive)
REMARK    1  A    between atoms: C_1  and  C_2
REMARK    2  A    between atoms: C_2  and  C_3
REMARK    3  A    between atoms: C_3  and  C_4
REMARK    4  A    between atoms: C_4  and  C_5
REMARK    5  A    between atoms: C_5  and  C_6
REMARK    6  A    between atoms: C_6  and  C_7
REMARK    7  A    between atoms: C_7  and  C_8
REMARK    8  A    between atoms: N_10  and  C_11
REMARK    9  A    between atoms: C_12  and  O_13
REMARK   10  A    between atoms: C_15  and  C_16
REMARK   11  A    between atoms: C_16  and  O_17
REMARK   12  A    between atoms: C_18  and  O_19
REMARK   13  A    between atoms: C_20  and  O_21
REMARK                            x       y       z     vdW  Elec       q    Type
REMARK                         _______ _______ _______ _____ _____    ______ ____
ROOT
ATOM      1  C   UNL     1       3.585   4.171  18.133  0.00  0.00    +0.000 C 
ATOM      2  C   UNL     1       2.158   3.585  18.018  0.00  0.00    +0.000 C 
ATOM      3  O   UNL     1       1.582   3.439  19.311  0.00  0.00    +0.000 OA
ATOM      4  C   UNL     1       2.288   2.500  20.139  0.00  0.00    +0.000 C 
ATOM      5  C   UNL     1       3.753   2.924  20.346  0.00  0.00    +0.000 C 
ATOM      6  C   UNL     1       4.445   3.233  19.003  0.00  0.00    +0.000 C 
ENDROOT
BRANCH   1   9
ATOM      7  C   UNL     1       4.945   5.629  16.638  0.00  0.00    +0.000 C 
ATOM      8  O   UNL     1       5.196   6.428  17.531  0.00  0.00    +0.000 OA
ATOM      9  N   UNL     1       4.208   4.482  16.844  0.00  0.00    +0.000 N 
ATOM     10  H   UNL     1       3.934   3.933  16.043  0.00  0.00    +0.000 HD
BRANCH   7  11
ATOM     11  C   UNL     1       5.428   5.824  15.214  0.00  0.00    +0.000 C 
BRANCH  11  12
ATOM     12  C   UNL     1       6.715   5.069  14.893  0.00  0.00    +0.000 C 
BRANCH  12  13
ATOM     13  C   UNL     1       6.441   3.751  14.163  0.00  0.00    +0.000 C 
BRANCH  13  14
ATOM     14  C   UNL     1       6.289   3.977  12.661  0.00  0.00    +0.000 C 
BRANCH  14  15
ATOM     15  C   UNL     1       6.516   2.678  11.891  0.00  0.00    +0.000 C 
BRANCH  15  17
ATOM     16  C   UNL     1       4.147   3.226  11.261  0.00  0.00    +0.000 C 
ATOM     17  C   UNL     1       5.206   2.139  11.323  0.00  0.00    +0.000 C 
ENDBRANCH  15  17
ENDBRANCH  14  15
ENDBRANCH  13  14
ENDBRANCH  12  13
ENDBRANCH  11  12
ENDBRANCH   7  11
ENDBRANCH   1   9
BRANCH   2  18
ATOM     18  O   UNL     1       1.304   4.470  17.306  0.00  0.00    +0.000 OA
ATOM     19  H   UNL     1       0.797   4.943  17.984  0.00  0.00    +0.000 HD
ENDBRANCH   2  18
BRANCH   5  20
ATOM     20  O   UNL     1       4.463   1.904  21.056  0.00  0.00    +0.000 OA
ATOM     21  H   UNL     1       4.050   1.043  20.862  0.00  0.00    +0.000 HD
ENDBRANCH   5  20
BRANCH   6  22
ATOM     22  O   UNL     1       5.739   3.820  19.223  0.00  0.00    +0.000 OA
ATOM     23  H   UNL     1       6.311   3.162  19.653  0.00  0.00    +0.000 HD
ENDBRANCH   6  22
BRANCH   4  24
ATOM     24  C   UNL     1       1.533   2.478  21.479  0.00  0.00    +0.000 C 
BRANCH  24  25
ATOM     25  O   UNL     1       2.261   3.229  22.456  0.00  0.00    +0.000 OA
ATOM     26  H   UNL     1       1.729   3.171  23.272  0.00  0.00    +0.000 HD
ENDBRANCH  24  25
ENDBRANCH   4  24
TORSDOF 12
ENDMDL
MODEL 3
REMARK VINA RESULT:      -6.7      1.323      2.462
REMARK  Name = 
REMARK  13 active torsions:
REMARK  status: ('A' for Active; 'I' for Inactive)
REMARK    1  A    between atoms: C_1  and  C_2
REMARK    2  A    between atoms: C_2  and  C_3
REMARK    3  A    between atoms: C_3  and  C_4
REMARK    4  A    between atoms: C_4  and  C_5
REMARK    5  A    between atoms: C_5  and  C_6
REMARK    6  A    between atoms: C_6  and  C_7
REMARK    7  A    between atoms: C_7  and  C_8
REMARK    8  A    between atoms: N_10  and  C_11
REMARK    9  A    between atoms: C_12  and  O_13
REMARK   10  A    between atoms: C_15  and  C_16
REMARK   11  A    between atoms: C_16  and  O_17
REMARK   12  A    between atoms: C_18  and  O_19
REMARK   13  A    between atoms: C_20  and  O_21
REMARK                            x       y       z     vdW  Elec       q    Type
REMARK                         _______ _______ _______ _____ _____    ______ ____
ROOT
ATOM      1  C   UNL     1       4.266   3.658  18.228  0.00  0.00    +0.000 C 
ATOM      2  C   UNL     1       4.141   2.356  19.053  0.00  0.00    +0.000 C 
ATOM      3  O   UNL     1       2.857   2.282  19.662  0.00  0.00    +0.000 OA
ATOM      4  C   UNL     1       2.626   3.331  20.616  0.00  0.00    +0.000 C 
ATOM      5  C   UNL     1       2.733   4.721  19.961  0.00  0.00    +0.000 C 
ATOM      6  C   UNL     1       4.042   4.866  19.161  0.00  0.00    +0.000 C 
ENDROOT
BRANCH   1   9
ATOM      7  C   UNL     1       5.585   4.465  16.274  0.00  0.00    +0.000 C 
ATOM      8  O   UNL     1       4.653   5.121  15.828  0.00  0.00    +0.000 OA
ATOM      9  N   UNL     1       5.507   3.758  17.455  0.00  0.00    +0.000 N 
ATOM     10  H   UNL     1       6.267   3.142  17.702  0.00  0.00    +0.000 HD
BRANCH   7  11
ATOM     11  C   UNL     1       6.925   4.373  15.569  0.00  0.00    +0.000 C 
BRANCH  11  12
ATOM     12  C   UNL     1       6.867   4.738  14.088  0.00  0.00    +0.000 C 
BRANCH  12  13
ATOM     13  C   UNL     1       6.381   3.569  13.228  0.00  0.00    +0.000 C 
BRANCH  13  14
ATOM     14  C   UNL     1       5.015   3.869  12.615  0.00  0.00    +0.000 C 
BRANCH  14  15
ATOM     15  C   UNL     1       4.794   3.043  11.350  0.00  0.00    +0.000 C 
BRANCH  15  17
ATOM     16  C   UNL     1       3.125   3.996   9.732  0.00  0.00    +0.000 C 
ATOM     17  C   UNL     1       3.330   3.074  10.922  0.00  0.00    +0.000 C 
ENDBRANCH  15  17
ENDBRANCH  14  15
ENDBRANCH  13  14
ENDBRANCH  12  13
ENDBRANCH  11  12
ENDBRANCH   7  11
ENDBRANCH   1   9
BRANCH   2  18
ATOM     18  O   UNL     1       4.242   1.214  18.212  0.00  0.00    +0.000 OA
ATOM     19  H   UNL     1       4.018   1.527  17.322  0.00  0.00    +0.000 HD
ENDBRANCH   2  18
BRANCH   5  20
ATOM     20  O   UNL     1       2.635   5.742  20.958  0.00  0.00    +0.000 OA
ATOM     21  H   UNL     1       2.805   6.605  20.540  0.00  0.00    +0.000 HD
ENDBRANCH   5  20
BRANCH   6  22
ATOM     22  O   UNL     1       4.034   6.082  18.392  0.00  0.00    +0.000 OA
ATOM     23  H   UNL     1       4.429   6.791  18.926  0.00  0.00    +0.000 HD
ENDBRANCH   6  22
BRANCH   4  24
ATOM     24  C   UNL     1       1.207   3.094  21.160  0.00  0.00    +0.000 C 
BRANCH  24  25
ATOM     25  O   UNL     1       1.267   2.265  22.325  0.00  0.00    +0.000 OA
ATOM     26  H   UNL     1       0.681   2.693  22.976  0.00  0.00    +0.000 HD
ENDBRANCH  24  25
ENDBRANCH   4  24
TORSDOF 12
ENDMDL
MODEL 4
REMARK VINA RESULT:      -6.6      0.912      1.261
REMARK  Name = 
REMARK  13 active torsions:
REMARK  status: ('A' for Active; 'I' for Inactive)
REMARK    1  A    between atoms: C_1  and  C_2
REMARK    2  A    between atoms: C_2  and  C_3
REMARK    3  A    between atoms: C_3  and  C_4
REMARK    4  A    between atoms: C_4  and  C_5
REMARK    5  A    between atoms: C_5  and  C_6
REMARK    6  A    between atoms: C_6  and  C_7
REMARK    7  A    between atoms: C_7  and  C_8
REMARK    8  A    between atoms: N_10  and  C_11
REMARK    9  A    between atoms: C_12  and  O_13
REMARK   10  A    between atoms: C_15  and  C_16
REMARK   11  A    between atoms: C_16  and  O_17
REMARK   12  A    between atoms: C_18  and  O_19
REMARK   13  A    between atoms: C_20  and  O_21
REMARK                            x       y       z     vdW  Elec       q    Type
REMARK                         _______ _______ _______ _____ _____    ______ ____
ROOT
ATOM      1  C   UNL     1       4.236   3.772  18.115  0.00  0.00    +0.000 C 
ATOM      2  C   UNL     1       3.338   5.027  18.208  0.00  0.00    +0.000 C 
ATOM      3  O   UNL     1       2.436   4.906  19.301  0.00  0.00    +0.000 OA
ATOM      4  C   UNL     1       1.511   3.817  19.149  0.00  0.00    +0.000 C 
ATOM      5  C   UNL     1       2.245   2.469  19.022  0.00  0.00    +0.000 C 
ATOM      6  C   UNL     1       3.343   2.527  17.941  0.00  0.00    +0.000 C 
ENDROOT
BRANCH   1   9
ATOM      7  C   UNL     1       6.543   4.362  17.381  0.00  0.00    +0.000 C 
ATOM      8  O   UNL     1       6.893   4.689  18.508  0.00  0.00    +0.000 OA
ATOM      9  N   UNL     1       5.289   3.864  17.100  0.00  0.00    +0.000 N 
ATOM     10  H   UNL     1       5.026   3.730  16.135  0.00  0.00    +0.000 HD
BRANCH   7  11
ATOM     11  C   UNL     1       7.465   4.469  16.182  0.00  0.00    +0.000 C 
BRANCH  11  12
ATOM     12  C   UNL     1       6.906   5.328  15.051  0.00  0.00    +0.000 C 
BRANCH  12  13
ATOM     13  C   UNL     1       6.993   4.621  13.696  0.00  0.00    +0.000 C 
BRANCH  13  14
ATOM     14  C   UNL     1       5.829   3.652  13.507  0.00  0.00    +0.000 C 
BRANCH  14  15
ATOM     15  C   UNL     1       5.654   3.294  12.033  0.00  0.00    +0.000 C 
BRANCH  15  17
ATOM     16  C   UNL     1       6.353   1.063  11.112  0.00  0.00    +0.000 C 
ATOM     17  C   UNL     1       6.820   2.447  11.530  0.00  0.00    +0.000 C 
ENDBRANCH  15  17
ENDBRANCH  14  15
ENDBRANCH  13  14
ENDBRANCH  12  13
ENDBRANCH  11  12
ENDBRANCH   7  11
ENDBRANCH   1   9
BRANCH   2  18
ATOM     18  O   UNL     1       4.117   6.187  18.469  0.00  0.00    +0.000 OA
ATOM     19  H   UNL     1       5.029   5.943  18.249  0.00  0.00    +0.000 HD
ENDBRANCH   2  18
BRANCH   5  20
ATOM     20  O   UNL     1       1.309   1.426  18.734  0.00  0.00    +0.000 OA
ATOM     21  H   UNL     1       1.743   0.567  18.881  0.00  0.00    +0.000 HD
ENDBRANCH   5  20
BRANCH   6  22
ATOM     22  O   UNL     1       4.150   1.337  17.974  0.00  0.00    +0.000 OA
ATOM     23  H   UNL     1       4.674   1.292  17.156  0.00  0.00    +0.000 HD
ENDBRANCH   6  22
BRANCH   4  24
ATOM     24  C   UNL     1       0.631   3.839  20.411  0.00  0.00    +0.000 C 
BRANCH  24  25
ATOM     25  O   UNL     1       0.995   2.757  21.274  0.00  0.00    +0.000 OA
ATOM     26  H   UNL     1       0.932   1.956  20.721  0.00  0.00    +0.000 HD
ENDBRANCH  24  25
ENDBRANCH   4  24
TORSDOF 12
ENDMDL
MODEL 5
REMARK VINA RESULT:      -6.5      1.326      1.624
REMARK  Name = 
REMARK  13 active torsions:
REMARK  status: ('A' for Active; 'I' for Inactive)
REMARK    1  A    between atoms: C_1  and  C_2
REMARK    2  A    between atoms: C_2  and  C_3
REMARK    3  A    between atoms: C_3  and  C_4
REMARK    4  A    between atoms: C_4  and  C_5
REMARK    5  A    between atoms: C_5  and  C_6
REMARK    6  A    between atoms: C_6  and  C_7
REMARK    7  A    between atoms: C_7  and  C_8
REMARK    8  A    between atoms: N_10  and  C_11
REMARK    9  A    between atoms: C_12  and  O_13
REMARK   10  A    between atoms: C_15  and  C_16
REMARK   11  A    between atoms: C_16  and  O_17
REMARK   12  A    between atoms: C_18  and  O_19
REMARK   13  A    between atoms: C_20  and  O_21
REMARK                            x       y       z     vdW  Elec       q    Type
REMARK                         _______ _______ _______ _____ _____    ______ ____
ROOT
ATOM      1  C   UNL     1       4.539   3.703  17.937  0.00  0.00    +0.000 C 
ATOM      2  C   UNL     1       3.818   4.999  18.374  0.00  0.00    +0.000 C 
ATOM      3  O   UNL     1       3.342   4.871  19.708  0.00  0.00    +0.000 OA
ATOM      4  C   UNL     1       2.348   3.844  19.855  0.00  0.00    +0.000 C 
ATOM      5  C   UNL     1       2.897   2.467  19.439  0.00  0.00    +0.000 C 
ATOM      6  C   UNL     1       3.556   2.521  18.047  0.00  0.00    +0.000 C 
ENDROOT
BRANCH   1   9
ATOM      7  C   UNL     1       6.473   4.245  16.460  0.00  0.00    +0.000 C 
ATOM      8  O   UNL     1       7.200   4.532  17.402  0.00  0.00    +0.000 OA
ATOM      9  N   UNL     1       5.181   3.791  16.622  0.00  0.00    +0.000 N 
ATOM     10  H   UNL     1       4.597   3.690  15.805  0.00  0.00    +0.000 HD
BRANCH   7  11
ATOM     11  C   UNL     1       6.928   4.355  15.018  0.00  0.00    +0.000 C 
BRANCH  11  12
ATOM     12  C   UNL     1       5.789   4.582  14.029  0.00  0.00    +0.000 C 
BRANCH  12  13
ATOM     13  C   UNL     1       5.674   3.442  13.014  0.00  0.00    +0.000 C 
BRANCH  13  14
ATOM     14  C   UNL     1       6.751   3.555  11.938  0.00  0.00    +0.000 C 
BRANCH  14  15
ATOM     15  C   UNL     1       7.239   2.172  11.510  0.00  0.00    +0.000 C 
BRANCH  15  17
ATOM     16  C   UNL     1       6.184  -0.104  11.383  0.00  0.00    +0.000 C 
ATOM     17  C   UNL     1       6.098   1.342  10.928  0.00  0.00    +0.000 C 
ENDBRANCH  15  17
ENDBRANCH  14  15
ENDBRANCH  13  14
ENDBRANCH  12  13
ENDBRANCH  11  12
ENDBRANCH   7  11
ENDBRANCH   1   9
BRANCH   2  18
ATOM     18  O   UNL     1       4.718   6.100  18.383  0.00  0.00    +0.000 OA
ATOM     19  H   UNL     1       5.461   5.832  17.820  0.00  0.00    +0.000 HD
ENDBRANCH   2  18
BRANCH   5  20
ATOM     20  O   UNL     1       1.849   1.493  19.464  0.00  0.00    +0.000 OA
ATOM     21  H   UNL     1       2.163   0.708  19.946  0.00  0.00    +0.000 HD
ENDBRANCH   5  20
BRANCH   6  22
ATOM     22  O   UNL     1       4.240   1.288  17.761  0.00  0.00    +0.000 OA
ATOM     23  H   UNL     1       5.172   1.486  17.566  0.00  0.00    +0.000 HD
ENDBRANCH   6  22
BRANCH   4  24
ATOM     24  C   UNL     1       1.961   3.849  21.343  0.00  0.00    +0.000 C 
BRANCH  24  25
ATOM     25  O   UNL     1       2.595   2.753  22.011  0.00  0.00    +0.000 OA
ATOM     26  H   UNL     1       3.030   2.239  21.306  0.00  0.00    +0.000 HD
ENDBRANCH  24  25
ENDBRANCH   4  24
TORSDOF 12
ENDMDL
MODEL 6
REMARK VINA RESULT:      -6.5      1.514      1.835
REMARK  Name = 
REMARK  13 active torsions:
REMARK  status: ('A' for Active; 'I' for Inactive)
REMARK    1  A    between atoms: C_1  and  C_2
REMARK    2  A    between atoms: C_2  and  C_3
REMARK    3  A    between atoms: C_3  and  C_4
REMARK    4  A    between atoms: C_4  and  C_5
REMARK    5  A    between atoms: C_5  and  C_6
REMARK    6  A    between atoms: C_6  and  C_7
REMARK    7  A    between atoms: C_7  and  C_8
REMARK    8  A    between atoms: N_10  and  C_11
REMARK    9  A    between atoms: C_12  and  O_13
REMARK   10  A    between atoms: C_15  and  C_16
REMARK   11  A    between atoms: C_16  and  O_17
REMARK   12  A    between atoms: C_18  and  O_19
REMARK   13  A    between atoms: C_20  and  O_21
REMARK                            x       y       z     vdW  Elec       q    Type
REMARK                         _______ _______ _______ _____ _____    ______ ____
ROOT
ATOM      1  C   UNL     1       3.703   4.074  17.852  0.00  0.00    +0.000 C 
ATOM      2  C   UNL     1       2.229   3.608  17.906  0.00  0.00    +0.000 C 
ATOM      3  O   UNL     1       1.740   3.680  19.240  0.00  0.00    +0.000 OA
ATOM      4  C   UNL     1       2.426   2.795  20.140  0.00  0.00    +0.000 C 
ATOM      5  C   UNL     1       3.932   3.108  20.197  0.00  0.00    +0.000 C 
ATOM      6  C   UNL     1       4.546   3.180  18.785  0.00  0.00    +0.000 C 
ENDROOT
BRANCH   1   9
ATOM      7  C   UNL     1       5.133   5.153  16.120  0.00  0.00    +0.000 C 
ATOM      8  O   UNL     1       5.578   5.981  16.905  0.00  0.00    +0.000 OA
ATOM      9  N   UNL     1       4.252   4.161  16.497  0.00  0.00    +0.000 N 
ATOM     10  H   UNL     1       3.831   3.590  15.779  0.00  0.00    +0.000 HD
BRANCH   7  11
ATOM     11  C   UNL     1       5.516   5.135  14.653  0.00  0.00    +0.000 C 
BRANCH  11  12
ATOM     12  C   UNL     1       5.861   3.745  14.124  0.00  0.00    +0.000 C 
BRANCH  12  13
ATOM     13  C   UNL     1       6.358   3.789  12.677  0.00  0.00    +0.000 C 
BRANCH  13  14
ATOM     14  C   UNL     1       5.769   2.641  11.860  0.00  0.00    +0.000 C 
BRANCH  14  15
ATOM     15  C   UNL     1       4.280   2.864  11.605  0.00  0.00    +0.000 C 
BRANCH  15  17
ATOM     16  C   UNL     1       2.940   3.817   9.707  0.00  0.00    +0.000 C 
ATOM     17  C   UNL     1       4.050   4.078  10.709  0.00  0.00    +0.000 C 
ENDBRANCH  15  17
ENDBRANCH  14  15
ENDBRANCH  13  14
ENDBRANCH  12  13
ENDBRANCH  11  12
ENDBRANCH   7  11
ENDBRANCH   1   9
BRANCH   2  18
ATOM     18  O   UNL     1       1.399   4.468  17.137  0.00  0.00    +0.000 OA
ATOM     19  H   UNL     1       1.192   3.974  16.328  0.00  0.00    +0.000 HD
ENDBRANCH   2  18
BRANCH   5  20
ATOM     20  O   UNL     1       4.607   2.127  20.990  0.00  0.00    +0.000 OA
ATOM     21  H   UNL     1       4.396   2.284  21.928  0.00  0.00    +0.000 HD
ENDBRANCH   5  20
BRANCH   6  22
ATOM     22  O   UNL     1       5.896   3.673  18.843  0.00  0.00    +0.000 OA
ATOM     23  H   UNL     1       6.084   4.164  18.026  0.00  0.00    +0.000 HD
ENDBRANCH   6  22
BRANCH   4  24
ATOM     24  C   UNL     1       1.773   3.011  21.515  0.00  0.00    +0.000 C 
BRANCH  24  25
ATOM     25  O   UNL     1       1.911   1.828  22.308  0.00  0.00    +0.000 OA
ATOM     26  H   UNL     1       2.865   1.754  22.496  0.00  0.00    +0.000 HD
ENDBRANCH  24  25
ENDBRANCH   4  24
TORSDOF 12
ENDMDL
MODEL 7
REMARK VINA RESULT:      -6.4      1.464      2.688
REMARK  Name = 
REMARK  13 active torsions:
REMARK  status: ('A' for Active; 'I' for Inactive)
REMARK    1  A    between atoms: C_1  and  C_2
REMARK    2  A    between atoms: C_2  and  C_3
REMARK    3  A    between atoms: C_3  and  C_4
REMARK    4  A    between atoms: C_4  and  C_5
REMARK    5  A    between atoms: C_5  and  C_6
REMARK    6  A    between atoms: C_6  and  C_7
REMARK    7  A    between atoms: C_7  and  C_8
REMARK    8  A    between atoms: N_10  and  C_11
REMARK    9  A    between atoms: C_12  and  O_13
REMARK   10  A    between atoms: C_15  and  C_16
REMARK   11  A    between atoms: C_16  and  O_17
REMARK   12  A    between atoms: C_18  and  O_19
REMARK   13  A    between atoms: C_20  and  O_21
REMARK                            x       y       z     vdW  Elec       q    Type
REMARK                         _______ _______ _______ _____ _____    ______ ____
ROOT
ATOM      1  C   UNL     1       4.257   3.797  18.293  0.00  0.00    +0.000 C 
ATOM      2  C   UNL     1       4.072   2.401  18.932  0.00  0.00    +0.000 C 
ATOM      3  O   UNL     1       2.768   2.283  19.486  0.00  0.00    +0.000 OA
ATOM      4  C   UNL     1       2.528   3.203  20.564  0.00  0.00    +0.000 C 
ATOM      5  C   UNL     1       2.690   4.663  20.103  0.00  0.00    +0.000 C 
ATOM      6  C   UNL     1       4.029   4.876  19.370  0.00  0.00    +0.000 C 
ENDROOT
BRANCH   1   9
ATOM      7  C   UNL     1       5.666   4.831  16.516  0.00  0.00    +0.000 C 
ATOM      8  O   UNL     1       4.770   5.578  16.144  0.00  0.00    +0.000 OA
ATOM      9  N   UNL     1       5.525   3.963  17.578  0.00  0.00    +0.000 N 
ATOM     10  H   UNL     1       6.258   3.292  17.755  0.00  0.00    +0.000 HD
BRANCH   7  11
ATOM     11  C   UNL     1       7.025   4.795  15.845  0.00  0.00    +0.000 C 
BRANCH  11  12
ATOM     12  C   UNL     1       6.958   4.790  14.320  0.00  0.00    +0.000 C 
BRANCH  12  13
ATOM     13  C   UNL     1       5.981   3.736  13.792  0.00  0.00    +0.000 C 
BRANCH  13  14
ATOM     14  C   UNL     1       6.113   3.576  12.279  0.00  0.00    +0.000 C 
BRANCH  14  15
ATOM     15  C   UNL     1       5.266   2.407  11.781  0.00  0.00    +0.000 C 
BRANCH  15  17
ATOM     16  C   UNL     1       7.548   1.819  10.910  0.00  0.00    +0.000 C 
ATOM     17  C   UNL     1       6.141   1.313  11.175  0.00  0.00    +0.000 C 
ENDBRANCH  15  17
ENDBRANCH  14  15
ENDBRANCH  13  14
ENDBRANCH  12  13
ENDBRANCH  11  12
ENDBRANCH   7  11
ENDBRANCH   1   9
BRANCH   2  18
ATOM     18  O   UNL     1       4.176   1.378  17.951  0.00  0.00    +0.000 OA
ATOM     19  H   UNL     1       5.123   1.185  17.876  0.00  0.00    +0.000 HD
ENDBRANCH   2  18
BRANCH   5  20
ATOM     20  O   UNL     1       2.582   5.546  21.224  0.00  0.00    +0.000 OA
ATOM     21  H   UNL     1       3.472   5.702  21.586  0.00  0.00    +0.000 HD
ENDBRANCH   5  20
BRANCH   6  22
ATOM     22  O   UNL     1       4.076   6.183  18.770  0.00  0.00    +0.000 OA
ATOM     23  H   UNL     1       3.166   6.504  18.649  0.00  0.00    +0.000 HD
ENDBRANCH   6  22
BRANCH   4  24
ATOM     24  C   UNL     1       1.086   2.935  21.027  0.00  0.00    +0.000 C 
BRANCH  24  25
ATOM     25  O   UNL     1       1.100   2.269  22.293  0.00  0.00    +0.000 OA
ATOM     26  H   UNL     1       0.204   1.899  22.399  0.00  0.00    +0.000 HD
ENDBRANCH  24  25
ENDBRANCH   4  24
TORSDOF 12
ENDMDL
MODEL 8
REMARK VINA RESULT:      -6.4      3.958      5.731
REMARK  Name = 
REMARK  13 active torsions:
REMARK  status: ('A' for Active; 'I' for Inactive)
REMARK    1  A    between atoms: C_1  and  C_2
REMARK    2  A    between atoms: C_2  and  C_3
REMARK    3  A    between atoms: C_3  and  C_4
REMARK    4  A    between atoms: C_4  and  C_5
REMARK    5  A    between atoms: C_5  and  C_6
REMARK    6  A    between atoms: C_6  and  C_7
REMARK    7  A    between atoms: C_7  and  C_8
REMARK    8  A    between atoms: N_10  and  C_11
REMARK    9  A    between atoms: C_12  and  O_13
REMARK   10  A    between atoms: C_15  and  C_16
REMARK   11  A    between atoms: C_16  and  O_17
REMARK   12  A    between atoms: C_18  and  O_19
REMARK   13  A    between atoms: C_20  and  O_21
REMARK                            x       y       z     vdW  Elec       q    Type
REMARK                         _______ _______ _______ _____ _____    ______ ____
ROOT
ATOM      1  C   UNL     1       4.009   4.957  19.066  0.00  0.00    +0.000 C 
ATOM      2  C   UNL     1       2.690   5.583  19.577  0.00  0.00    +0.000 C 
ATOM      3  O   UNL     1       2.059   4.708  20.504  0.00  0.00    +0.000 OA
ATOM      4  C   UNL     1       1.656   3.460  19.917  0.00  0.00    +0.000 C 
ATOM      5  C   UNL     1       2.861   2.701  19.331  0.00  0.00    +0.000 C 
ATOM      6  C   UNL     1       3.696   3.602  18.401  0.00  0.00    +0.000 C 
ENDROOT
BRANCH   1   9
ATOM      7  C   UNL     1       6.167   5.954  18.319  0.00  0.00    +0.000 C 
ATOM      8  O   UNL     1       6.830   5.265  19.084  0.00  0.00    +0.000 OA
ATOM      9  N   UNL     1       4.797   5.845  18.207  0.00  0.00    +0.000 N 
ATOM     10  H   UNL     1       4.302   6.524  17.649  0.00  0.00    +0.000 HD
BRANCH   7  11
ATOM     11  C   UNL     1       6.796   6.993  17.410  0.00  0.00    +0.000 C 
BRANCH  11  12
ATOM     12  C   UNL     1       8.049   7.641  17.992  0.00  0.00    +0.000 C 
BRANCH  12  13
ATOM     13  C   UNL     1       8.063   9.157  17.780  0.00  0.00    +0.000 C 
BRANCH  13  14
ATOM     14  C   UNL     1       8.970   9.845  18.797  0.00  0.00    +0.000 C 
BRANCH  14  15
ATOM     15  C   UNL     1       9.229  11.297  18.399  0.00  0.00    +0.000 C 
BRANCH  15  17
ATOM     16  C   UNL     1      11.368  12.613  18.444  0.00  0.00    +0.000 C 
ATOM     17  C   UNL     1      10.621  11.462  17.795  0.00  0.00    +0.000 C 
ENDBRANCH  15  17
ENDBRANCH  14  15
ENDBRANCH  13  14
ENDBRANCH  12  13
ENDBRANCH  11  12
ENDBRANCH   7  11
ENDBRANCH   1   9
BRANCH   2  18
ATOM     18  O   UNL     1       2.945   6.789  20.286  0.00  0.00    +0.000 OA
ATOM     19  H   UNL     1       3.359   6.517  21.120  0.00  0.00    +0.000 HD
ENDBRANCH   2  18
BRANCH   5  20
ATOM     20  O   UNL     1       2.413   1.534  18.634  0.00  0.00    +0.000 OA
ATOM     21  H   UNL     1       2.641   0.748  19.161  0.00  0.00    +0.000 HD
ENDBRANCH   5  20
BRANCH   6  22
ATOM     22  O   UNL     1       4.922   2.947  18.027  0.00  0.00    +0.000 OA
ATOM     23  H   UNL     1       5.286   3.392  17.244  0.00  0.00    +0.000 HD
ENDBRANCH   6  22
BRANCH   4  24
ATOM     24  C   UNL     1       1.006   2.655  21.054  0.00  0.00    +0.000 C 
BRANCH  24  25
ATOM     25  O   UNL     1       1.761   2.823  22.258  0.00  0.00    +0.000 OA
ATOM     26  H   UNL     1       2.138   1.944  22.450  0.00  0.00    +0.000 HD
ENDBRANCH  24  25
ENDBRANCH   4  24
TORSDOF 12
ENDMDL
MODEL 9
REMARK VINA RESULT:      -6.4      1.100      1.308
REMARK  Name = 
REMARK  13 active torsions:
REMARK  status: ('A' for Active; 'I' for Inactive)
REMARK    1  A    between atoms: C_1  and  C_2
REMARK    2  A    between atoms: C_2  and  C_3
REMARK    3  A    between atoms: C_3  and  C_4
REMARK    4  A    between atoms: C_4  and  C_5
REMARK    5  A    between atoms: C_5  and  C_6
REMARK    6  A    between atoms: C_6  and  C_7
REMARK    7  A    between atoms: C_7  and  C_8
REMARK    8  A    between atoms: N_10  and  C_11
REMARK    9  A    between atoms: C_12  and  O_13
REMARK   10  A    between atoms: C_15  and  C_16
REMARK   11  A    between atoms: C_16  and  O_17
REMARK   12  A    between atoms: C_18  and  O_19
REMARK   13  A    between atoms: C_20  and  O_21
REMARK                            x       y       z     vdW  Elec       q    Type
REMARK                         _______ _______ _______ _____ _____    ______ ____
ROOT
ATOM      1  C   UNL     1       4.073   4.487  18.788  0.00  0.00    +0.000 C 
ATOM      2  C   UNL     1       2.964   5.320  19.473  0.00  0.00    +0.000 C 
ATOM      3  O   UNL     1       2.392   4.587  20.549  0.00  0.00    +0.000 OA
ATOM      4  C   UNL     1       1.724   3.388  20.122  0.00  0.00    +0.000 C 
ATOM      5  C   UNL     1       2.690   2.436  19.393  0.00  0.00    +0.000 C 
ATOM      6  C   UNL     1       3.464   3.165  18.277  0.00  0.00    +0.000 C 
ENDROOT
BRANCH   1   9
ATOM      7  C   UNL     1       6.176   5.090  17.596  0.00  0.00    +0.000 C 
ATOM      8  O   UNL     1       6.854   4.314  18.255  0.00  0.00    +0.000 OA
ATOM      9  N   UNL     1       4.811   5.212  17.752  0.00  0.00    +0.000 N 
ATOM     10  H   UNL     1       4.333   5.955  17.264  0.00  0.00    +0.000 HD
BRANCH   7  11
ATOM     11  C   UNL     1       6.774   5.992  16.533  0.00  0.00    +0.000 C 
BRANCH  11  12
ATOM     12  C   UNL     1       7.042   5.285  15.207  0.00  0.00    +0.000 C 
BRANCH  12  13
ATOM     13  C   UNL     1       5.789   4.596  14.660  0.00  0.00    +0.000 C 
BRANCH  13  14
ATOM     14  C   UNL     1       6.157   3.377  13.819  0.00  0.00    +0.000 C 
BRANCH  14  15
ATOM     15  C   UNL     1       6.064   3.698  12.329  0.00  0.00    +0.000 C 
BRANCH  15  17
ATOM     16  C   UNL     1       3.971   3.300  10.998  0.00  0.00    +0.000 C 
ATOM     17  C   UNL     1       5.214   2.664  11.595  0.00  0.00    +0.000 C 
ENDBRANCH  15  17
ENDBRANCH  14  15
ENDBRANCH  13  14
ENDBRANCH  12  13
ENDBRANCH  11  12
ENDBRANCH   7  11
ENDBRANCH   1   9
BRANCH   2  18
ATOM     18  O   UNL     1       3.503   6.503  20.047  0.00  0.00    +0.000 OA
ATOM     19  H   UNL     1       2.737   7.047  20.289  0.00  0.00    +0.000 HD
ENDBRANCH   2  18
BRANCH   5  20
ATOM     20  O   UNL     1       1.969   1.320  18.861  0.00  0.00    +0.000 OA
ATOM     21  H   UNL     1       2.279   1.152  17.953  0.00  0.00    +0.000 HD
ENDBRANCH   5  20
BRANCH   6  22
ATOM     22  O   UNL     1       4.501   2.323  17.746  0.00  0.00    +0.000 OA
ATOM     23  H   UNL     1       4.842   2.725  16.929  0.00  0.00    +0.000 HD
ENDBRANCH   6  22
BRANCH   4  24
ATOM     24  C   UNL     1       1.181   2.735  21.404  0.00  0.00    +0.000 C 
BRANCH  24  25
ATOM     25  O   UNL     1       2.256   2.495  22.318  0.00  0.00    +0.000 OA
ATOM     26  H   UNL     1       3.043   2.888  21.897  0.00  0.00    +0.000 HD
ENDBRANCH  24  25
ENDBRANCH   4  24
TORSDOF 12
ENDMDL
