MODEL 1
REMARK VINA RESULT:      -9.4      0.000      0.000
REMARK  Name = 
REMARK  9 active torsions:
REMARK  status: ('A' for Active; 'I' for Inactive)
REMARK    1  A    between atoms: C_1  and  O_2
REMARK    2  A    between atoms: O_2  and  C_3
REMARK    3  A    between atoms: N_13  and  C_14
REMARK    4  A    between atoms: C_14  and  C_15
REMARK    5  A    between atoms: C_15  and  C_16
REMARK    6  A    between atoms: C_16  and  C_17
REMARK    7  A    between atoms: C_17  and  N_18
REMARK    8  A    between atoms: C_19  and  C_21
REMARK    9  A    between atoms: C_25  and  C_26
REMARK                            x       y       z     vdW  Elec       q    Type
REMARK                         _______ _______ _______ _____ _____    ______ ____
ROOT
ATOM      1  C   UNL     1       1.655   4.716  20.246  0.00  0.00    +0.000 C 
ENDROOT
BRANCH   1   2
ATOM      2  C   UNL     1       2.441   4.686  18.927  0.00  0.00    +0.000 C 
BRANCH   2  13
ATOM      3  C   UNL     1       5.563   3.375  12.229  0.00  0.00    +0.000 A 
ATOM      4  C   UNL     1       6.810   3.760  11.730  0.00  0.00    +0.000 A 
ATOM      5  C   UNL     1       7.697   4.531  12.496  0.00  0.00    +0.000 A 
ATOM      6  C   UNL     1       7.266   4.886  13.770  0.00  0.00    +0.000 A 
ATOM      7  O   UNL     1       7.945   5.651  14.661  0.00  0.00    +0.000 OA
ATOM      8  N   UNL     1       7.182   5.820  15.799  0.00  0.00    +0.000 NA
ATOM      9  C   UNL     1       6.058   5.111  15.612  0.00  0.00    +0.000 A 
ATOM     10  N   UNL     1       5.038   5.004  16.505  0.00  0.00    +0.000 N 
ATOM     11  C   UNL     1       4.285   3.759  16.674  0.00  0.00    +0.000 C 
ATOM     12  C   UNL     1       4.303   3.299  18.146  0.00  0.00    +0.000 C 
ATOM     13  N   UNL     1       3.859   4.331  19.111  0.00  0.00    +0.000 NA
ATOM     14  C   UNL     1       4.741   5.511  18.925  0.00  0.00    +0.000 C 
ATOM     15  C   UNL     1       4.783   6.067  17.485  0.00  0.00    +0.000 C 
ATOM     16  C   UNL     1       6.053   4.518  14.314  0.00  0.00    +0.000 A 
ATOM     17  C   UNL     1       5.174   3.749  13.523  0.00  0.00    +0.000 A 
BRANCH   3  19
ATOM     18  C   UNL     1       3.553   3.354  10.966  0.00  0.00    +0.000 C 
ATOM     19  O   UNL     1       4.626   2.633  11.560  0.00  0.00    +0.000 OA
ENDBRANCH   3  19
ENDBRANCH   2  13
ENDBRANCH   1   2
BRANCH   1  20
ATOM     20  C   UNL     1       1.314   6.129  20.725  0.00  0.00    +0.000 C 
BRANCH  20  21
ATOM     21  C   UNL     1       2.225   7.164  20.077  0.00  0.00    +0.000 C 
BRANCH  21  22
ATOM     22  N   UNL     1       1.547   8.411  19.827  0.00  0.00    +0.000 N 
ATOM     23  C   UNL     1       0.992   9.130  20.860  0.00  0.00    +0.000 C 
ATOM     24  O   UNL     1       1.088   8.805  22.039  0.00  0.00    +0.000 OA
ATOM     25  H   UNL     1       1.599   8.809  18.900  0.00  0.00    +0.000 HD
BRANCH  23  26
ATOM     26  C   UNL     1       0.254  10.359  20.494  0.00  0.00    +0.000 A 
ATOM     27  C   UNL     1       0.549  11.537  21.189  0.00  0.00    +0.000 A 
ATOM     28  C   UNL     1      -0.173  12.692  20.930  0.00  0.00    +0.000 A 
ATOM     29  C   UNL     1      -1.204  12.674  19.986  0.00  0.00    +0.000 A 
ATOM     30  C   UNL     1      -1.536  11.503  19.273  0.00  0.00    +0.000 A 
ATOM     31  C   UNL     1      -0.777  10.347  19.542  0.00  0.00    +0.000 A 
BRANCH  30  32
ATOM     32  C   UNL     1      -2.658  11.477  18.313  0.00  0.00    +0.000 A 
ATOM     33  N   UNL     1      -3.891  11.770  18.775  0.00  0.00    +0.000 NA
ATOM     34  C   UNL     1      -4.900  11.700  17.886  0.00  0.00    +0.000 A 
ATOM     35  C   UNL     1      -4.728  11.357  16.568  0.00  0.00    +0.000 A 
ATOM     36  C   UNL     1      -3.435  11.085  16.192  0.00  0.00    +0.000 A 
ATOM     37  N   UNL     1      -2.388  11.139  17.036  0.00  0.00    +0.000 NA
ENDBRANCH  30  32
ENDBRANCH  23  26
ENDBRANCH  21  22
ENDBRANCH  20  21
ENDBRANCH   1  20
TORSDOF 8
ENDMDL
MODEL 2
REMARK VINA RESULT:      -9.3      1.980      2.962
REMARK  Name = 
REMARK  9 active torsions:
REMARK  status: ('A' for Active; 'I' for Inactive)
REMARK    1  A    between atoms: C_1  and  O_2
REMARK    2  A    between atoms: O_2  and  C_3
REMARK    3  A    between atoms: N_13  and  C_14
REMARK    4  A    between atoms: C_14  and  C_15
REMARK    5  A    between atoms: C_15  and  C_16
REMARK    6  A    between atoms: C_16  and  C_17
REMARK    7  A    between atoms: C_17  and  N_18
REMARK    8  A    between atoms: C_19  and  C_21
REMARK    9  A    between atoms: C_25  and  C_26
REMARK                            x       y       z     vdW  Elec       q    Type
REMARK                         _______ _______ _______ _____ _____    ______ ____
ROOT
ATOM      1  C   UNL     1       2.333   4.832  20.619  0.00  0.00    +0.000 C 
ENDROOT
BRANCH   1   2
ATOM      2  C   UNL     1       2.942   4.555  19.236  0.00  0.00    +0.000 C 
BRANCH   2  13
ATOM      3  C   UNL     1       5.530   3.452  12.278  0.00  0.00    +0.000 A 
ATOM      4  C   UNL     1       6.730   3.863  11.693  0.00  0.00    +0.000 A 
ATOM      5  C   UNL     1       7.670   4.621  12.406  0.00  0.00    +0.000 A 
ATOM      6  C   UNL     1       7.340   4.939  13.720  0.00  0.00    +0.000 A 
ATOM      7  O   UNL     1       8.082   5.686  14.575  0.00  0.00    +0.000 OA
ATOM      8  N   UNL     1       7.410   5.817  15.774  0.00  0.00    +0.000 NA
ATOM      9  C   UNL     1       6.280   5.103  15.657  0.00  0.00    +0.000 A 
ATOM     10  N   UNL     1       5.336   4.962  16.625  0.00  0.00    +0.000 N 
ATOM     11  C   UNL     1       4.608   3.705  16.819  0.00  0.00    +0.000 C 
ATOM     12  C   UNL     1       4.746   3.207  18.272  0.00  0.00    +0.000 C 
ATOM     13  N   UNL     1       4.373   4.208  19.297  0.00  0.00    +0.000 NA
ATOM     14  C   UNL     1       5.228   5.402  19.074  0.00  0.00    +0.000 C 
ATOM     15  C   UNL     1       5.152   5.996  17.651  0.00  0.00    +0.000 C 
ATOM     16  C   UNL     1       6.177   4.544  14.348  0.00  0.00    +0.000 A 
ATOM     17  C   UNL     1       5.243   3.788  13.609  0.00  0.00    +0.000 A 
BRANCH   3  19
ATOM     18  C   UNL     1       3.601   3.448  10.895  0.00  0.00    +0.000 C 
ATOM     19  O   UNL     1       4.548   2.720  11.666  0.00  0.00    +0.000 OA
ENDBRANCH   3  19
ENDBRANCH   2  13
ENDBRANCH   1   2
BRANCH   1  20
ATOM     20  C   UNL     1       1.380   6.028  20.641  0.00  0.00    +0.000 C 
BRANCH  20  21
ATOM     21  C   UNL     1       2.105   7.316  20.269  0.00  0.00    +0.000 C 
BRANCH  21  22
ATOM     22  N   UNL     1       1.200   8.422  20.090  0.00  0.00    +0.000 N 
ATOM     23  C   UNL     1       0.896   9.261  21.137  0.00  0.00    +0.000 C 
ATOM     24  O   UNL     1       1.409   9.168  22.249  0.00  0.00    +0.000 OA
ATOM     25  H   UNL     1       0.894   8.648  19.154  0.00  0.00    +0.000 HD
BRANCH  23  26
ATOM     26  C   UNL     1      -0.100  10.323  20.873  0.00  0.00    +0.000 A 
ATOM     27  C   UNL     1      -0.287  10.736  19.550  0.00  0.00    +0.000 A 
ATOM     28  C   UNL     1      -1.155  11.781  19.268  0.00  0.00    +0.000 A 
ATOM     29  C   UNL     1      -1.829  12.428  20.308  0.00  0.00    +0.000 A 
ATOM     30  C   UNL     1      -1.658  12.045  21.654  0.00  0.00    +0.000 A 
ATOM     31  C   UNL     1      -0.784  10.971  21.913  0.00  0.00    +0.000 A 
BRANCH  30  32
ATOM     32  C   UNL     1      -2.335  12.764  22.752  0.00  0.00    +0.000 A 
ATOM     33  N   UNL     1      -1.733  13.864  23.252  0.00  0.00    +0.000 NA
ATOM     34  C   UNL     1      -2.353  14.477  24.278  0.00  0.00    +0.000 A 
ATOM     35  C   UNL     1      -3.539  14.042  24.817  0.00  0.00    +0.000 A 
ATOM     36  C   UNL     1      -4.077  12.919  24.235  0.00  0.00    +0.000 A 
ATOM     37  N   UNL     1      -3.502  12.266  23.207  0.00  0.00    +0.000 NA
ENDBRANCH  30  32
ENDBRANCH  23  26
ENDBRANCH  21  22
ENDBRANCH  20  21
ENDBRANCH   1  20
TORSDOF 8
ENDMDL
MODEL 3
REMARK VINA RESULT:      -9.0      1.335      1.556
REMARK  Name = 
REMARK  9 active torsions:
REMARK  status: ('A' for Active; 'I' for Inactive)
REMARK    1  A    between atoms: C_1  and  O_2
REMARK    2  A    between atoms: O_2  and  C_3
REMARK    3  A    between atoms: N_13  and  C_14
REMARK    4  A    between atoms: C_14  and  C_15
REMARK    5  A    between atoms: C_15  and  C_16
REMARK    6  A    between atoms: C_16  and  C_17
REMARK    7  A    between atoms: C_17  and  N_18
REMARK    8  A    between atoms: C_19  and  C_21
REMARK    9  A    between atoms: C_25  and  C_26
REMARK                            x       y       z     vdW  Elec       q    Type
REMARK                         _______ _______ _______ _____ _____    ______ ____
ROOT
ATOM      1  C   UNL     1       1.590   5.050  20.382  0.00  0.00    +0.000 C 
ENDROOT
BRANCH   1   2
ATOM      2  C   UNL     1       2.322   4.618  19.103  0.00  0.00    +0.000 C 
BRANCH   2  13
ATOM      3  C   UNL     1       5.742   3.562  12.506  0.00  0.00    +0.000 A 
ATOM      4  C   UNL     1       6.999   3.988  12.070  0.00  0.00    +0.000 A 
ATOM      5  C   UNL     1       7.837   4.755  12.892  0.00  0.00    +0.000 A 
ATOM      6  C   UNL     1       7.347   5.065  14.157  0.00  0.00    +0.000 A 
ATOM      7  O   UNL     1       7.973   5.819  15.096  0.00  0.00    +0.000 OA
ATOM      8  N   UNL     1       7.160   5.939  16.206  0.00  0.00    +0.000 NA
ATOM      9  C   UNL     1       6.061   5.212  15.953  0.00  0.00    +0.000 A 
ATOM     10  N   UNL     1       5.008   5.058  16.800  0.00  0.00    +0.000 N 
ATOM     11  C   UNL     1       4.277   3.793  16.903  0.00  0.00    +0.000 C 
ATOM     12  C   UNL     1       4.245   3.293  18.361  0.00  0.00    +0.000 C 
ATOM     13  N   UNL     1       3.739   4.287  19.335  0.00  0.00    +0.000 NA
ATOM     14  C   UNL     1       4.602   5.490  19.219  0.00  0.00    +0.000 C 
ATOM     15  C   UNL     1       4.690   6.087  17.797  0.00  0.00    +0.000 C 
ATOM     16  C   UNL     1       6.122   4.656  14.640  0.00  0.00    +0.000 A 
ATOM     17  C   UNL     1       5.293   3.891  13.793  0.00  0.00    +0.000 A 
BRANCH   3  19
ATOM     18  C   UNL     1       5.371   1.679  11.109  0.00  0.00    +0.000 C 
ATOM     19  O   UNL     1       4.849   2.820  11.779  0.00  0.00    +0.000 OA
ENDBRANCH   3  19
ENDBRANCH   2  13
ENDBRANCH   1   2
BRANCH   1  20
ATOM     20  C   UNL     1       1.834   6.512  20.764  0.00  0.00    +0.000 C 
BRANCH  20  21
ATOM     21  C   UNL     1       2.144   7.357  19.534  0.00  0.00    +0.000 C 
BRANCH  21  22
ATOM     22  N   UNL     1       1.348   8.557  19.480  0.00  0.00    +0.000 N 
ATOM     23  C   UNL     1       1.410   9.393  18.389  0.00  0.00    +0.000 C 
ATOM     24  O   UNL     1       2.077   9.151  17.388  0.00  0.00    +0.000 OA
ATOM     25  H   UNL     1       0.651   8.705  20.195  0.00  0.00    +0.000 HD
BRANCH  23  26
ATOM     26  C   UNL     1       0.612  10.638  18.458  0.00  0.00    +0.000 A 
ATOM     27  C   UNL     1       1.274  11.827  18.782  0.00  0.00    +0.000 A 
ATOM     28  C   UNL     1       0.551  13.001  18.931  0.00  0.00    +0.000 A 
ATOM     29  C   UNL     1      -0.838  12.991  18.774  0.00  0.00    +0.000 A 
ATOM     30  C   UNL     1      -1.539  11.810  18.457  0.00  0.00    +0.000 A 
ATOM     31  C   UNL     1      -0.781  10.633  18.294  0.00  0.00    +0.000 A 
BRANCH  30  32
ATOM     32  C   UNL     1      -3.012  11.795  18.340  0.00  0.00    +0.000 A 
ATOM     33  N   UNL     1      -3.547  11.440  17.154  0.00  0.00    +0.000 NA
ATOM     34  C   UNL     1      -4.890  11.473  17.065  0.00  0.00    +0.000 A 
ATOM     35  C   UNL     1      -5.711  11.839  18.103  0.00  0.00    +0.000 A 
ATOM     36  C   UNL     1      -5.072  12.176  19.272  0.00  0.00    +0.000 A 
ATOM     37  N   UNL     1      -3.734  12.160  19.419  0.00  0.00    +0.000 NA
ENDBRANCH  30  32
ENDBRANCH  23  26
ENDBRANCH  21  22
ENDBRANCH  20  21
ENDBRANCH   1  20
TORSDOF 8
ENDMDL
MODEL 4
REMARK VINA RESULT:      -8.8      2.834     11.347
REMARK  Name = 
REMARK  9 active torsions:
REMARK  status: ('A' for Active; 'I' for Inactive)
REMARK    1  A    between atoms: C_1  and  O_2
REMARK    2  A    between atoms: O_2  and  C_3
REMARK    3  A    between atoms: N_13  and  C_14
REMARK    4  A    between atoms: C_14  and  C_15
REMARK    5  A    between atoms: C_15  and  C_16
REMARK    6  A    between atoms: C_16  and  C_17
REMARK    7  A    between atoms: C_17  and  N_18
REMARK    8  A    between atoms: C_19  and  C_21
REMARK    9  A    between atoms: C_25  and  C_26
REMARK                            x       y       z     vdW  Elec       q    Type
REMARK                         _______ _______ _______ _____ _____    ______ ____
ROOT
ATOM      1  C   UNL     1       1.713   6.337  20.259  0.00  0.00    +0.000 C 
ENDROOT
BRANCH   1   2
ATOM      2  C   UNL     1       0.929   7.388  21.059  0.00  0.00    +0.000 C 
BRANCH   2  13
ATOM      3  C   UNL     1      -4.175  12.814  20.144  0.00  0.00    +0.000 A 
ATOM      4  C   UNL     1      -4.311  14.038  20.805  0.00  0.00    +0.000 A 
ATOM      5  C   UNL     1      -3.432  14.417  21.830  0.00  0.00    +0.000 A 
ATOM      6  C   UNL     1      -2.426  13.510  22.149  0.00  0.00    +0.000 A 
ATOM      7  O   UNL     1      -1.494  13.657  23.123  0.00  0.00    +0.000 OA
ATOM      8  N   UNL     1      -0.691  12.534  23.166  0.00  0.00    +0.000 NA
ATOM      9  C   UNL     1      -1.112  11.729  22.179  0.00  0.00    +0.000 A 
ATOM     10  N   UNL     1      -0.577  10.516  21.872  0.00  0.00    +0.000 N 
ATOM     11  C   UNL     1      -0.466  10.047  20.489  0.00  0.00    +0.000 C 
ATOM     12  C   UNL     1       0.989   9.663  20.153  0.00  0.00    +0.000 C 
ATOM     13  N   UNL     1       1.599   8.700  21.097  0.00  0.00    +0.000 NA
ATOM     14  C   UNL     1       1.522   9.307  22.451  0.00  0.00    +0.000 C 
ATOM     15  C   UNL     1       0.100   9.714  22.898  0.00  0.00    +0.000 C 
ATOM     16  C   UNL     1      -2.240  12.298  21.516  0.00  0.00    +0.000 A 
ATOM     17  C   UNL     1      -3.140  11.935  20.493  0.00  0.00    +0.000 A 
BRANCH   3  19
ATOM     18  C   UNL     1      -5.942  13.265  18.624  0.00  0.00    +0.000 C 
ATOM     19  O   UNL     1      -4.983  12.350  19.140  0.00  0.00    +0.000 OA
ENDBRANCH   3  19
ENDBRANCH   2  13
ENDBRANCH   1   2
BRANCH   1  20
ATOM     20  C   UNL     1       1.328   4.896  20.598  0.00  0.00    +0.000 C 
BRANCH  20  21
ATOM     21  C   UNL     1       2.493   3.944  20.356  0.00  0.00    +0.000 C 
BRANCH  21  22
ATOM     22  N   UNL     1       3.496   4.514  19.493  0.00  0.00    +0.000 N 
ATOM     23  C   UNL     1       4.697   3.875  19.292  0.00  0.00    +0.000 C 
ATOM     24  O   UNL     1       4.967   2.775  19.767  0.00  0.00    +0.000 OA
ATOM     25  H   UNL     1       3.252   5.322  18.939  0.00  0.00    +0.000 HD
BRANCH  23  26
ATOM     26  C   UNL     1       5.691   4.574  18.448  0.00  0.00    +0.000 A 
ATOM     27  C   UNL     1       6.440   5.603  19.029  0.00  0.00    +0.000 A 
ATOM     28  C   UNL     1       7.328   6.335  18.254  0.00  0.00    +0.000 A 
ATOM     29  C   UNL     1       7.460   6.053  16.891  0.00  0.00    +0.000 A 
ATOM     30  C   UNL     1       6.716   5.030  16.270  0.00  0.00    +0.000 A 
ATOM     31  C   UNL     1       5.833   4.290  17.082  0.00  0.00    +0.000 A 
BRANCH  30  32
ATOM     32  C   UNL     1       6.824   4.768  14.820  0.00  0.00    +0.000 A 
ATOM     33  N   UNL     1       6.036   3.810  14.291  0.00  0.00    +0.000 NA
ATOM     34  C   UNL     1       6.184   3.567  12.975  0.00  0.00    +0.000 A 
ATOM     35  C   UNL     1       7.076   4.237  12.174  0.00  0.00    +0.000 A 
ATOM     36  C   UNL     1       7.827   5.200  12.804  0.00  0.00    +0.000 A 
ATOM     37  N   UNL     1       7.721   5.486  14.115  0.00  0.00    +0.000 NA
ENDBRANCH  30  32
ENDBRANCH  23  26
ENDBRANCH  21  22
ENDBRANCH  20  21
ENDBRANCH   1  20
TORSDOF 8
ENDMDL
MODEL 5
REMARK VINA RESULT:      -8.7      1.608      2.518
REMARK  Name = 
REMARK  9 active torsions:
REMARK  status: ('A' for Active; 'I' for Inactive)
REMARK    1  A    between atoms: C_1  and  O_2
REMARK    2  A    between atoms: O_2  and  C_3
REMARK    3  A    between atoms: N_13  and  C_14
REMARK    4  A    between atoms: C_14  and  C_15
REMARK    5  A    between atoms: C_15  and  C_16
REMARK    6  A    between atoms: C_16  and  C_17
REMARK    7  A    between atoms: C_17  and  N_18
REMARK    8  A    between atoms: C_19  and  C_21
REMARK    9  A    between atoms: C_25  and  C_26
REMARK                            x       y       z     vdW  Elec       q    Type
REMARK                         _______ _______ _______ _____ _____    ______ ____
ROOT
ATOM      1  C   UNL     1       2.583   6.303  19.269  0.00  0.00    +0.000 C 
ENDROOT
BRANCH   1   2
ATOM      2  C   UNL     1       2.719   4.777  19.157  0.00  0.00    +0.000 C 
BRANCH   2  13
ATOM      3  C   UNL     1       5.354   3.485  12.249  0.00  0.00    +0.000 A 
ATOM      4  C   UNL     1       6.595   3.800  11.690  0.00  0.00    +0.000 A 
ATOM      5  C   UNL     1       7.578   4.478  12.426  0.00  0.00    +0.000 A 
ATOM      6  C   UNL     1       7.247   4.818  13.734  0.00  0.00    +0.000 A 
ATOM      7  O   UNL     1       8.029   5.502  14.606  0.00  0.00    +0.000 OA
ATOM      8  N   UNL     1       7.345   5.683  15.792  0.00  0.00    +0.000 NA
ATOM      9  C   UNL     1       6.164   5.063  15.649  0.00  0.00    +0.000 A 
ATOM     10  N   UNL     1       5.191   4.996  16.597  0.00  0.00    +0.000 N 
ATOM     11  C   UNL     1       4.361   3.802  16.771  0.00  0.00    +0.000 C 
ATOM     12  C   UNL     1       4.429   3.291  18.225  0.00  0.00    +0.000 C 
ATOM     13  N   UNL     1       4.116   4.316  19.246  0.00  0.00    +0.000 NA
ATOM     14  C   UNL     1       5.069   5.438  19.045  0.00  0.00    +0.000 C 
ATOM     15  C   UNL     1       5.070   6.039  17.623  0.00  0.00    +0.000 C 
ATOM     16  C   UNL     1       6.043   4.517  14.336  0.00  0.00    +0.000 A 
ATOM     17  C   UNL     1       5.067   3.840  13.575  0.00  0.00    +0.000 A 
BRANCH   3  19
ATOM     18  C   UNL     1       3.646   3.565  10.602  0.00  0.00    +0.000 C 
ATOM     19  O   UNL     1       4.329   2.836  11.615  0.00  0.00    +0.000 OA
ENDBRANCH   3  19
ENDBRANCH   2  13
ENDBRANCH   1   2
BRANCH   1  20
ATOM     20  C   UNL     1       1.757   6.758  20.473  0.00  0.00    +0.000 C 
BRANCH  20  21
ATOM     21  C   UNL     1       1.832   8.269  20.653  0.00  0.00    +0.000 C 
BRANCH  21  22
ATOM     22  N   UNL     1       0.616   8.930  20.254  0.00  0.00    +0.000 N 
ATOM     23  C   UNL     1       0.531   9.577  19.043  0.00  0.00    +0.000 C 
ATOM     24  O   UNL     1       1.435   9.582  18.213  0.00  0.00    +0.000 OA
ATOM     25  H   UNL     1      -0.211   8.800  20.819  0.00  0.00    +0.000 HD
BRANCH  23  26
ATOM     26  C   UNL     1      -0.735  10.288  18.755  0.00  0.00    +0.000 A 
ATOM     27  C   UNL     1      -1.336  10.084  17.508  0.00  0.00    +0.000 A 
ATOM     28  C   UNL     1      -2.481  10.789  17.169  0.00  0.00    +0.000 A 
ATOM     29  C   UNL     1      -3.023  11.713  18.067  0.00  0.00    +0.000 A 
ATOM     30  C   UNL     1      -2.438  11.952  19.327  0.00  0.00    +0.000 A 
ATOM     31  C   UNL     1      -1.286  11.212  19.655  0.00  0.00    +0.000 A 
BRANCH  30  32
ATOM     32  C   UNL     1      -2.987  12.966  20.252  0.00  0.00    +0.000 A 
ATOM     33  N   UNL     1      -2.155  13.931  20.696  0.00  0.00    +0.000 NA
ATOM     34  C   UNL     1      -2.671  14.818  21.567  0.00  0.00    +0.000 A 
ATOM     35  C   UNL     1      -3.972  14.782  22.006  0.00  0.00    +0.000 A 
ATOM     36  C   UNL     1      -4.742  13.767  21.491  0.00  0.00    +0.000 A 
ATOM     37  N   UNL     1      -4.280  12.853  20.616  0.00  0.00    +0.000 NA
ENDBRANCH  30  32
ENDBRANCH  23  26
ENDBRANCH  21  22
ENDBRANCH  20  21
ENDBRANCH   1  20
TORSDOF 8
ENDMDL
MODEL 6
REMARK VINA RESULT:      -8.7      2.197      2.826
REMARK  Name = 
REMARK  9 active torsions:
REMARK  status: ('A' for Active; 'I' for Inactive)
REMARK    1  A    between atoms: C_1  and  O_2
REMARK    2  A    between atoms: O_2  and  C_3
REMARK    3  A    between atoms: N_13  and  C_14
REMARK    4  A    between atoms: C_14  and  C_15
REMARK    5  A    between atoms: C_15  and  C_16
REMARK    6  A    between atoms: C_16  and  C_17
REMARK    7  A    between atoms: C_17  and  N_18
REMARK    8  A    between atoms: C_19  and  C_21
REMARK    9  A    between atoms: C_25  and  C_26
REMARK                            x       y       z     vdW  Elec       q    Type
REMARK                         _______ _______ _______ _____ _____    ______ ____
ROOT
ATOM      1  C   UNL     1       1.692   2.942  20.198  0.00  0.00    +0.000 C 
ENDROOT
BRANCH   1   2
ATOM      2  C   UNL     1       2.495   3.300  18.938  0.00  0.00    +0.000 C 
BRANCH   2  13
ATOM      3  C   UNL     1       5.962   3.454  12.283  0.00  0.00    +0.000 A 
ATOM      4  C   UNL     1       7.109   4.145  11.886  0.00  0.00    +0.000 A 
ATOM      5  C   UNL     1       7.798   4.987  12.771  0.00  0.00    +0.000 A 
ATOM      6  C   UNL     1       7.276   5.095  14.056  0.00  0.00    +0.000 A 
ATOM      7  O   UNL     1       7.760   5.874  15.055  0.00  0.00    +0.000 OA
ATOM      8  N   UNL     1       6.955   5.747  16.169  0.00  0.00    +0.000 NA
ATOM      9  C   UNL     1       6.010   4.848  15.855  0.00  0.00    +0.000 A 
ATOM     10  N   UNL     1       5.017   4.428  16.684  0.00  0.00    +0.000 N 
ATOM     11  C   UNL     1       4.540   3.043  16.681  0.00  0.00    +0.000 C 
ATOM     12  C   UNL     1       4.623   2.429  18.093  0.00  0.00    +0.000 C 
ATOM     13  N   UNL     1       3.952   3.226  19.145  0.00  0.00    +0.000 NA
ATOM     14  C   UNL     1       4.569   4.577  19.130  0.00  0.00    +0.000 C 
ATOM     15  C   UNL     1       4.523   5.294  17.762  0.00  0.00    +0.000 C 
ATOM     16  C   UNL     1       6.157   4.422  14.501  0.00  0.00    +0.000 A 
ATOM     17  C   UNL     1       5.476   3.586  13.592  0.00  0.00    +0.000 A 
BRANCH   3  19
ATOM     18  C   UNL     1       3.916   3.073  11.141  0.00  0.00    +0.000 C 
ATOM     19  O   UNL     1       5.216   2.618  11.496  0.00  0.00    +0.000 OA
ENDBRANCH   3  19
ENDBRANCH   2  13
ENDBRANCH   1   2
BRANCH   1  20
ATOM     20  C   UNL     1       1.112   4.159  20.921  0.00  0.00    +0.000 C 
BRANCH  20  21
ATOM     21  C   UNL     1       1.654   5.457  20.336  0.00  0.00    +0.000 C 
BRANCH  21  22
ATOM     22  N   UNL     1       1.048   6.621  20.930  0.00  0.00    +0.000 N 
ATOM     23  C   UNL     1       1.428   7.886  20.545  0.00  0.00    +0.000 C 
ATOM     24  O   UNL     1       2.238   8.107  19.650  0.00  0.00    +0.000 OA
ATOM     25  H   UNL     1       0.251   6.493  21.537  0.00  0.00    +0.000 HD
BRANCH  23  26
ATOM     26  C   UNL     1       0.801   9.018  21.265  0.00  0.00    +0.000 A 
ATOM     27  C   UNL     1       0.047   8.734  22.408  0.00  0.00    +0.000 A 
ATOM     28  C   UNL     1      -0.618   9.756  23.069  0.00  0.00    +0.000 A 
ATOM     29  C   UNL     1      -0.547  11.064  22.581  0.00  0.00    +0.000 A 
ATOM     30  C   UNL     1       0.195  11.385  21.426  0.00  0.00    +0.000 A 
ATOM     31  C   UNL     1       0.876  10.333  20.783  0.00  0.00    +0.000 A 
BRANCH  30  32
ATOM     32  C   UNL     1       0.226  12.761  20.887  0.00  0.00    +0.000 A 
ATOM     33  N   UNL     1      -0.484  13.017  19.770  0.00  0.00    +0.000 NA
ATOM     34  C   UNL     1      -0.406  14.269  19.280  0.00  0.00    +0.000 A 
ATOM     35  C   UNL     1       0.343  15.265  19.857  0.00  0.00    +0.000 A 
ATOM     36  C   UNL     1       1.024  14.908  20.995  0.00  0.00    +0.000 A 
ATOM     37  N   UNL     1       0.982  13.673  21.531  0.00  0.00    +0.000 NA
ENDBRANCH  30  32
ENDBRANCH  23  26
ENDBRANCH  21  22
ENDBRANCH  20  21
ENDBRANCH   1  20
TORSDOF 8
ENDMDL
MODEL 7
REMARK VINA RESULT:      -8.4      5.487      8.768
REMARK  Name = 
REMARK  9 active torsions:
REMARK  status: ('A' for Active; 'I' for Inactive)
REMARK    1  A    between atoms: C_1  and  O_2
REMARK    2  A    between atoms: O_2  and  C_3
REMARK    3  A    between atoms: N_13  and  C_14
REMARK    4  A    between atoms: C_14  and  C_15
REMARK    5  A    between atoms: C_15  and  C_16
REMARK    6  A    between atoms: C_16  and  C_17
REMARK    7  A    between atoms: C_17  and  N_18
REMARK    8  A    between atoms: C_19  and  C_21
REMARK    9  A    between atoms: C_25  and  C_26
REMARK                            x       y       z     vdW  Elec       q    Type
REMARK                         _______ _______ _______ _____ _____    ______ ____
ROOT
ATOM      1  C   UNL     1       0.645  12.599  20.036  0.00  0.00    +0.000 C 
ENDROOT
BRANCH   1   2
ATOM      2  C   UNL     1       1.290  11.399  19.328  0.00  0.00    +0.000 C 
BRANCH   2  13
ATOM      3  C   UNL     1       5.149   5.131  17.861  0.00  0.00    +0.000 A 
ATOM      4  C   UNL     1       4.948   3.827  18.320  0.00  0.00    +0.000 A 
ATOM      5  C   UNL     1       3.911   3.517  19.212  0.00  0.00    +0.000 A 
ATOM      6  C   UNL     1       3.101   4.576  19.610  0.00  0.00    +0.000 A 
ATOM      7  O   UNL     1       2.068   4.509  20.487  0.00  0.00    +0.000 OA
ATOM      8  N   UNL     1       1.530   5.768  20.662  0.00  0.00    +0.000 NA
ATOM      9  C   UNL     1       2.211   6.589  19.848  0.00  0.00    +0.000 A 
ATOM     10  N   UNL     1       1.988   7.923  19.711  0.00  0.00    +0.000 N 
ATOM     11  C   UNL     1       2.119   8.601  18.419  0.00  0.00    +0.000 C 
ATOM     12  C   UNL     1       0.823   9.356  18.059  0.00  0.00    +0.000 C 
ATOM     13  N   UNL     1       0.349  10.287  19.108  0.00  0.00    +0.000 NA
ATOM     14  C   UNL     1       0.157   9.488  20.346  0.00  0.00    +0.000 C 
ATOM     15  C   UNL     1       1.404   8.704  20.809  0.00  0.00    +0.000 C 
ATOM     16  C   UNL     1       3.248   5.876  19.174  0.00  0.00    +0.000 A 
ATOM     17  C   UNL     1       4.302   6.165  18.283  0.00  0.00    +0.000 A 
BRANCH   3  19
ATOM     18  C   UNL     1       6.682   6.828  17.226  0.00  0.00    +0.000 C 
ATOM     19  O   UNL     1       6.133   5.536  16.999  0.00  0.00    +0.000 OA
ENDBRANCH   3  19
ENDBRANCH   2  13
ENDBRANCH   1   2
BRANCH   1  20
ATOM     20  C   UNL     1       1.337  13.931  19.739  0.00  0.00    +0.000 C 
BRANCH  20  21
ATOM     21  C   UNL     1       2.202  13.834  18.489  0.00  0.00    +0.000 C 
BRANCH  21  22
ATOM     22  N   UNL     1       3.566  14.228  18.735  0.00  0.00    +0.000 N 
ATOM     23  C   UNL     1       4.170  15.194  17.965  0.00  0.00    +0.000 C 
ATOM     24  O   UNL     1       3.589  15.817  17.081  0.00  0.00    +0.000 OA
ATOM     25  H   UNL     1       4.027  13.876  19.562  0.00  0.00    +0.000 HD
BRANCH  23  26
ATOM     26  C   UNL     1       5.596  15.476  18.247  0.00  0.00    +0.000 A 
ATOM     27  C   UNL     1       5.947  16.777  18.621  0.00  0.00    +0.000 A 
ATOM     28  C   UNL     1       7.281  17.102  18.821  0.00  0.00    +0.000 A 
ATOM     29  C   UNL     1       8.271  16.134  18.631  0.00  0.00    +0.000 A 
ATOM     30  C   UNL     1       7.954  14.816  18.244  0.00  0.00    +0.000 A 
ATOM     31  C   UNL     1       6.592  14.506  18.065  0.00  0.00    +0.000 A 
BRANCH  30  32
ATOM     32  C   UNL     1       9.008  13.810  17.998  0.00  0.00    +0.000 A 
ATOM     33  N   UNL     1       8.693  12.510  18.171  0.00  0.00    +0.000 NA
ATOM     34  C   UNL     1       9.683  11.619  17.977  0.00  0.00    +0.000 A 
ATOM     35  C   UNL     1      10.961  11.970  17.618  0.00  0.00    +0.000 A 
ATOM     36  C   UNL     1      11.181  13.316  17.459  0.00  0.00    +0.000 A 
ATOM     37  N   UNL     1      10.230  14.252  17.638  0.00  0.00    +0.000 NA
ENDBRANCH  30  32
ENDBRANCH  23  26
ENDBRANCH  21  22
ENDBRANCH  20  21
ENDBRANCH   1  20
TORSDOF 8
ENDMDL
MODEL 8
REMARK VINA RESULT:      -8.3      3.739     10.793
REMARK  Name = 
REMARK  9 active torsions:
REMARK  status: ('A' for Active; 'I' for Inactive)
REMARK    1  A    between atoms: C_1  and  O_2
REMARK    2  A    between atoms: O_2  and  C_3
REMARK    3  A    between atoms: N_13  and  C_14
REMARK    4  A    between atoms: C_14  and  C_15
REMARK    5  A    between atoms: C_15  and  C_16
REMARK    6  A    between atoms: C_16  and  C_17
REMARK    7  A    between atoms: C_17  and  N_18
REMARK    8  A    between atoms: C_19  and  C_21
REMARK    9  A    between atoms: C_25  and  C_26
REMARK                            x       y       z     vdW  Elec       q    Type
REMARK                         _______ _______ _______ _____ _____    ______ ____
ROOT
ATOM      1  C   UNL     1       1.392   8.888  20.937  0.00  0.00    +0.000 C 
ENDROOT
BRANCH   1   2
ATOM      2  C   UNL     1       0.098   9.502  20.383  0.00  0.00    +0.000 C 
BRANCH   2  13
ATOM      3  C   UNL     1       4.291  15.332  18.200  0.00  0.00    +0.000 A 
ATOM      4  C   UNL     1       3.918  16.648  17.917  0.00  0.00    +0.000 A 
ATOM      5  C   UNL     1       2.581  17.062  17.998  0.00  0.00    +0.000 A 
ATOM      6  C   UNL     1       1.655  16.094  18.372  0.00  0.00    +0.000 A 
ATOM      7  O   UNL     1       0.313  16.266  18.480  0.00  0.00    +0.000 OA
ATOM      8  N   UNL     1      -0.278  15.071  18.835  0.00  0.00    +0.000 NA
ATOM      9  C   UNL     1       0.718  14.185  18.990  0.00  0.00    +0.000 A 
ATOM     10  N   UNL     1       0.564  12.882  19.349  0.00  0.00    +0.000 N 
ATOM     11  C   UNL     1       1.525  12.200  20.218  0.00  0.00    +0.000 C 
ATOM     12  C   UNL     1       0.819  11.588  21.446  0.00  0.00    +0.000 C 
ATOM     13  N   UNL     1      -0.325  10.708  21.115  0.00  0.00    +0.000 NA
ATOM     14  C   UNL     1      -1.281  11.518  20.317  0.00  0.00    +0.000 C 
ATOM     15  C   UNL     1      -0.681  12.164  19.049  0.00  0.00    +0.000 C 
ATOM     16  C   UNL     1       1.974  14.787  18.677  0.00  0.00    +0.000 A 
ATOM     17  C   UNL     1       3.324  14.391  18.582  0.00  0.00    +0.000 A 
BRANCH   3  19
ATOM     18  C   UNL     1       6.623  15.758  18.329  0.00  0.00    +0.000 C 
ATOM     19  O   UNL     1       5.563  14.828  18.143  0.00  0.00    +0.000 OA
ENDBRANCH   3  19
ENDBRANCH   2  13
ENDBRANCH   1   2
BRANCH   1  20
ATOM     20  C   UNL     1       1.754   7.544  20.300  0.00  0.00    +0.000 C 
BRANCH  20  21
ATOM     21  C   UNL     1       1.893   7.671  18.789  0.00  0.00    +0.000 C 
BRANCH  21  22
ATOM     22  N   UNL     1       3.149   7.152  18.308  0.00  0.00    +0.000 N 
ATOM     23  C   UNL     1       3.339   5.799  18.155  0.00  0.00    +0.000 C 
ATOM     24  O   UNL     1       2.459   4.965  18.349  0.00  0.00    +0.000 OA
ATOM     25  H   UNL     1       3.839   7.805  17.965  0.00  0.00    +0.000 HD
BRANCH  23  26
ATOM     26  C   UNL     1       4.686   5.359  17.727  0.00  0.00    +0.000 A 
ATOM     27  C   UNL     1       5.678   5.230  18.705  0.00  0.00    +0.000 A 
ATOM     28  C   UNL     1       6.972   4.894  18.336  0.00  0.00    +0.000 A 
ATOM     29  C   UNL     1       7.286   4.702  16.988  0.00  0.00    +0.000 A 
ATOM     30  C   UNL     1       6.315   4.834  15.975  0.00  0.00    +0.000 A 
ATOM     31  C   UNL     1       5.004   5.158  16.376  0.00  0.00    +0.000 A 
BRANCH  30  32
ATOM     32  C   UNL     1       6.663   4.677  14.547  0.00  0.00    +0.000 A 
ATOM     33  N   UNL     1       6.022   3.722  13.842  0.00  0.00    +0.000 NA
ATOM     34  C   UNL     1       6.387   3.576  12.555  0.00  0.00    +0.000 A 
ATOM     35  C   UNL     1       7.354   4.340  11.949  0.00  0.00    +0.000 A 
ATOM     36  C   UNL     1       7.943   5.291  12.747  0.00  0.00    +0.000 A 
ATOM     37  N   UNL     1       7.617   5.482  14.039  0.00  0.00    +0.000 NA
ENDBRANCH  30  32
ENDBRANCH  23  26
ENDBRANCH  21  22
ENDBRANCH  20  21
ENDBRANCH   1  20
TORSDOF 8
ENDMDL
MODEL 9
REMARK VINA RESULT:      -8.2      6.213     11.388
REMARK  Name = 
REMARK  9 active torsions:
REMARK  status: ('A' for Active; 'I' for Inactive)
REMARK    1  A    between atoms: C_1  and  O_2
REMARK    2  A    between atoms: O_2  and  C_3
REMARK    3  A    between atoms: N_13  and  C_14
REMARK    4  A    between atoms: C_14  and  C_15
REMARK    5  A    between atoms: C_15  and  C_16
REMARK    6  A    between atoms: C_16  and  C_17
REMARK    7  A    between atoms: C_17  and  N_18
REMARK    8  A    between atoms: C_19  and  C_21
REMARK    9  A    between atoms: C_25  and  C_26
REMARK                            x       y       z     vdW  Elec       q    Type
REMARK                         _______ _______ _______ _____ _____    ______ ____
ROOT
ATOM      1  C   UNL     1       9.489  10.475  18.762  0.00  0.00    +0.000 C 
ENDROOT
BRANCH   1   2
ATOM      2  C   UNL     1       9.651  11.784  17.976  0.00  0.00    +0.000 C 
BRANCH   2  13
ATOM      3  C   UNL     1       4.888  17.252  19.910  0.00  0.00    +0.000 A 
ATOM      4  C   UNL     1       4.764  17.948  21.115  0.00  0.00    +0.000 A 
ATOM      5  C   UNL     1       5.586  17.659  22.215  0.00  0.00    +0.000 A 
ATOM      6  C   UNL     1       6.523  16.646  22.037  0.00  0.00    +0.000 A 
ATOM      7  O   UNL     1       7.390  16.183  22.972  0.00  0.00    +0.000 OA
ATOM      8  N   UNL     1       8.133  15.149  22.439  0.00  0.00    +0.000 NA
ATOM      9  C   UNL     1       7.746  15.022  21.161  0.00  0.00    +0.000 A 
ATOM     10  N   UNL     1       8.242  14.117  20.275  0.00  0.00    +0.000 N 
ATOM     11  C   UNL     1       8.428  14.442  18.858  0.00  0.00    +0.000 C 
ATOM     12  C   UNL     1       9.883  14.182  18.420  0.00  0.00    +0.000 C 
ATOM     13  N   UNL     1      10.378  12.821  18.728  0.00  0.00    +0.000 NA
ATOM     14  C   UNL     1      10.235  12.626  20.194  0.00  0.00    +0.000 C 
ATOM     15  C   UNL     1       8.807  12.844  20.739  0.00  0.00    +0.000 C 
ATOM     16  C   UNL     1       6.695  15.941  20.864  0.00  0.00    +0.000 A 
ATOM     17  C   UNL     1       5.853  16.244  19.774  0.00  0.00    +0.000 A 
BRANCH   3  19
ATOM     18  C   UNL     1       3.533  16.298  18.211  0.00  0.00    +0.000 C 
ATOM     19  O   UNL     1       4.132  17.453  18.787  0.00  0.00    +0.000 OA
ENDBRANCH   3  19
ENDBRANCH   2  13
ENDBRANCH   1   2
BRANCH   1  20
ATOM     20  C   UNL     1       8.394   9.560  18.211  0.00  0.00    +0.000 C 
BRANCH  20  21
ATOM     21  C   UNL     1       8.661   8.104  18.569  0.00  0.00    +0.000 C 
BRANCH  21  22
ATOM     22  N   UNL     1       7.621   7.224  18.099  0.00  0.00    +0.000 N 
ATOM     23  C   UNL     1       7.475   5.962  18.626  0.00  0.00    +0.000 C 
ATOM     24  O   UNL     1       8.159   5.531  19.550  0.00  0.00    +0.000 OA
ATOM     25  H   UNL     1       6.922   7.596  17.472  0.00  0.00    +0.000 HD
BRANCH  23  26
ATOM     26  C   UNL     1       6.426   5.107  18.028  0.00  0.00    +0.000 A 
ATOM     27  C   UNL     1       6.578   4.714  16.694  0.00  0.00    +0.000 A 
ATOM     28  C   UNL     1       5.581   3.977  16.073  0.00  0.00    +0.000 A 
ATOM     29  C   UNL     1       4.420   3.641  16.776  0.00  0.00    +0.000 A 
ATOM     30  C   UNL     1       4.229   4.028  18.118  0.00  0.00    +0.000 A 
ATOM     31  C   UNL     1       5.263   4.761  18.732  0.00  0.00    +0.000 A 
BRANCH  30  32
ATOM     32  C   UNL     1       2.979   3.712  18.840  0.00  0.00    +0.000 A 
ATOM     33  N   UNL     1       2.832   4.201  20.089  0.00  0.00    +0.000 NA
ATOM     34  C   UNL     1       1.701   3.865  20.738  0.00  0.00    +0.000 A 
ATOM     35  C   UNL     1       0.720   3.072  20.194  0.00  0.00    +0.000 A 
ATOM     36  C   UNL     1       0.959   2.631  18.916  0.00  0.00    +0.000 A 
ATOM     37  N   UNL     1       2.070   2.935  18.218  0.00  0.00    +0.000 NA
ENDBRANCH  30  32
ENDBRANCH  23  26
ENDBRANCH  21  22
ENDBRANCH  20  21
ENDBRANCH   1  20
TORSDOF 8
ENDMDL
