MODEL 1
REMARK VINA RESULT:      -9.2      0.000      0.000
REMARK  Name = 
REMARK  6 active torsions:
REMARK  status: ('A' for Active; 'I' for Inactive)
REMARK    1  A    between atoms: C_2  and  C_3
REMARK    2  A    between atoms: C_2  and  C_22
REMARK    3  A    between atoms: C_3  and  N_4
REMARK    4  A    between atoms: C_5  and  C_6
REMARK    5  A    between atoms: C_6  and  C_8
REMARK    6  A    between atoms: C_9  and  C_10
REMARK                            x       y       z     vdW  Elec       q    Type
REMARK                         _______ _______ _______ _____ _____    ______ ____
ROOT
ATOM      1  N   UNL     1       3.667   4.510  18.479  0.00  0.00    +0.000 N 
ATOM      2  C   UNL     1       4.945   4.038  18.720  0.00  0.00    +0.000 A 
ATOM      3  N   UNL     1       4.933   3.210  19.755  0.00  0.00    +0.000 NA
ATOM      4  C   UNL     1       3.635   3.140  20.181  0.00  0.00    +0.000 A 
ATOM      5  C   UNL     1       3.084   2.392  21.230  0.00  0.00    +0.000 A 
ATOM      6  C   UNL     1       1.714   2.501  21.490  0.00  0.00    +0.000 A 
ATOM      7  C   UNL     1       0.908   3.337  20.715  0.00  0.00    +0.000 A 
ATOM      8  C   UNL     1       1.441   4.082  19.658  0.00  0.00    +0.000 A 
ATOM      9  C   UNL     1       2.815   3.960  19.416  0.00  0.00    +0.000 A 
ENDROOT
BRANCH   2  10
ATOM     10  C   UNL     1       6.173   4.367  17.999  0.00  0.00    +0.000 C 
ATOM     11  O   UNL     1       7.181   4.822  18.539  0.00  0.00    +0.000 OA
BRANCH  10  12
ATOM     12  C   UNL     1       6.174   4.080  16.527  0.00  0.00    +0.000 C 
ATOM     13  C   UNL     1       6.746   4.891  15.622  0.00  0.00    +0.000 C 
BRANCH  13  14
ATOM     14  C   UNL     1       6.741   4.526  14.244  0.00  0.00    +0.000 A 
ATOM     15  C   UNL     1       7.525   5.008  13.198  0.00  0.00    +0.000 A 
ATOM     16  C   UNL     1       7.155   4.318  12.017  0.00  0.00    +0.000 A 
ATOM     17  C   UNL     1       6.164   3.448  12.387  0.00  0.00    +0.000 A 
ATOM     18  O   UNL     1       5.908   3.562  13.713  0.00  0.00    +0.000 OA
ENDBRANCH  13  14
ENDBRANCH  10  12
ENDBRANCH   2  10
BRANCH   1  19
ATOM     19  C   UNL     1       3.245   5.431  17.434  0.00  0.00    +0.000 C 
BRANCH  19  21
ATOM     20  O   UNL     1       4.711   7.350  17.460  0.00  0.00    +0.000 OA
ATOM     21  C   UNL     1       3.619   6.865  17.750  0.00  0.00    +0.000 C 
BRANCH  21  22
ATOM     22  C   UNL     1       2.614   7.734  18.438  0.00  0.00    +0.000 A 
ATOM     23  C   UNL     1       2.047   8.793  17.710  0.00  0.00    +0.000 A 
ATOM     24  C   UNL     1       1.137   9.665  18.311  0.00  0.00    +0.000 A 
ATOM     25  C   UNL     1       0.781   9.479  19.644  0.00  0.00    +0.000 A 
ATOM     26 CL   UNL     1      -0.312  10.569  20.399  0.00  0.00    +0.000 Cl
ATOM     27  C   UNL     1       1.315   8.415  20.372  0.00  0.00    +0.000 A 
ATOM     28  C   UNL     1       2.230   7.542  19.772  0.00  0.00    +0.000 A 
ENDBRANCH  21  22
ENDBRANCH  19  21
ENDBRANCH   1  19
TORSDOF 6
ENDMDL
MODEL 2
REMARK VINA RESULT:      -8.8      1.203      1.366
REMARK  Name = 
REMARK  6 active torsions:
REMARK  status: ('A' for Active; 'I' for Inactive)
REMARK    1  A    between atoms: C_2  and  C_3
REMARK    2  A    between atoms: C_2  and  C_22
REMARK    3  A    between atoms: C_3  and  N_4
REMARK    4  A    between atoms: C_5  and  C_6
REMARK    5  A    between atoms: C_6  and  C_8
REMARK    6  A    between atoms: C_9  and  C_10
REMARK                            x       y       z     vdW  Elec       q    Type
REMARK                         _______ _______ _______ _____ _____    ______ ____
ROOT
ATOM      1  N   UNL     1       3.817   4.855  19.012  0.00  0.00    +0.000 N 
ATOM      2  C   UNL     1       4.829   4.106  18.440  0.00  0.00    +0.000 A 
ATOM      3  N   UNL     1       4.390   2.884  18.173  0.00  0.00    +0.000 NA
ATOM      4  C   UNL     1       3.082   2.846  18.569  0.00  0.00    +0.000 A 
ATOM      5  C   UNL     1       2.160   1.793  18.491  0.00  0.00    +0.000 A 
ATOM      6  C   UNL     1       0.867   1.991  18.986  0.00  0.00    +0.000 A 
ATOM      7  C   UNL     1       0.498   3.216  19.543  0.00  0.00    +0.000 A 
ATOM      8  C   UNL     1       1.403   4.280  19.619  0.00  0.00    +0.000 A 
ATOM      9  C   UNL     1       2.694   4.061  19.121  0.00  0.00    +0.000 A 
ENDROOT
BRANCH   2  10
ATOM     10  C   UNL     1       6.201   4.520  18.154  0.00  0.00    +0.000 C 
ATOM     11  O   UNL     1       6.974   4.958  19.007  0.00  0.00    +0.000 OA
BRANCH  10  12
ATOM     12  C   UNL     1       6.664   4.348  16.738  0.00  0.00    +0.000 C 
ATOM     13  C   UNL     1       6.068   4.945  15.694  0.00  0.00    +0.000 C 
BRANCH  13  14
ATOM     14  C   UNL     1       6.596   4.765  14.381  0.00  0.00    +0.000 A 
ATOM     15  C   UNL     1       6.202   3.876  13.384  0.00  0.00    +0.000 A 
ATOM     16  C   UNL     1       7.025   4.094  12.251  0.00  0.00    +0.000 A 
ATOM     17  C   UNL     1       7.885   5.101  12.601  0.00  0.00    +0.000 A 
ATOM     18  O   UNL     1       7.639   5.510  13.870  0.00  0.00    +0.000 OA
ENDBRANCH  13  14
ENDBRANCH  10  12
ENDBRANCH   2  10
BRANCH   1  19
ATOM     19  C   UNL     1       3.880   6.244  19.445  0.00  0.00    +0.000 C 
BRANCH  19  21
ATOM     20  O   UNL     1       3.637   7.227  17.252  0.00  0.00    +0.000 OA
ATOM     21  C   UNL     1       3.274   7.188  18.427  0.00  0.00    +0.000 C 
BRANCH  21  22
ATOM     22  C   UNL     1       2.182   8.112  18.865  0.00  0.00    +0.000 A 
ATOM     23  C   UNL     1       1.627   8.978  17.909  0.00  0.00    +0.000 A 
ATOM     24  C   UNL     1       0.634   9.894  18.268  0.00  0.00    +0.000 A 
ATOM     25  C   UNL     1       0.186   9.943  19.584  0.00  0.00    +0.000 A 
ATOM     26 CL   UNL     1      -1.010  11.092  20.039  0.00  0.00    +0.000 Cl
ATOM     27  C   UNL     1       0.709   9.071  20.539  0.00  0.00    +0.000 A 
ATOM     28  C   UNL     1       1.705   8.154  20.182  0.00  0.00    +0.000 A 
ENDBRANCH  21  22
ENDBRANCH  19  21
ENDBRANCH   1  19
TORSDOF 6
ENDMDL
MODEL 3
REMARK VINA RESULT:      -8.5      0.499      1.054
REMARK  Name = 
REMARK  6 active torsions:
REMARK  status: ('A' for Active; 'I' for Inactive)
REMARK    1  A    between atoms: C_2  and  C_3
REMARK    2  A    between atoms: C_2  and  C_22
REMARK    3  A    between atoms: C_3  and  N_4
REMARK    4  A    between atoms: C_5  and  C_6
REMARK    5  A    between atoms: C_6  and  C_8
REMARK    6  A    between atoms: C_9  and  C_10
REMARK                            x       y       z     vdW  Elec       q    Type
REMARK                         _______ _______ _______ _____ _____    ______ ____
ROOT
ATOM      1  N   UNL     1       3.580   4.673  18.417  0.00  0.00    +0.000 N 
ATOM      2  C   UNL     1       4.861   4.199  18.641  0.00  0.00    +0.000 A 
ATOM      3  N   UNL     1       4.854   3.340  19.651  0.00  0.00    +0.000 NA
ATOM      4  C   UNL     1       3.558   3.252  20.077  0.00  0.00    +0.000 A 
ATOM      5  C   UNL     1       3.013   2.470  21.105  0.00  0.00    +0.000 A 
ATOM      6  C   UNL     1       1.643   2.566  21.371  0.00  0.00    +0.000 A 
ATOM      7  C   UNL     1       0.831   3.421  20.623  0.00  0.00    +0.000 A 
ATOM      8  C   UNL     1       1.359   4.200  19.587  0.00  0.00    +0.000 A 
ATOM      9  C   UNL     1       2.733   4.091  19.339  0.00  0.00    +0.000 A 
ENDROOT
BRANCH   2  10
ATOM     10  C   UNL     1       6.086   4.554  17.928  0.00  0.00    +0.000 C 
ATOM     11  O   UNL     1       7.019   5.173  18.439  0.00  0.00    +0.000 OA
BRANCH  10  12
ATOM     12  C   UNL     1       6.185   4.083  16.507  0.00  0.00    +0.000 C 
ATOM     13  C   UNL     1       5.583   4.709  15.483  0.00  0.00    +0.000 C 
BRANCH  13  14
ATOM     14  C   UNL     1       5.762   4.222  14.155  0.00  0.00    +0.000 A 
ATOM     15  C   UNL     1       6.917   4.172  13.379  0.00  0.00    +0.000 A 
ATOM     16  C   UNL     1       6.585   3.586  12.133  0.00  0.00    +0.000 A 
ATOM     17  C   UNL     1       5.246   3.305  12.196  0.00  0.00    +0.000 A 
ATOM     18  O   UNL     1       4.743   3.680  13.398  0.00  0.00    +0.000 OA
ENDBRANCH  13  14
ENDBRANCH  10  12
ENDBRANCH   2  10
BRANCH   1  19
ATOM     19  C   UNL     1       3.152   5.622  17.401  0.00  0.00    +0.000 C 
BRANCH  19  21
ATOM     20  O   UNL     1       4.664   7.503  17.507  0.00  0.00    +0.000 OA
ATOM     21  C   UNL     1       3.547   7.044  17.744  0.00  0.00    +0.000 C 
BRANCH  21  22
ATOM     22  C   UNL     1       2.535   7.934  18.392  0.00  0.00    +0.000 A 
ATOM     23  C   UNL     1       2.217   7.701  19.740  0.00  0.00    +0.000 A 
ATOM     24  C   UNL     1       1.248   8.470  20.388  0.00  0.00    +0.000 A 
ATOM     25  C   UNL     1       0.595   9.484  19.693  0.00  0.00    +0.000 A 
ATOM     26 CL   UNL     1      -0.624  10.411  20.474  0.00  0.00    +0.000 Cl
ATOM     27  C   UNL     1       0.919   9.745  18.362  0.00  0.00    +0.000 A 
ATOM     28  C   UNL     1       1.888   8.973  17.710  0.00  0.00    +0.000 A 
ENDBRANCH  21  22
ENDBRANCH  19  21
ENDBRANCH   1  19
TORSDOF 6
ENDMDL
MODEL 4
REMARK VINA RESULT:      -8.5      1.645      2.384
REMARK  Name = 
REMARK  6 active torsions:
REMARK  status: ('A' for Active; 'I' for Inactive)
REMARK    1  A    between atoms: C_2  and  C_3
REMARK    2  A    between atoms: C_2  and  C_22
REMARK    3  A    between atoms: C_3  and  N_4
REMARK    4  A    between atoms: C_5  and  C_6
REMARK    5  A    between atoms: C_6  and  C_8
REMARK    6  A    between atoms: C_9  and  C_10
REMARK                            x       y       z     vdW  Elec       q    Type
REMARK                         _______ _______ _______ _____ _____    ______ ____
ROOT
ATOM      1  N   UNL     1       3.128   5.700  18.764  0.00  0.00    +0.000 N 
ATOM      2  C   UNL     1       3.930   5.409  17.674  0.00  0.00    +0.000 A 
ATOM      3  N   UNL     1       3.666   4.187  17.233  0.00  0.00    +0.000 NA
ATOM      4  C   UNL     1       2.681   3.687  18.040  0.00  0.00    +0.000 A 
ATOM      5  C   UNL     1       2.037   2.443  17.988  0.00  0.00    +0.000 A 
ATOM      6  C   UNL     1       1.062   2.149  18.946  0.00  0.00    +0.000 A 
ATOM      7  C   UNL     1       0.731   3.078  19.933  0.00  0.00    +0.000 A 
ATOM      8  C   UNL     1       1.357   4.328  19.992  0.00  0.00    +0.000 A 
ATOM      9  C   UNL     1       2.333   4.602  19.026  0.00  0.00    +0.000 A 
ENDROOT
BRANCH   2  10
ATOM     10  C   UNL     1       4.944   6.259  17.055  0.00  0.00    +0.000 C 
ATOM     11  O   UNL     1       5.469   7.219  17.620  0.00  0.00    +0.000 OA
BRANCH  10  12
ATOM     12  C   UNL     1       5.368   5.881  15.666  0.00  0.00    +0.000 C 
ATOM     13  C   UNL     1       6.296   4.945  15.412  0.00  0.00    +0.000 C 
BRANCH  13  14
ATOM     14  C   UNL     1       6.612   4.612  14.062  0.00  0.00    +0.000 A 
ATOM     15  C   UNL     1       6.140   3.565  13.275  0.00  0.00    +0.000 A 
ATOM     16  C   UNL     1       6.741   3.671  11.996  0.00  0.00    +0.000 A 
ATOM     17  C   UNL     1       7.553   4.773  12.054  0.00  0.00    +0.000 A 
ATOM     18  O   UNL     1       7.485   5.343  13.281  0.00  0.00    +0.000 OA
ENDBRANCH  13  14
ENDBRANCH  10  12
ENDBRANCH   2  10
BRANCH   1  19
ATOM     19  C   UNL     1       3.096   6.934  19.535  0.00  0.00    +0.000 C 
BRANCH  19  21
ATOM     20  O   UNL     1       1.883   8.061  17.777  0.00  0.00    +0.000 OA
ATOM     21  C   UNL     1       2.096   7.928  18.981  0.00  0.00    +0.000 C 
BRANCH  21  22
ATOM     22  C   UNL     1       1.327   8.783  19.939  0.00  0.00    +0.000 A 
ATOM     23  C   UNL     1       1.162   8.318  21.254  0.00  0.00    +0.000 A 
ATOM     24  C   UNL     1       0.418   9.050  22.181  0.00  0.00    +0.000 A 
ATOM     25  C   UNL     1      -0.162  10.257  21.801  0.00  0.00    +0.000 A 
ATOM     26 CL   UNL     1      -1.109  11.146  22.927  0.00  0.00    +0.000 Cl
ATOM     27  C   UNL     1       0.016  10.745  20.506  0.00  0.00    +0.000 A 
ATOM     28  C   UNL     1       0.760  10.011  19.574  0.00  0.00    +0.000 A 
ENDBRANCH  21  22
ENDBRANCH  19  21
ENDBRANCH   1  19
TORSDOF 6
ENDMDL
MODEL 5
REMARK VINA RESULT:      -8.4      1.547      2.041
REMARK  Name = 
REMARK  6 active torsions:
REMARK  status: ('A' for Active; 'I' for Inactive)
REMARK    1  A    between atoms: C_2  and  C_3
REMARK    2  A    between atoms: C_2  and  C_22
REMARK    3  A    between atoms: C_3  and  N_4
REMARK    4  A    between atoms: C_5  and  C_6
REMARK    5  A    between atoms: C_6  and  C_8
REMARK    6  A    between atoms: C_9  and  C_10
REMARK                            x       y       z     vdW  Elec       q    Type
REMARK                         _______ _______ _______ _____ _____    ______ ____
ROOT
ATOM      1  N   UNL     1       3.187   5.706  18.706  0.00  0.00    +0.000 N 
ATOM      2  C   UNL     1       3.945   5.325  17.613  0.00  0.00    +0.000 A 
ATOM      3  N   UNL     1       3.623   4.091  17.249  0.00  0.00    +0.000 NA
ATOM      4  C   UNL     1       2.644   3.676  18.109  0.00  0.00    +0.000 A 
ATOM      5  C   UNL     1       1.953   2.457  18.144  0.00  0.00    +0.000 A 
ATOM      6  C   UNL     1       0.995   2.254  19.143  0.00  0.00    +0.000 A 
ATOM      7  C   UNL     1       0.728   3.249  20.085  0.00  0.00    +0.000 A 
ATOM      8  C   UNL     1       1.402   4.474  20.056  0.00  0.00    +0.000 A 
ATOM      9  C   UNL     1       2.359   4.656  19.050  0.00  0.00    +0.000 A 
ENDROOT
BRANCH   2  10
ATOM     10  C   UNL     1       4.972   6.099  16.919  0.00  0.00    +0.000 C 
ATOM     11  O   UNL     1       5.572   7.046  17.427  0.00  0.00    +0.000 OA
BRANCH  10  12
ATOM     12  C   UNL     1       5.309   5.654  15.527  0.00  0.00    +0.000 C 
ATOM     13  C   UNL     1       6.443   5.005  15.219  0.00  0.00    +0.000 C 
BRANCH  13  14
ATOM     14  C   UNL     1       6.671   4.578  13.877  0.00  0.00    +0.000 A 
ATOM     15  C   UNL     1       7.558   5.079  12.928  0.00  0.00    +0.000 A 
ATOM     16  C   UNL     1       7.423   4.306  11.749  0.00  0.00    +0.000 A 
ATOM     17  C   UNL     1       6.462   3.369  12.023  0.00  0.00    +0.000 A 
ATOM     18  O   UNL     1       6.005   3.521  13.291  0.00  0.00    +0.000 OA
ENDBRANCH  13  14
ENDBRANCH  10  12
ENDBRANCH   2  10
BRANCH   1  19
ATOM     19  C   UNL     1       3.223   6.981  19.407  0.00  0.00    +0.000 C 
BRANCH  19  21
ATOM     20  O   UNL     1       1.910   8.122  17.731  0.00  0.00    +0.000 OA
ATOM     21  C   UNL     1       2.146   7.931  18.923  0.00  0.00    +0.000 C 
BRANCH  21  22
ATOM     22  C   UNL     1       1.327   8.664  19.937  0.00  0.00    +0.000 A 
ATOM     23  C   UNL     1       0.635   9.814  19.522  0.00  0.00    +0.000 A 
ATOM     24  C   UNL     1      -0.111  10.565  20.433  0.00  0.00    +0.000 A 
ATOM     25  C   UNL     1      -0.175  10.168  21.765  0.00  0.00    +0.000 A 
ATOM     26 CL   UNL     1      -1.062  11.108  22.898  0.00  0.00    +0.000 Cl
ATOM     27  C   UNL     1       0.484   9.013  22.187  0.00  0.00    +0.000 A 
ATOM     28  C   UNL     1       1.235   8.260  21.276  0.00  0.00    +0.000 A 
ENDBRANCH  21  22
ENDBRANCH  19  21
ENDBRANCH   1  19
TORSDOF 6
ENDMDL
MODEL 6
REMARK VINA RESULT:      -8.3      1.122      1.575
REMARK  Name = 
REMARK  6 active torsions:
REMARK  status: ('A' for Active; 'I' for Inactive)
REMARK    1  A    between atoms: C_2  and  C_3
REMARK    2  A    between atoms: C_2  and  C_22
REMARK    3  A    between atoms: C_3  and  N_4
REMARK    4  A    between atoms: C_5  and  C_6
REMARK    5  A    between atoms: C_6  and  C_8
REMARK    6  A    between atoms: C_9  and  C_10
REMARK                            x       y       z     vdW  Elec       q    Type
REMARK                         _______ _______ _______ _____ _____    ______ ____
ROOT
ATOM      1  N   UNL     1       3.799   4.928  18.915  0.00  0.00    +0.000 N 
ATOM      2  C   UNL     1       4.673   4.107  18.224  0.00  0.00    +0.000 A 
ATOM      3  N   UNL     1       4.166   2.885  18.132  0.00  0.00    +0.000 NA
ATOM      4  C   UNL     1       2.952   2.920  18.762  0.00  0.00    +0.000 A 
ATOM      5  C   UNL     1       2.010   1.895  18.930  0.00  0.00    +0.000 A 
ATOM      6  C   UNL     1       0.834   2.171  19.636  0.00  0.00    +0.000 A 
ATOM      7  C   UNL     1       0.600   3.444  20.159  0.00  0.00    +0.000 A 
ATOM      8  C   UNL     1       1.526   4.478  19.991  0.00  0.00    +0.000 A 
ATOM      9  C   UNL     1       2.698   4.182  19.284  0.00  0.00    +0.000 A 
ENDROOT
BRANCH   2  10
ATOM     10  C   UNL     1       5.977   4.453  17.665  0.00  0.00    +0.000 C 
ATOM     11  O   UNL     1       6.868   5.013  18.304  0.00  0.00    +0.000 OA
BRANCH  10  12
ATOM     12  C   UNL     1       6.215   4.050  16.239  0.00  0.00    +0.000 C 
ATOM     13  C   UNL     1       5.501   4.535  15.211  0.00  0.00    +0.000 C 
BRANCH  13  14
ATOM     14  C   UNL     1       5.817   4.134  13.880  0.00  0.00    +0.000 A 
ATOM     15  C   UNL     1       5.024   3.479  12.941  0.00  0.00    +0.000 A 
ATOM     16  C   UNL     1       5.786   3.318  11.757  0.00  0.00    +0.000 A 
ATOM     17  C   UNL     1       7.009   3.877  12.020  0.00  0.00    +0.000 A 
ATOM     18  O   UNL     1       7.040   4.368  13.283  0.00  0.00    +0.000 OA
ENDBRANCH  13  14
ENDBRANCH  10  12
ENDBRANCH   2  10
BRANCH   1  19
ATOM     19  C   UNL     1       3.970   6.340  19.225  0.00  0.00    +0.000 C 
BRANCH  19  21
ATOM     20  O   UNL     1       3.611   7.201  16.998  0.00  0.00    +0.000 OA
ATOM     21  C   UNL     1       3.318   7.236  18.192  0.00  0.00    +0.000 C 
BRANCH  21  22
ATOM     22  C   UNL     1       2.267   8.202  18.640  0.00  0.00    +0.000 A 
ATOM     23  C   UNL     1       1.832   8.134  19.973  0.00  0.00    +0.000 A 
ATOM     24  C   UNL     1       0.823   8.980  20.438  0.00  0.00    +0.000 A 
ATOM     25  C   UNL     1       0.245   9.905  19.573  0.00  0.00    +0.000 A 
ATOM     26 CL   UNL     1      -1.022  10.924  20.129  0.00  0.00    +0.000 Cl
ATOM     27  C   UNL     1       0.685  10.002  18.253  0.00  0.00    +0.000 A 
ATOM     28  C   UNL     1       1.696   9.153  17.784  0.00  0.00    +0.000 A 
ENDBRANCH  21  22
ENDBRANCH  19  21
ENDBRANCH   1  19
TORSDOF 6
ENDMDL
MODEL 7
REMARK VINA RESULT:      -8.2      3.381      6.385
REMARK  Name = 
REMARK  6 active torsions:
REMARK  status: ('A' for Active; 'I' for Inactive)
REMARK    1  A    between atoms: C_2  and  C_3
REMARK    2  A    between atoms: C_2  and  C_22
REMARK    3  A    between atoms: C_3  and  N_4
REMARK    4  A    between atoms: C_5  and  C_6
REMARK    5  A    between atoms: C_6  and  C_8
REMARK    6  A    between atoms: C_9  and  C_10
REMARK                            x       y       z     vdW  Elec       q    Type
REMARK                         _______ _______ _______ _____ _____    ______ ____
ROOT
ATOM      1  N   UNL     1       5.952   4.265  15.910  0.00  0.00    +0.000 N 
ATOM      2  C   UNL     1       6.974   5.000  16.484  0.00  0.00    +0.000 A 
ATOM      3  N   UNL     1       7.811   5.418  15.544  0.00  0.00    +0.000 NA
ATOM      4  C   UNL     1       7.321   4.956  14.354  0.00  0.00    +0.000 A 
ATOM      5  C   UNL     1       7.823   5.135  13.057  0.00  0.00    +0.000 A 
ATOM      6  C   UNL     1       7.148   4.543  11.985  0.00  0.00    +0.000 A 
ATOM      7  C   UNL     1       5.992   3.791  12.200  0.00  0.00    +0.000 A 
ATOM      8  C   UNL     1       5.473   3.611  13.487  0.00  0.00    +0.000 A 
ATOM      9  C   UNL     1       6.165   4.210  14.547  0.00  0.00    +0.000 A 
ENDROOT
BRANCH   2  10
ATOM     10  C   UNL     1       7.179   5.299  17.899  0.00  0.00    +0.000 C 
ATOM     11  O   UNL     1       6.854   4.540  18.812  0.00  0.00    +0.000 OA
BRANCH  10  12
ATOM     12  C   UNL     1       7.862   6.598  18.209  0.00  0.00    +0.000 C 
ATOM     13  C   UNL     1       7.499   7.768  17.660  0.00  0.00    +0.000 C 
BRANCH  13  14
ATOM     14  C   UNL     1       8.172   8.966  18.039  0.00  0.00    +0.000 A 
ATOM     15  C   UNL     1       8.104  10.236  17.473  0.00  0.00    +0.000 A 
ATOM     16  C   UNL     1       8.947  11.097  18.220  0.00  0.00    +0.000 A 
ATOM     17  C   UNL     1       9.495  10.320  19.206  0.00  0.00    +0.000 A 
ATOM     18  O   UNL     1       9.040   9.047  19.109  0.00  0.00    +0.000 OA
ENDBRANCH  13  14
ENDBRANCH  10  12
ENDBRANCH   2  10
BRANCH   1  19
ATOM     19  C   UNL     1       4.826   3.637  16.586  0.00  0.00    +0.000 C 
BRANCH  19  21
ATOM     20  O   UNL     1       3.859   5.811  16.997  0.00  0.00    +0.000 OA
ATOM     21  C   UNL     1       3.985   4.639  17.349  0.00  0.00    +0.000 C 
BRANCH  21  22
ATOM     22  C   UNL     1       3.270   4.186  18.582  0.00  0.00    +0.000 A 
ATOM     23  C   UNL     1       3.383   2.836  18.953  0.00  0.00    +0.000 A 
ATOM     24  C   UNL     1       2.703   2.343  20.069  0.00  0.00    +0.000 A 
ATOM     25  C   UNL     1       1.910   3.200  20.826  0.00  0.00    +0.000 A 
ATOM     26 CL   UNL     1       1.042   2.592  22.180  0.00  0.00    +0.000 Cl
ATOM     27  C   UNL     1       1.808   4.549  20.486  0.00  0.00    +0.000 A 
ATOM     28  C   UNL     1       2.487   5.044  19.366  0.00  0.00    +0.000 A 
ENDBRANCH  21  22
ENDBRANCH  19  21
ENDBRANCH   1  19
TORSDOF 6
ENDMDL
MODEL 8
REMARK VINA RESULT:      -8.2      1.095      1.316
REMARK  Name = 
REMARK  6 active torsions:
REMARK  status: ('A' for Active; 'I' for Inactive)
REMARK    1  A    between atoms: C_2  and  C_3
REMARK    2  A    between atoms: C_2  and  C_22
REMARK    3  A    between atoms: C_3  and  N_4
REMARK    4  A    between atoms: C_5  and  C_6
REMARK    5  A    between atoms: C_6  and  C_8
REMARK    6  A    between atoms: C_9  and  C_10
REMARK                            x       y       z     vdW  Elec       q    Type
REMARK                         _______ _______ _______ _____ _____    ______ ____
ROOT
ATOM      1  N   UNL     1       3.090   5.016  18.439  0.00  0.00    +0.000 N 
ATOM      2  C   UNL     1       4.383   4.595  18.184  0.00  0.00    +0.000 A 
ATOM      3  N   UNL     1       4.717   3.627  19.025  0.00  0.00    +0.000 NA
ATOM      4  C   UNL     1       3.628   3.415  19.825  0.00  0.00    +0.000 A 
ATOM      5  C   UNL     1       3.456   2.490  20.864  0.00  0.00    +0.000 A 
ATOM      6  C   UNL     1       2.242   2.475  21.559  0.00  0.00    +0.000 A 
ATOM      7  C   UNL     1       1.218   3.361  21.222  0.00  0.00    +0.000 A 
ATOM      8  C   UNL     1       1.371   4.283  20.181  0.00  0.00    +0.000 A 
ATOM      9  C   UNL     1       2.594   4.284  19.499  0.00  0.00    +0.000 A 
ENDROOT
BRANCH   2  10
ATOM     10  C   UNL     1       5.307   5.101  17.172  0.00  0.00    +0.000 C 
ATOM     11  O   UNL     1       6.081   6.040  17.360  0.00  0.00    +0.000 OA
BRANCH  10  12
ATOM     12  C   UNL     1       5.308   4.380  15.856  0.00  0.00    +0.000 C 
ATOM     13  C   UNL     1       5.905   4.864  14.755  0.00  0.00    +0.000 C 
BRANCH  13  14
ATOM     14  C   UNL     1       5.897   4.097  13.553  0.00  0.00    +0.000 A 
ATOM     15  C   UNL     1       4.819   3.563  12.851  0.00  0.00    +0.000 A 
ATOM     16  C   UNL     1       5.326   2.896  11.708  0.00  0.00    +0.000 A 
ATOM     17  C   UNL     1       6.686   3.048  11.758  0.00  0.00    +0.000 A 
ATOM     18  O   UNL     1       7.039   3.762  12.854  0.00  0.00    +0.000 OA
ENDBRANCH  13  14
ENDBRANCH  10  12
ENDBRANCH   2  10
BRANCH   1  19
ATOM     19  C   UNL     1       2.341   6.050  17.740  0.00  0.00    +0.000 C 
BRANCH  19  21
ATOM     20  O   UNL     1       3.750   8.010  17.708  0.00  0.00    +0.000 OA
ATOM     21  C   UNL     1       2.758   7.443  18.162  0.00  0.00    +0.000 C 
BRANCH  21  22
ATOM     22  C   UNL     1       1.925   8.167  19.172  0.00  0.00    +0.000 A 
ATOM     23  C   UNL     1       1.254   9.332  18.763  0.00  0.00    +0.000 A 
ATOM     24  C   UNL     1       0.497  10.075  19.671  0.00  0.00    +0.000 A 
ATOM     25  C   UNL     1       0.399   9.654  20.994  0.00  0.00    +0.000 A 
ATOM     26 CL   UNL     1      -0.503  10.584  22.124  0.00  0.00    +0.000 Cl
ATOM     27  C   UNL     1       1.037   8.485  21.409  0.00  0.00    +0.000 A 
ATOM     28  C   UNL     1       1.799   7.740  20.501  0.00  0.00    +0.000 A 
ENDBRANCH  21  22
ENDBRANCH  19  21
ENDBRANCH   1  19
TORSDOF 6
ENDMDL
MODEL 9
REMARK VINA RESULT:      -8.0      1.131      1.634
REMARK  Name = 
REMARK  6 active torsions:
REMARK  status: ('A' for Active; 'I' for Inactive)
REMARK    1  A    between atoms: C_2  and  C_3
REMARK    2  A    between atoms: C_2  and  C_22
REMARK    3  A    between atoms: C_3  and  N_4
REMARK    4  A    between atoms: C_5  and  C_6
REMARK    5  A    between atoms: C_6  and  C_8
REMARK    6  A    between atoms: C_9  and  C_10
REMARK                            x       y       z     vdW  Elec       q    Type
REMARK                         _______ _______ _______ _____ _____    ______ ____
ROOT
ATOM      1  N   UNL     1       4.190   5.432  19.367  0.00  0.00    +0.000 N 
ATOM      2  C   UNL     1       5.322   4.649  19.226  0.00  0.00    +0.000 A 
ATOM      3  N   UNL     1       5.033   3.384  19.502  0.00  0.00    +0.000 NA
ATOM      4  C   UNL     1       3.702   3.350  19.816  0.00  0.00    +0.000 A 
ATOM      5  C   UNL     1       2.901   2.254  20.166  0.00  0.00    +0.000 A 
ATOM      6  C   UNL     1       1.553   2.474  20.466  0.00  0.00    +0.000 A 
ATOM      7  C   UNL     1       1.013   3.760  20.413  0.00  0.00    +0.000 A 
ATOM      8  C   UNL     1       1.797   4.862  20.056  0.00  0.00    +0.000 A 
ATOM      9  C   UNL     1       3.145   4.621  19.762  0.00  0.00    +0.000 A 
ENDROOT
BRANCH   2  10
ATOM     10  C   UNL     1       6.667   5.076  18.850  0.00  0.00    +0.000 C 
ATOM     11  O   UNL     1       7.532   5.404  19.662  0.00  0.00    +0.000 OA
BRANCH  10  12
ATOM     12  C   UNL     1       6.981   5.061  17.383  0.00  0.00    +0.000 C 
ATOM     13  C   UNL     1       6.255   4.379  16.484  0.00  0.00    +0.000 C 
BRANCH  13  14
ATOM     14  C   UNL     1       6.594   4.450  15.101  0.00  0.00    +0.000 A 
ATOM     15  C   UNL     1       6.041   3.770  14.018  0.00  0.00    +0.000 A 
ATOM     16  C   UNL     1       6.709   4.197  12.844  0.00  0.00    +0.000 A 
ATOM     17  C   UNL     1       7.639   5.115  13.254  0.00  0.00    +0.000 A 
ATOM     18  O   UNL     1       7.580   5.275  14.599  0.00  0.00    +0.000 OA
ENDBRANCH  13  14
ENDBRANCH  10  12
ENDBRANCH   2  10
BRANCH   1  19
ATOM     19  C   UNL     1       4.074   6.866  19.151  0.00  0.00    +0.000 C 
BRANCH  19  21
ATOM     20  O   UNL     1       2.508   6.620  17.329  0.00  0.00    +0.000 OA
ATOM     21  C   UNL     1       2.841   7.226  18.347  0.00  0.00    +0.000 C 
BRANCH  21  22
ATOM     22  C   UNL     1       1.986   8.361  18.811  0.00  0.00    +0.000 A 
ATOM     23  C   UNL     1       1.523   8.341  20.137  0.00  0.00    +0.000 A 
ATOM     24  C   UNL     1       0.686   9.350  20.616  0.00  0.00    +0.000 A 
ATOM     25  C   UNL     1       0.310  10.392  19.773  0.00  0.00    +0.000 A 
ATOM     26 CL   UNL     1      -0.749  11.619  20.346  0.00  0.00    +0.000 Cl
ATOM     27  C   UNL     1       0.783  10.441  18.462  0.00  0.00    +0.000 A 
ATOM     28  C   UNL     1       1.621   9.428  17.979  0.00  0.00    +0.000 A 
ENDBRANCH  21  22
ENDBRANCH  19  21
ENDBRANCH   1  19
TORSDOF 6
ENDMDL
