MODEL 1
REMARK VINA RESULT:      -7.0      0.000      0.000
REMARK  Name = 
REMARK  9 active torsions:
REMARK  status: ('A' for Active; 'I' for Inactive)
REMARK    1  A    between atoms: C_1  and  C_2
REMARK    2  A    between atoms: C_2  and  C_3
REMARK    3  A    between atoms: C_3  and  C_4
REMARK    4  A    between atoms: C_4  and  C_5
REMARK    5  A    between atoms: C_4  and  N_8
REMARK    6  A    between atoms: C_5  and  C_6
REMARK    7  A    between atoms: C_6  and  C_7
REMARK    8  A    between atoms: C_9  and  C_11
REMARK    9  A    between atoms: C_16  and  C_17
REMARK                            x       y       z     vdW  Elec       q    Type
REMARK                         _______ _______ _______ _____ _____    ______ ____
ROOT
ATOM      1  N   UNL     1       3.176   5.155  19.003  0.00  0.00    +0.000 N 
ATOM      2  C   UNL     1       4.316   4.391  18.841  0.00  0.00    +0.000 C 
ATOM      3  O   UNL     1       4.640   3.472  19.585  0.00  0.00    +0.000 OA
ATOM      4  H   UNL     1       2.921   5.807  18.273  0.00  0.00    +0.000 HD
ENDROOT
BRANCH   2   5
ATOM      5  C   UNL     1       5.174   4.715  17.665  0.00  0.00    +0.000 A 
ATOM      6  C   UNL     1       6.261   5.600  17.783  0.00  0.00    +0.000 A 
ATOM      7  C   UNL     1       7.103   5.870  16.694  0.00  0.00    +0.000 A 
ATOM      8  C   UNL     1       6.845   5.222  15.479  0.00  0.00    +0.000 A 
ATOM      9  N   UNL     1       7.499   5.276  14.277  0.00  0.00    +0.000 NA
ATOM     10  C   UNL     1       6.819   4.440  13.515  0.00  0.00    +0.000 A 
ATOM     11  C   UNL     1       7.075   4.065  12.112  0.00  0.00    +0.000 C 
ATOM     12  O   UNL     1       5.746   3.847  14.129  0.00  0.00    +0.000 OA
ATOM     13  C   UNL     1       5.769   4.353  15.397  0.00  0.00    +0.000 A 
ATOM     14  C   UNL     1       4.907   4.059  16.448  0.00  0.00    +0.000 A 
ENDBRANCH   2   5
BRANCH   1  15
ATOM     15  C   UNL     1       2.226   4.974  20.109  0.00  0.00    +0.000 C 
BRANCH  15  16
ATOM     16  C   UNL     1       1.672   6.355  20.536  0.00  0.00    +0.000 C 
BRANCH  16  18
ATOM     17  C   UNL     1       1.371   8.805  19.977  0.00  0.00    +0.000 C 
ATOM     18  C   UNL     1       2.135   7.526  19.663  0.00  0.00    +0.000 C 
ENDBRANCH  16  18
ENDBRANCH  15  16
BRANCH  15  19
ATOM     19  C   UNL     1       1.126   3.943  19.770  0.00  0.00    +0.000 C 
BRANCH  19  20
ATOM     20  C   UNL     1       1.045   2.766  20.744  0.00  0.00    +0.000 C 
ATOM     21  C   UNL     1       2.077   2.899  21.854  0.00  0.00    +0.000 C 
ENDBRANCH  19  20
ENDBRANCH  15  19
ENDBRANCH   1  15
TORSDOF 6
ENDMDL
MODEL 2
REMARK VINA RESULT:      -6.8      2.447      7.490
REMARK  Name = 
REMARK  9 active torsions:
REMARK  status: ('A' for Active; 'I' for Inactive)
REMARK    1  A    between atoms: C_1  and  C_2
REMARK    2  A    between atoms: C_2  and  C_3
REMARK    3  A    between atoms: C_3  and  C_4
REMARK    4  A    between atoms: C_4  and  C_5
REMARK    5  A    between atoms: C_4  and  N_8
REMARK    6  A    between atoms: C_5  and  C_6
REMARK    7  A    between atoms: C_6  and  C_7
REMARK    8  A    between atoms: C_9  and  C_11
REMARK    9  A    between atoms: C_16  and  C_17
REMARK                            x       y       z     vdW  Elec       q    Type
REMARK                         _______ _______ _______ _____ _____    ______ ____
ROOT
ATOM      1  N   UNL     1       4.790   5.752  17.640  0.00  0.00    +0.000 N 
ATOM      2  C   UNL     1       3.438   5.628  17.900  0.00  0.00    +0.000 C 
ATOM      3  O   UNL     1       2.791   4.606  17.706  0.00  0.00    +0.000 OA
ATOM      4  H   UNL     1       5.269   6.588  17.948  0.00  0.00    +0.000 HD
ENDROOT
BRANCH   2   5
ATOM      5  C   UNL     1       2.757   6.825  18.474  0.00  0.00    +0.000 A 
ATOM      6  C   UNL     1       2.462   7.942  17.672  0.00  0.00    +0.000 A 
ATOM      7  C   UNL     1       1.776   9.050  18.192  0.00  0.00    +0.000 A 
ATOM      8  C   UNL     1       1.376   9.015  19.535  0.00  0.00    +0.000 A 
ATOM      9  N   UNL     1       0.688   9.926  20.290  0.00  0.00    +0.000 NA
ATOM     10  C   UNL     1       0.584   9.338  21.467  0.00  0.00    +0.000 A 
ATOM     11  C   UNL     1      -0.086   9.835  22.683  0.00  0.00    +0.000 C 
ATOM     12  O   UNL     1       1.172   8.102  21.546  0.00  0.00    +0.000 OA
ATOM     13  C   UNL     1       1.680   7.897  20.295  0.00  0.00    +0.000 A 
ATOM     14  C   UNL     1       2.360   6.779  19.823  0.00  0.00    +0.000 A 
ENDBRANCH   2   5
BRANCH   1  15
ATOM     15  C   UNL     1       5.611   4.674  17.071  0.00  0.00    +0.000 C 
BRANCH  15  16
ATOM     16  C   UNL     1       5.310   4.551  15.558  0.00  0.00    +0.000 C 
BRANCH  16  18
ATOM     17  C   UNL     1       6.193   3.763  13.320  0.00  0.00    +0.000 C 
ATOM     18  C   UNL     1       6.547   4.364  14.673  0.00  0.00    +0.000 C 
ENDBRANCH  16  18
ENDBRANCH  15  16
BRANCH  15  19
ATOM     19  C   UNL     1       7.112   4.852  17.392  0.00  0.00    +0.000 C 
BRANCH  19  20
ATOM     20  C   UNL     1       7.405   5.887  18.478  0.00  0.00    +0.000 C 
ATOM     21  C   UNL     1       7.795   7.226  17.871  0.00  0.00    +0.000 C 
ENDBRANCH  19  20
ENDBRANCH  15  19
ENDBRANCH   1  15
TORSDOF 6
ENDMDL
MODEL 3
REMARK VINA RESULT:      -6.8      2.352      7.703
REMARK  Name = 
REMARK  9 active torsions:
REMARK  status: ('A' for Active; 'I' for Inactive)
REMARK    1  A    between atoms: C_1  and  C_2
REMARK    2  A    between atoms: C_2  and  C_3
REMARK    3  A    between atoms: C_3  and  C_4
REMARK    4  A    between atoms: C_4  and  C_5
REMARK    5  A    between atoms: C_4  and  N_8
REMARK    6  A    between atoms: C_5  and  C_6
REMARK    7  A    between atoms: C_6  and  C_7
REMARK    8  A    between atoms: C_9  and  C_11
REMARK    9  A    between atoms: C_16  and  C_17
REMARK                            x       y       z     vdW  Elec       q    Type
REMARK                         _______ _______ _______ _____ _____    ______ ____
ROOT
ATOM      1  N   UNL     1       5.200   3.759  13.515  0.00  0.00    +0.000 N 
ATOM      2  C   UNL     1       5.984   4.603  14.279  0.00  0.00    +0.000 C 
ATOM      3  O   UNL     1       6.987   5.172  13.866  0.00  0.00    +0.000 OA
ATOM      4  H   UNL     1       4.322   3.433  13.897  0.00  0.00    +0.000 HD
ENDROOT
BRANCH   2   5
ATOM      5  C   UNL     1       5.540   4.833  15.685  0.00  0.00    +0.000 A 
ATOM      6  C   UNL     1       5.754   6.071  16.317  0.00  0.00    +0.000 A 
ATOM      7  C   UNL     1       5.295   6.312  17.621  0.00  0.00    +0.000 A 
ATOM      8  C   UNL     1       4.600   5.289  18.280  0.00  0.00    +0.000 A 
ATOM      9  N   UNL     1       4.029   5.249  19.524  0.00  0.00    +0.000 NA
ATOM     10  C   UNL     1       3.498   4.042  19.584  0.00  0.00    +0.000 A 
ATOM     11  C   UNL     1       2.725   3.435  20.684  0.00  0.00    +0.000 C 
ATOM     12  O   UNL     1       3.694   3.273  18.466  0.00  0.00    +0.000 OA
ATOM     13  C   UNL     1       4.403   4.083  17.626  0.00  0.00    +0.000 A 
ATOM     14  C   UNL     1       4.843   3.799  16.338  0.00  0.00    +0.000 A 
ENDBRANCH   2   5
BRANCH   1  15
ATOM     15  C   UNL     1       5.495   3.419  12.116  0.00  0.00    +0.000 C 
BRANCH  15  16
ATOM     16  C   UNL     1       6.560   2.297  12.078  0.00  0.00    +0.000 C 
BRANCH  16  18
ATOM     17  C   UNL     1       6.212  -0.103  11.353  0.00  0.00    +0.000 C 
ATOM     18  C   UNL     1       6.430   1.332  10.895  0.00  0.00    +0.000 C 
ENDBRANCH  16  18
ENDBRANCH  15  16
BRANCH  15  19
ATOM     19  C   UNL     1       4.218   3.089  11.313  0.00  0.00    +0.000 C 
BRANCH  19  20
ATOM     20  C   UNL     1       3.746   4.213  10.390  0.00  0.00    +0.000 C 
ATOM     21  C   UNL     1       2.574   3.763   9.530  0.00  0.00    +0.000 C 
ENDBRANCH  19  20
ENDBRANCH  15  19
ENDBRANCH   1  15
TORSDOF 6
ENDMDL
MODEL 4
REMARK VINA RESULT:      -6.7      2.253      7.687
REMARK  Name = 
REMARK  9 active torsions:
REMARK  status: ('A' for Active; 'I' for Inactive)
REMARK    1  A    between atoms: C_1  and  C_2
REMARK    2  A    between atoms: C_2  and  C_3
REMARK    3  A    between atoms: C_3  and  C_4
REMARK    4  A    between atoms: C_4  and  C_5
REMARK    5  A    between atoms: C_4  and  N_8
REMARK    6  A    between atoms: C_5  and  C_6
REMARK    7  A    between atoms: C_6  and  C_7
REMARK    8  A    between atoms: C_9  and  C_11
REMARK    9  A    between atoms: C_16  and  C_17
REMARK                            x       y       z     vdW  Elec       q    Type
REMARK                         _______ _______ _______ _____ _____    ______ ____
ROOT
ATOM      1  N   UNL     1       6.375   3.376  13.355  0.00  0.00    +0.000 N 
ATOM      2  C   UNL     1       6.794   4.431  14.143  0.00  0.00    +0.000 C 
ATOM      3  O   UNL     1       7.411   5.403  13.723  0.00  0.00    +0.000 OA
ATOM      4  H   UNL     1       5.764   2.680  13.760  0.00  0.00    +0.000 HD
ENDROOT
BRANCH   2   5
ATOM      5  C   UNL     1       6.438   4.363  15.591  0.00  0.00    +0.000 A 
ATOM      6  C   UNL     1       7.372   4.713  16.583  0.00  0.00    +0.000 A 
ATOM      7  C   UNL     1       7.029   4.700  17.942  0.00  0.00    +0.000 A 
ATOM      8  C   UNL     1       5.720   4.343  18.294  0.00  0.00    +0.000 A 
ATOM      9  N   UNL     1       5.110   4.265  19.518  0.00  0.00    +0.000 NA
ATOM     10  C   UNL     1       3.875   3.904  19.226  0.00  0.00    +0.000 A 
ATOM     11  C   UNL     1       2.742   3.686  20.146  0.00  0.00    +0.000 C 
ATOM     12  O   UNL     1       3.630   3.721  17.889  0.00  0.00    +0.000 OA
ATOM     13  C   UNL     1       4.824   4.008  17.292  0.00  0.00    +0.000 A 
ATOM     14  C   UNL     1       5.121   4.003  15.933  0.00  0.00    +0.000 A 
ENDBRANCH   2   5
BRANCH   1  15
ATOM     15  C   UNL     1       6.646   3.281  11.913  0.00  0.00    +0.000 C 
BRANCH  15  16
ATOM     16  C   UNL     1       7.089   1.838  11.573  0.00  0.00    +0.000 C 
BRANCH  16  18
ATOM     17  C   UNL     1       6.182  -0.514  11.347  0.00  0.00    +0.000 C 
ATOM     18  C   UNL     1       5.986   0.952  10.986  0.00  0.00    +0.000 C 
ENDBRANCH  16  18
ENDBRANCH  15  16
BRANCH  15  19
ATOM     19  C   UNL     1       5.457   3.781  11.062  0.00  0.00    +0.000 C 
BRANCH  19  20
ATOM     20  C   UNL     1       4.086   3.333  11.570  0.00  0.00    +0.000 C 
ATOM     21  C   UNL     1       3.071   3.277  10.438  0.00  0.00    +0.000 C 
ENDBRANCH  19  20
ENDBRANCH  15  19
ENDBRANCH   1  15
TORSDOF 6
ENDMDL
MODEL 5
REMARK VINA RESULT:      -6.7      2.244      7.677
REMARK  Name = 
REMARK  9 active torsions:
REMARK  status: ('A' for Active; 'I' for Inactive)
REMARK    1  A    between atoms: C_1  and  C_2
REMARK    2  A    between atoms: C_2  and  C_3
REMARK    3  A    between atoms: C_3  and  C_4
REMARK    4  A    between atoms: C_4  and  C_5
REMARK    5  A    between atoms: C_4  and  N_8
REMARK    6  A    between atoms: C_5  and  C_6
REMARK    7  A    between atoms: C_6  and  C_7
REMARK    8  A    between atoms: C_9  and  C_11
REMARK    9  A    between atoms: C_16  and  C_17
REMARK                            x       y       z     vdW  Elec       q    Type
REMARK                         _______ _______ _______ _____ _____    ______ ____
ROOT
ATOM      1  N   UNL     1       5.564   3.447  13.491  0.00  0.00    +0.000 N 
ATOM      2  C   UNL     1       6.364   4.333  14.189  0.00  0.00    +0.000 C 
ATOM      3  O   UNL     1       7.218   5.044  13.672  0.00  0.00    +0.000 OA
ATOM      4  H   UNL     1       4.802   2.995  13.977  0.00  0.00    +0.000 HD
ENDROOT
BRANCH   2   5
ATOM      5  C   UNL     1       6.134   4.421  15.660  0.00  0.00    +0.000 A 
ATOM      6  C   UNL     1       7.204   4.632  16.548  0.00  0.00    +0.000 A 
ATOM      7  C   UNL     1       6.989   4.767  17.928  0.00  0.00    +0.000 A 
ATOM      8  C   UNL     1       5.673   4.701  18.405  0.00  0.00    +0.000 A 
ATOM      9  N   UNL     1       5.172   4.818  19.675  0.00  0.00    +0.000 NA
ATOM     10  C   UNL     1       3.869   4.695  19.506  0.00  0.00    +0.000 A 
ATOM     11  C   UNL     1       2.804   4.763  20.524  0.00  0.00    +0.000 C 
ATOM     12  O   UNL     1       3.474   4.489  18.210  0.00  0.00    +0.000 OA
ATOM     13  C   UNL     1       4.643   4.496  17.502  0.00  0.00    +0.000 A 
ATOM     14  C   UNL     1       4.809   4.353  16.129  0.00  0.00    +0.000 A 
ENDBRANCH   2   5
BRANCH   1  15
ATOM     15  C   UNL     1       5.663   3.232  12.040  0.00  0.00    +0.000 C 
BRANCH  15  16
ATOM     16  C   UNL     1       5.549   1.718  11.741  0.00  0.00    +0.000 C 
BRANCH  16  18
ATOM     17  C   UNL     1       7.920   2.026  10.910  0.00  0.00    +0.000 C 
ATOM     18  C   UNL     1       6.674   1.153  10.868  0.00  0.00    +0.000 C 
ENDBRANCH  16  18
ENDBRANCH  15  16
BRANCH  15  19
ATOM     19  C   UNL     1       4.653   4.097  11.253  0.00  0.00    +0.000 C 
BRANCH  19  20
ATOM     20  C   UNL     1       3.498   3.309  10.633  0.00  0.00    +0.000 C 
ATOM     21  C   UNL     1       2.835   4.095   9.512  0.00  0.00    +0.000 C 
ENDBRANCH  19  20
ENDBRANCH  15  19
ENDBRANCH   1  15
TORSDOF 6
ENDMDL
MODEL 6
REMARK VINA RESULT:      -6.6      2.638      7.146
REMARK  Name = 
REMARK  9 active torsions:
REMARK  status: ('A' for Active; 'I' for Inactive)
REMARK    1  A    between atoms: C_1  and  C_2
REMARK    2  A    between atoms: C_2  and  C_3
REMARK    3  A    between atoms: C_3  and  C_4
REMARK    4  A    between atoms: C_4  and  C_5
REMARK    5  A    between atoms: C_4  and  N_8
REMARK    6  A    between atoms: C_5  and  C_6
REMARK    7  A    between atoms: C_6  and  C_7
REMARK    8  A    between atoms: C_9  and  C_11
REMARK    9  A    between atoms: C_16  and  C_17
REMARK                            x       y       z     vdW  Elec       q    Type
REMARK                         _______ _______ _______ _____ _____    ______ ____
ROOT
ATOM      1  N   UNL     1       4.776   5.744  17.307  0.00  0.00    +0.000 N 
ATOM      2  C   UNL     1       3.473   5.475  17.683  0.00  0.00    +0.000 C 
ATOM      3  O   UNL     1       2.902   4.412  17.475  0.00  0.00    +0.000 OA
ATOM      4  H   UNL     1       5.208   6.599  17.630  0.00  0.00    +0.000 HD
ENDROOT
BRANCH   2   5
ATOM      5  C   UNL     1       2.752   6.562  18.407  0.00  0.00    +0.000 A 
ATOM      6  C   UNL     1       2.395   6.417  19.760  0.00  0.00    +0.000 A 
ATOM      7  C   UNL     1       1.763   7.454  20.462  0.00  0.00    +0.000 A 
ATOM      8  C   UNL     1       1.504   8.653  19.784  0.00  0.00    +0.000 A 
ATOM      9  N   UNL     1       0.928   9.820  20.213  0.00  0.00    +0.000 NA
ATOM     10  C   UNL     1       0.975  10.598  19.149  0.00  0.00    +0.000 A 
ATOM     11  C   UNL     1       0.520  11.995  19.015  0.00  0.00    +0.000 C 
ATOM     12  O   UNL     1       1.529  10.018  18.036  0.00  0.00    +0.000 OA
ATOM     13  C   UNL     1       1.871   8.763  18.453  0.00  0.00    +0.000 A 
ATOM     14  C   UNL     1       2.496   7.762  17.718  0.00  0.00    +0.000 A 
ENDBRANCH   2   5
BRANCH   1  15
ATOM     15  C   UNL     1       5.626   4.789  16.582  0.00  0.00    +0.000 C 
BRANCH  15  16
ATOM     16  C   UNL     1       5.571   5.105  15.068  0.00  0.00    +0.000 C 
BRANCH  16  18
ATOM     17  C   UNL     1       6.146   3.633  13.091  0.00  0.00    +0.000 C 
ATOM     18  C   UNL     1       6.692   4.468  14.240  0.00  0.00    +0.000 C 
ENDBRANCH  16  18
ENDBRANCH  15  16
BRANCH  15  19
ATOM     19  C   UNL     1       7.061   4.736  17.152  0.00  0.00    +0.000 C 
BRANCH  19  20
ATOM     20  C   UNL     1       7.509   6.020  17.850  0.00  0.00    +0.000 C 
ATOM     21  C   UNL     1       7.779   5.778  19.328  0.00  0.00    +0.000 C 
ENDBRANCH  19  20
ENDBRANCH  15  19
ENDBRANCH   1  15
TORSDOF 6
ENDMDL
MODEL 7
REMARK VINA RESULT:      -6.5      2.272      7.500
REMARK  Name = 
REMARK  9 active torsions:
REMARK  status: ('A' for Active; 'I' for Inactive)
REMARK    1  A    between atoms: C_1  and  C_2
REMARK    2  A    between atoms: C_2  and  C_3
REMARK    3  A    between atoms: C_3  and  C_4
REMARK    4  A    between atoms: C_4  and  C_5
REMARK    5  A    between atoms: C_4  and  N_8
REMARK    6  A    between atoms: C_5  and  C_6
REMARK    7  A    between atoms: C_6  and  C_7
REMARK    8  A    between atoms: C_9  and  C_11
REMARK    9  A    between atoms: C_16  and  C_17
REMARK                            x       y       z     vdW  Elec       q    Type
REMARK                         _______ _______ _______ _____ _____    ______ ____
ROOT
ATOM      1  N   UNL     1       4.937   3.728  13.537  0.00  0.00    +0.000 N 
ATOM      2  C   UNL     1       5.795   4.479  14.318  0.00  0.00    +0.000 C 
ATOM      3  O   UNL     1       6.934   4.788  13.989  0.00  0.00    +0.000 OA
ATOM      4  H   UNL     1       3.974   3.628  13.830  0.00  0.00    +0.000 HD
ENDROOT
BRANCH   2   5
ATOM      5  C   UNL     1       5.262   4.947  15.631  0.00  0.00    +0.000 A 
ATOM      6  C   UNL     1       5.296   6.309  15.981  0.00  0.00    +0.000 A 
ATOM      7  C   UNL     1       4.751   6.764  17.191  0.00  0.00    +0.000 A 
ATOM      8  C   UNL     1       4.155   5.826  18.045  0.00  0.00    +0.000 A 
ATOM      9  N   UNL     1       3.536   5.982  19.257  0.00  0.00    +0.000 NA
ATOM     10  C   UNL     1       3.153   4.759  19.569  0.00  0.00    +0.000 A 
ATOM     11  C   UNL     1       2.408   4.309  20.761  0.00  0.00    +0.000 C 
ATOM     12  O   UNL     1       3.491   3.798  18.651  0.00  0.00    +0.000 OA
ATOM     13  C   UNL     1       4.135   4.493  17.667  0.00  0.00    +0.000 A 
ATOM     14  C   UNL     1       4.665   3.998  16.481  0.00  0.00    +0.000 A 
ENDBRANCH   2   5
BRANCH   1  15
ATOM     15  C   UNL     1       5.302   3.184  12.221  0.00  0.00    +0.000 C 
BRANCH  15  16
ATOM     16  C   UNL     1       4.610   4.018  11.116  0.00  0.00    +0.000 C 
BRANCH  16  18
ATOM     17  C   UNL     1       2.720   4.249   9.449  0.00  0.00    +0.000 C 
ATOM     18  C   UNL     1       3.361   3.368  10.512  0.00  0.00    +0.000 C 
ENDBRANCH  16  18
ENDBRANCH  15  16
BRANCH  15  19
ATOM     19  C   UNL     1       6.831   3.065  12.043  0.00  0.00    +0.000 C 
BRANCH  19  20
ATOM     20  C   UNL     1       7.268   1.977  11.060  0.00  0.00    +0.000 C 
ATOM     21  C   UNL     1       6.312   0.793  11.090  0.00  0.00    +0.000 C 
ENDBRANCH  19  20
ENDBRANCH  15  19
ENDBRANCH   1  15
TORSDOF 6
ENDMDL
MODEL 8
REMARK VINA RESULT:      -6.4      0.942      1.155
REMARK  Name = 
REMARK  9 active torsions:
REMARK  status: ('A' for Active; 'I' for Inactive)
REMARK    1  A    between atoms: C_1  and  C_2
REMARK    2  A    between atoms: C_2  and  C_3
REMARK    3  A    between atoms: C_3  and  C_4
REMARK    4  A    between atoms: C_4  and  C_5
REMARK    5  A    between atoms: C_4  and  N_8
REMARK    6  A    between atoms: C_5  and  C_6
REMARK    7  A    between atoms: C_6  and  C_7
REMARK    8  A    between atoms: C_9  and  C_11
REMARK    9  A    between atoms: C_16  and  C_17
REMARK                            x       y       z     vdW  Elec       q    Type
REMARK                         _______ _______ _______ _____ _____    ______ ____
ROOT
ATOM      1  N   UNL     1       3.261   6.224  19.033  0.00  0.00    +0.000 N 
ATOM      2  C   UNL     1       4.439   5.503  19.083  0.00  0.00    +0.000 C 
ATOM      3  O   UNL     1       4.831   4.892  20.070  0.00  0.00    +0.000 OA
ATOM      4  H   UNL     1       2.953   6.590  18.142  0.00  0.00    +0.000 HD
ENDROOT
BRANCH   2   5
ATOM      5  C   UNL     1       5.251   5.467  17.832  0.00  0.00    +0.000 A 
ATOM      6  C   UNL     1       6.503   6.105  17.764  0.00  0.00    +0.000 A 
ATOM      7  C   UNL     1       7.295   6.032  16.608  0.00  0.00    +0.000 A 
ATOM      8  C   UNL     1       6.815   5.293  15.519  0.00  0.00    +0.000 A 
ATOM      9  N   UNL     1       7.371   5.037  14.293  0.00  0.00    +0.000 NA
ATOM     10  C   UNL     1       6.476   4.270  13.701  0.00  0.00    +0.000 A 
ATOM     11  C   UNL     1       6.538   3.657  12.360  0.00  0.00    +0.000 C 
ATOM     12  O   UNL     1       5.354   4.014  14.447  0.00  0.00    +0.000 OA
ATOM     13  C   UNL     1       5.579   4.675  15.621  0.00  0.00    +0.000 A 
ATOM     14  C   UNL     1       4.760   4.722  16.743  0.00  0.00    +0.000 A 
ENDBRANCH   2   5
BRANCH   1  15
ATOM     15  C   UNL     1       2.346   6.367  20.175  0.00  0.00    +0.000 C 
BRANCH  15  16
ATOM     16  C   UNL     1       1.718   7.781  20.150  0.00  0.00    +0.000 C 
BRANCH  16  18
ATOM     17  C   UNL     1       0.264   9.502  21.301  0.00  0.00    +0.000 C 
ATOM     18  C   UNL     1       1.039   8.202  21.457  0.00  0.00    +0.000 C 
ENDBRANCH  16  18
ENDBRANCH  15  16
BRANCH  15  19
ATOM     19  C   UNL     1       1.305   5.227  20.235  0.00  0.00    +0.000 C 
BRANCH  19  20
ATOM     20  C   UNL     1       1.718   4.042  21.108  0.00  0.00    +0.000 C 
ATOM     21  C   UNL     1       1.262   2.725  20.499  0.00  0.00    +0.000 C 
ENDBRANCH  19  20
ENDBRANCH  15  19
ENDBRANCH   1  15
TORSDOF 6
ENDMDL
MODEL 9
REMARK VINA RESULT:      -6.4      2.720      7.282
REMARK  Name = 
REMARK  9 active torsions:
REMARK  status: ('A' for Active; 'I' for Inactive)
REMARK    1  A    between atoms: C_1  and  C_2
REMARK    2  A    between atoms: C_2  and  C_3
REMARK    3  A    between atoms: C_3  and  C_4
REMARK    4  A    between atoms: C_4  and  C_5
REMARK    5  A    between atoms: C_4  and  N_8
REMARK    6  A    between atoms: C_5  and  C_6
REMARK    7  A    between atoms: C_6  and  C_7
REMARK    8  A    between atoms: C_9  and  C_11
REMARK    9  A    between atoms: C_16  and  C_17
REMARK                            x       y       z     vdW  Elec       q    Type
REMARK                         _______ _______ _______ _____ _____    ______ ____
ROOT
ATOM      1  N   UNL     1       3.041   5.158  17.805  0.00  0.00    +0.000 N 
ATOM      2  C   UNL     1       3.342   5.942  18.903  0.00  0.00    +0.000 C 
ATOM      3  O   UNL     1       4.204   5.667  19.729  0.00  0.00    +0.000 OA
ATOM      4  H   UNL     1       2.406   5.522  17.108  0.00  0.00    +0.000 HD
ENDROOT
BRANCH   2   5
ATOM      5  C   UNL     1       2.568   7.209  19.049  0.00  0.00    +0.000 A 
ATOM      6  C   UNL     1       2.352   8.057  17.948  0.00  0.00    +0.000 A 
ATOM      7  C   UNL     1       1.582   9.223  18.066  0.00  0.00    +0.000 A 
ATOM      8  C   UNL     1       1.015   9.521  19.313  0.00  0.00    +0.000 A 
ATOM      9  N   UNL     1       0.216  10.560  19.710  0.00  0.00    +0.000 NA
ATOM     10  C   UNL     1      -0.024  10.299  20.981  0.00  0.00    +0.000 A 
ATOM     11  C   UNL     1      -0.854  11.062  21.932  0.00  0.00    +0.000 C 
ATOM     12  O   UNL     1       0.577   9.163  21.458  0.00  0.00    +0.000 OA
ATOM     13  C   UNL     1       1.244   8.662  20.376  0.00  0.00    +0.000 A 
ATOM     14  C   UNL     1       2.003   7.499  20.306  0.00  0.00    +0.000 A 
ENDBRANCH   2   5
BRANCH   1  15
ATOM     15  C   UNL     1       3.703   3.879  17.514  0.00  0.00    +0.000 C 
BRANCH  15  16
ATOM     16  C   UNL     1       2.638   2.756  17.456  0.00  0.00    +0.000 C 
BRANCH  16  18
ATOM     17  C   UNL     1       0.749   2.669  19.138  0.00  0.00    +0.000 C 
ATOM     18  C   UNL     1       2.176   2.243  18.824  0.00  0.00    +0.000 C 
ENDBRANCH  16  18
ENDBRANCH  15  16
BRANCH  15  19
ATOM     19  C   UNL     1       4.591   3.955  16.252  0.00  0.00    +0.000 C 
BRANCH  19  20
ATOM     20  C   UNL     1       5.981   4.543  16.496  0.00  0.00    +0.000 C 
ATOM     21  C   UNL     1       6.740   4.722  15.189  0.00  0.00    +0.000 C 
ENDBRANCH  19  20
ENDBRANCH  15  19
ENDBRANCH   1  15
TORSDOF 6
ENDMDL
