MODEL 1
REMARK VINA RESULT:      -8.8      0.000      0.000
REMARK  Name = 
REMARK  10 active torsions:
REMARK  status: ('A' for Active; 'I' for Inactive)
REMARK    1  A    between atoms: C_1  and  O_2
REMARK    2  A    between atoms: O_2  and  C_3
REMARK    3  A    between atoms: C_5  and  C_6
REMARK    4  A    between atoms: C_7  and  C_8
REMARK    5  A    between atoms: C_11  and  N_12
REMARK    6  A    between atoms: N_12  and  C_13
REMARK    7  A    between atoms: C_13  and  C_14
REMARK    8  A    between atoms: C_19  and  O_20
REMARK    9  A    between atoms: C_24  and  O_25
REMARK   10  A    between atoms: O_25  and  C_26
REMARK                            x       y       z     vdW  Elec       q    Type
REMARK                         _______ _______ _______ _____ _____    ______ ____
ROOT
ATOM      1  C   UNL     1       7.405   7.520  17.766  0.00  0.00    +0.000 A 
ATOM      2  C   UNL     1       7.909   6.441  18.490  0.00  0.00    +0.000 A 
ATOM      3  C   UNL     1       7.305   5.181  18.393  0.00  0.00    +0.000 A 
ATOM      4  C   UNL     1       6.168   4.976  17.600  0.00  0.00    +0.000 A 
ATOM      5  C   UNL     1       5.691   6.065  16.858  0.00  0.00    +0.000 A 
ATOM      6  C   UNL     1       6.292   7.328  16.947  0.00  0.00    +0.000 A 
ENDROOT
BRANCH   1   8
ATOM      7  C   UNL     1       8.754   9.200  18.934  0.00  0.00    +0.000 C 
ATOM      8  C   UNL     1       8.054   8.829  17.850  0.00  0.00    +0.000 C 
BRANCH   7  11
ATOM      9  C   UNL     1      10.115  12.346  20.521  0.00  0.00    +0.000 A 
ATOM     10  C   UNL     1       9.409  11.152  20.319  0.00  0.00    +0.000 A 
ATOM     11  C   UNL     1       9.438  10.495  19.082  0.00  0.00    +0.000 A 
ATOM     12  C   UNL     1      10.195  11.059  18.047  0.00  0.00    +0.000 A 
ATOM     13  C   UNL     1      10.910  12.245  18.237  0.00  0.00    +0.000 A 
ATOM     14  C   UNL     1      10.866  12.887  19.474  0.00  0.00    +0.000 A 
BRANCH   9  16
ATOM     15  C   UNL     1       8.801  12.607  22.486  0.00  0.00    +0.000 C 
ATOM     16  O   UNL     1      10.008  12.876  21.779  0.00  0.00    +0.000 OA
ENDBRANCH   9  16
BRANCH  13  17
ATOM     17  O   UNL     1      11.626  12.658  17.145  0.00  0.00    +0.000 OA
ATOM     18  C   UNL     1      11.427  13.997  16.710  0.00  0.00    +0.000 C 
ENDBRANCH  13  17
ENDBRANCH   7  11
ENDBRANCH   1   8
BRANCH   4  19
ATOM     19  N   UNL     1       5.649   3.676  17.473  0.00  0.00    +0.000 N 
ATOM     20  H   UNL     1       5.914   3.093  18.265  0.00  0.00    +0.000 HD
BRANCH  19  21
ATOM     21  C   UNL     1       4.214   3.558  17.213  0.00  0.00    +0.000 C 
BRANCH  21  22
ATOM     22  C   UNL     1       3.431   3.629  18.504  0.00  0.00    +0.000 A 
ATOM     23  C   UNL     1       2.521   4.679  18.713  0.00  0.00    +0.000 A 
ATOM     24  C   UNL     1       1.855   4.817  19.930  0.00  0.00    +0.000 A 
ATOM     25  C   UNL     1       2.085   3.903  20.957  0.00  0.00    +0.000 A 
ATOM     26  C   UNL     1       2.971   2.845  20.762  0.00  0.00    +0.000 A 
ATOM     27  C   UNL     1       3.638   2.715  19.541  0.00  0.00    +0.000 A 
BRANCH  27  28
ATOM     28  O   UNL     1       4.518   1.688  19.357  0.00  0.00    +0.000 OA
ATOM     29  H   UNL     1       4.274   0.953  19.947  0.00  0.00    +0.000 HD
ENDBRANCH  27  28
ENDBRANCH  21  22
ENDBRANCH  19  21
ENDBRANCH   4  19
TORSDOF 8
ENDMDL
MODEL 2
REMARK VINA RESULT:      -8.7      1.101      1.651
REMARK  Name = 
REMARK  10 active torsions:
REMARK  status: ('A' for Active; 'I' for Inactive)
REMARK    1  A    between atoms: C_1  and  O_2
REMARK    2  A    between atoms: O_2  and  C_3
REMARK    3  A    between atoms: C_5  and  C_6
REMARK    4  A    between atoms: C_7  and  C_8
REMARK    5  A    between atoms: C_11  and  N_12
REMARK    6  A    between atoms: N_12  and  C_13
REMARK    7  A    between atoms: C_13  and  C_14
REMARK    8  A    between atoms: C_19  and  O_20
REMARK    9  A    between atoms: C_24  and  O_25
REMARK   10  A    between atoms: O_25  and  C_26
REMARK                            x       y       z     vdW  Elec       q    Type
REMARK                         _______ _______ _______ _____ _____    ______ ____
ROOT
ATOM      1  C   UNL     1       7.400   7.444  17.812  0.00  0.00    +0.000 A 
ATOM      2  C   UNL     1       6.300   7.247  16.980  0.00  0.00    +0.000 A 
ATOM      3  C   UNL     1       5.669   5.998  16.924  0.00  0.00    +0.000 A 
ATOM      4  C   UNL     1       6.141   4.909  17.670  0.00  0.00    +0.000 A 
ATOM      5  C   UNL     1       7.231   5.132  18.523  0.00  0.00    +0.000 A 
ATOM      6  C   UNL     1       7.864   6.381  18.587  0.00  0.00    +0.000 A 
ENDROOT
BRANCH   1   8
ATOM      7  C   UNL     1       8.781   9.122  18.946  0.00  0.00    +0.000 C 
ATOM      8  C   UNL     1       8.039   8.758  17.887  0.00  0.00    +0.000 C 
BRANCH   7  11
ATOM      9  C   UNL     1      10.062  12.321  20.490  0.00  0.00    +0.000 A 
ATOM     10  C   UNL     1       9.367  11.121  20.294  0.00  0.00    +0.000 A 
ATOM     11  C   UNL     1       9.457  10.422  19.083  0.00  0.00    +0.000 A 
ATOM     12  C   UNL     1      10.264  10.952  18.069  0.00  0.00    +0.000 A 
ATOM     13  C   UNL     1      10.969  12.145  18.254  0.00  0.00    +0.000 A 
ATOM     14  C   UNL     1      10.865  12.827  19.465  0.00  0.00    +0.000 A 
BRANCH   9  16
ATOM     15  C   UNL     1       9.909  14.317  21.775  0.00  0.00    +0.000 C 
ATOM     16  O   UNL     1       9.893  12.894  21.723  0.00  0.00    +0.000 OA
ENDBRANCH   9  16
BRANCH  13  17
ATOM     17  O   UNL     1      11.739  12.521  17.185  0.00  0.00    +0.000 OA
ATOM     18  C   UNL     1      11.373  13.721  16.515  0.00  0.00    +0.000 C 
ENDBRANCH  13  17
ENDBRANCH   7  11
ENDBRANCH   1   8
BRANCH   4  19
ATOM     19  N   UNL     1       5.425   3.701  17.642  0.00  0.00    +0.000 N 
ATOM     20  H   UNL     1       5.547   3.178  18.508  0.00  0.00    +0.000 HD
BRANCH  19  21
ATOM     21  C   UNL     1       4.006   3.780  17.292  0.00  0.00    +0.000 C 
BRANCH  21  22
ATOM     22  C   UNL     1       3.143   3.539  18.509  0.00  0.00    +0.000 A 
ATOM     23  C   UNL     1       3.727   3.076  19.700  0.00  0.00    +0.000 A 
ATOM     24  C   UNL     1       2.941   2.760  20.808  0.00  0.00    +0.000 A 
ATOM     25  C   UNL     1       1.556   2.908  20.743  0.00  0.00    +0.000 A 
ATOM     26  C   UNL     1       0.961   3.384  19.575  0.00  0.00    +0.000 A 
ATOM     27  C   UNL     1       1.754   3.694  18.468  0.00  0.00    +0.000 A 
BRANCH  27  28
ATOM     28  O   UNL     1       1.168   4.143  17.321  0.00  0.00    +0.000 OA
ATOM     29  H   UNL     1       0.476   3.514  17.052  0.00  0.00    +0.000 HD
ENDBRANCH  27  28
ENDBRANCH  21  22
ENDBRANCH  19  21
ENDBRANCH   4  19
TORSDOF 8
ENDMDL
MODEL 3
REMARK VINA RESULT:      -8.7      0.854      1.309
REMARK  Name = 
REMARK  10 active torsions:
REMARK  status: ('A' for Active; 'I' for Inactive)
REMARK    1  A    between atoms: C_1  and  O_2
REMARK    2  A    between atoms: O_2  and  C_3
REMARK    3  A    between atoms: C_5  and  C_6
REMARK    4  A    between atoms: C_7  and  C_8
REMARK    5  A    between atoms: C_11  and  N_12
REMARK    6  A    between atoms: N_12  and  C_13
REMARK    7  A    between atoms: C_13  and  C_14
REMARK    8  A    between atoms: C_19  and  O_20
REMARK    9  A    between atoms: C_24  and  O_25
REMARK   10  A    between atoms: O_25  and  C_26
REMARK                            x       y       z     vdW  Elec       q    Type
REMARK                         _______ _______ _______ _____ _____    ______ ____
ROOT
ATOM      1  C   UNL     1       7.480   7.555  17.900  0.00  0.00    +0.000 A 
ATOM      2  C   UNL     1       6.342   7.385  17.115  0.00  0.00    +0.000 A 
ATOM      3  C   UNL     1       5.666   6.158  17.106  0.00  0.00    +0.000 A 
ATOM      4  C   UNL     1       6.128   5.065  17.852  0.00  0.00    +0.000 A 
ATOM      5  C   UNL     1       7.258   5.263  18.658  0.00  0.00    +0.000 A 
ATOM      6  C   UNL     1       7.937   6.488  18.675  0.00  0.00    +0.000 A 
ENDROOT
BRANCH   1   8
ATOM      7  C   UNL     1       8.801   9.285  19.027  0.00  0.00    +0.000 C 
ATOM      8  C   UNL     1       8.168   8.847  17.927  0.00  0.00    +0.000 C 
BRANCH   7  11
ATOM      9  C   UNL     1      10.158  12.507  20.456  0.00  0.00    +0.000 A 
ATOM     10  C   UNL     1       9.427  11.322  20.298  0.00  0.00    +0.000 A 
ATOM     11  C   UNL     1       9.518  10.567  19.121  0.00  0.00    +0.000 A 
ATOM     12  C   UNL     1      10.361  11.025  18.102  0.00  0.00    +0.000 A 
ATOM     13  C   UNL     1      11.103  12.201  18.248  0.00  0.00    +0.000 A 
ATOM     14  C   UNL     1      10.997  12.941  19.426  0.00  0.00    +0.000 A 
BRANCH   9  16
ATOM     15  C   UNL     1       8.958  12.633  22.505  0.00  0.00    +0.000 C 
ATOM     16  O   UNL     1       9.985  13.139  21.658  0.00  0.00    +0.000 OA
ENDBRANCH   9  16
BRANCH  13  17
ATOM     17  O   UNL     1      11.905  12.505  17.181  0.00  0.00    +0.000 OA
ATOM     18  C   UNL     1      11.590  13.683  16.449  0.00  0.00    +0.000 C 
ENDBRANCH  13  17
ENDBRANCH   7  11
ENDBRANCH   1   8
BRANCH   4  19
ATOM     19  N   UNL     1       5.370   3.882  17.873  0.00  0.00    +0.000 N 
ATOM     20  H   UNL     1       5.813   3.149  17.323  0.00  0.00    +0.000 HD
BRANCH  19  21
ATOM     21  C   UNL     1       4.983   3.367  19.187  0.00  0.00    +0.000 C 
BRANCH  21  22
ATOM     22  C   UNL     1       3.485   3.449  19.373  0.00  0.00    +0.000 A 
ATOM     23  C   UNL     1       2.934   4.481  20.151  0.00  0.00    +0.000 A 
ATOM     24  C   UNL     1       1.564   4.526  20.412  0.00  0.00    +0.000 A 
ATOM     25  C   UNL     1       0.724   3.542  19.893  0.00  0.00    +0.000 A 
ATOM     26  C   UNL     1       1.252   2.521  19.104  0.00  0.00    +0.000 A 
ATOM     27  C   UNL     1       2.625   2.479  18.850  0.00  0.00    +0.000 A 
BRANCH  27  28
ATOM     28  O   UNL     1       3.143   1.470  18.091  0.00  0.00    +0.000 OA
ATOM     29  H   UNL     1       2.572   0.686  18.177  0.00  0.00    +0.000 HD
ENDBRANCH  27  28
ENDBRANCH  21  22
ENDBRANCH  19  21
ENDBRANCH   4  19
TORSDOF 8
ENDMDL
MODEL 4
REMARK VINA RESULT:      -8.6      1.206      2.966
REMARK  Name = 
REMARK  10 active torsions:
REMARK  status: ('A' for Active; 'I' for Inactive)
REMARK    1  A    between atoms: C_1  and  O_2
REMARK    2  A    between atoms: O_2  and  C_3
REMARK    3  A    between atoms: C_5  and  C_6
REMARK    4  A    between atoms: C_7  and  C_8
REMARK    5  A    between atoms: C_11  and  N_12
REMARK    6  A    between atoms: N_12  and  C_13
REMARK    7  A    between atoms: C_13  and  C_14
REMARK    8  A    between atoms: C_19  and  O_20
REMARK    9  A    between atoms: C_24  and  O_25
REMARK   10  A    between atoms: O_25  and  C_26
REMARK                            x       y       z     vdW  Elec       q    Type
REMARK                         _______ _______ _______ _____ _____    ______ ____
ROOT
ATOM      1  C   UNL     1       7.631   7.655  17.835  0.00  0.00    +0.000 A 
ATOM      2  C   UNL     1       6.622   7.416  16.905  0.00  0.00    +0.000 A 
ATOM      3  C   UNL     1       6.039   6.147  16.804  0.00  0.00    +0.000 A 
ATOM      4  C   UNL     1       6.472   5.080  17.603  0.00  0.00    +0.000 A 
ATOM      5  C   UNL     1       7.467   5.345  18.553  0.00  0.00    +0.000 A 
ATOM      6  C   UNL     1       8.052   6.613  18.662  0.00  0.00    +0.000 A 
ENDROOT
BRANCH   1   8
ATOM      7  C   UNL     1       8.974   9.335  19.012  0.00  0.00    +0.000 C 
ATOM      8  C   UNL     1       8.219   8.990  17.956  0.00  0.00    +0.000 C 
BRANCH   7  11
ATOM      9  C   UNL     1      10.732  12.579  18.211  0.00  0.00    +0.000 A 
ATOM     10  C   UNL     1      10.197  11.290  18.096  0.00  0.00    +0.000 A 
ATOM     11  C   UNL     1       9.601  10.654  19.193  0.00  0.00    +0.000 A 
ATOM     12  C   UNL     1       9.551  11.341  20.412  0.00  0.00    +0.000 A 
ATOM     13  C   UNL     1      10.074  12.630  20.539  0.00  0.00    +0.000 A 
ATOM     14  C   UNL     1      10.666  13.246  19.437  0.00  0.00    +0.000 A 
BRANCH   9  16
ATOM     15  C   UNL     1      11.268  14.504  16.920  0.00  0.00    +0.000 C 
ATOM     16  O   UNL     1      11.275  13.086  17.060  0.00  0.00    +0.000 OA
ENDBRANCH   9  16
BRANCH  13  17
ATOM     17  O   UNL     1       9.924  13.185  21.782  0.00  0.00    +0.000 OA
ATOM     18  C   UNL     1       8.814  12.748  22.556  0.00  0.00    +0.000 C 
ENDBRANCH  13  17
ENDBRANCH   7  11
ENDBRANCH   1   8
BRANCH   4  19
ATOM     19  N   UNL     1       5.800   3.849  17.520  0.00  0.00    +0.000 N 
ATOM     20  H   UNL     1       5.683   3.429  18.440  0.00  0.00    +0.000 HD
BRANCH  19  21
ATOM     21  C   UNL     1       4.531   3.835  16.791  0.00  0.00    +0.000 C 
BRANCH  21  22
ATOM     22  C   UNL     1       3.384   3.511  17.722  0.00  0.00    +0.000 A 
ATOM     23  C   UNL     1       3.098   2.173  18.039  0.00  0.00    +0.000 A 
ATOM     24  C   UNL     1       1.992   1.844  18.822  0.00  0.00    +0.000 A 
ATOM     25  C   UNL     1       1.157   2.851  19.305  0.00  0.00    +0.000 A 
ATOM     26  C   UNL     1       1.436   4.185  19.015  0.00  0.00    +0.000 A 
ATOM     27  C   UNL     1       2.543   4.508  18.227  0.00  0.00    +0.000 A 
BRANCH  27  28
ATOM     28  O   UNL     1       2.806   5.814  17.931  0.00  0.00    +0.000 OA
ATOM     29  H   UNL     1       1.984   6.328  18.014  0.00  0.00    +0.000 HD
ENDBRANCH  27  28
ENDBRANCH  21  22
ENDBRANCH  19  21
ENDBRANCH   4  19
TORSDOF 8
ENDMDL
MODEL 5
REMARK VINA RESULT:      -8.5      0.717      2.559
REMARK  Name = 
REMARK  10 active torsions:
REMARK  status: ('A' for Active; 'I' for Inactive)
REMARK    1  A    between atoms: C_1  and  O_2
REMARK    2  A    between atoms: O_2  and  C_3
REMARK    3  A    between atoms: C_5  and  C_6
REMARK    4  A    between atoms: C_7  and  C_8
REMARK    5  A    between atoms: C_11  and  N_12
REMARK    6  A    between atoms: N_12  and  C_13
REMARK    7  A    between atoms: C_13  and  C_14
REMARK    8  A    between atoms: C_19  and  O_20
REMARK    9  A    between atoms: C_24  and  O_25
REMARK   10  A    between atoms: O_25  and  C_26
REMARK                            x       y       z     vdW  Elec       q    Type
REMARK                         _______ _______ _______ _____ _____    ______ ____
ROOT
ATOM      1  C   UNL     1       7.804   7.023  18.233  0.00  0.00    +0.000 A 
ATOM      2  C   UNL     1       6.969   7.178  17.128  0.00  0.00    +0.000 A 
ATOM      3  C   UNL     1       6.237   6.090  16.637  0.00  0.00    +0.000 A 
ATOM      4  C   UNL     1       6.345   4.817  17.214  0.00  0.00    +0.000 A 
ATOM      5  C   UNL     1       7.167   4.686  18.341  0.00  0.00    +0.000 A 
ATOM      6  C   UNL     1       7.900   5.771  18.840  0.00  0.00    +0.000 A 
ENDROOT
BRANCH   1   8
ATOM      7  C   UNL     1       8.500   9.372  18.165  0.00  0.00    +0.000 C 
ATOM      8  C   UNL     1       8.547   8.169  18.759  0.00  0.00    +0.000 C 
BRANCH   7  11
ATOM      9  C   UNL     1      10.352  12.663  18.130  0.00  0.00    +0.000 A 
ATOM     10  C   UNL     1       9.736  11.475  17.714  0.00  0.00    +0.000 A 
ATOM     11  C   UNL     1       9.214  10.567  18.643  0.00  0.00    +0.000 A 
ATOM     12  C   UNL     1       9.319  10.875  20.005  0.00  0.00    +0.000 A 
ATOM     13  C   UNL     1       9.923  12.060  20.435  0.00  0.00    +0.000 A 
ATOM     14  C   UNL     1      10.440  12.951  19.495  0.00  0.00    +0.000 A 
BRANCH   9  16
ATOM     15  C   UNL     1      11.043  14.832  17.442  0.00  0.00    +0.000 C 
ATOM     16  O   UNL     1      10.808  13.465  17.118  0.00  0.00    +0.000 OA
ENDBRANCH   9  16
BRANCH  13  17
ATOM     17  O   UNL     1       9.925  12.238  21.793  0.00  0.00    +0.000 OA
ATOM     18  C   UNL     1       8.875  13.024  22.343  0.00  0.00    +0.000 C 
ENDBRANCH  13  17
ENDBRANCH   7  11
ENDBRANCH   1   8
BRANCH   4  19
ATOM     19  N   UNL     1       5.529   3.778  16.736  0.00  0.00    +0.000 N 
ATOM     20  H   UNL     1       5.691   2.914  17.250  0.00  0.00    +0.000 HD
BRANCH  19  21
ATOM     21  C   UNL     1       4.094   4.052  16.645  0.00  0.00    +0.000 C 
BRANCH  21  22
ATOM     22  C   UNL     1       3.463   4.051  18.019  0.00  0.00    +0.000 A 
ATOM     23  C   UNL     1       2.857   5.220  18.510  0.00  0.00    +0.000 A 
ATOM     24  C   UNL     1       2.349   5.271  19.808  0.00  0.00    +0.000 A 
ATOM     25  C   UNL     1       2.435   4.151  20.633  0.00  0.00    +0.000 A 
ATOM     26  C   UNL     1       3.017   2.977  20.156  0.00  0.00    +0.000 A 
ATOM     27  C   UNL     1       3.527   2.934  18.857  0.00  0.00    +0.000 A 
BRANCH  27  28
ATOM     28  O   UNL     1       4.112   1.790  18.397  0.00  0.00    +0.000 OA
ATOM     29  H   UNL     1       4.966   2.014  17.988  0.00  0.00    +0.000 HD
ENDBRANCH  27  28
ENDBRANCH  21  22
ENDBRANCH  19  21
ENDBRANCH   4  19
TORSDOF 8
ENDMDL
MODEL 6
REMARK VINA RESULT:      -8.5      0.793      1.208
REMARK  Name = 
REMARK  10 active torsions:
REMARK  status: ('A' for Active; 'I' for Inactive)
REMARK    1  A    between atoms: C_1  and  O_2
REMARK    2  A    between atoms: O_2  and  C_3
REMARK    3  A    between atoms: C_5  and  C_6
REMARK    4  A    between atoms: C_7  and  C_8
REMARK    5  A    between atoms: C_11  and  N_12
REMARK    6  A    between atoms: N_12  and  C_13
REMARK    7  A    between atoms: C_13  and  C_14
REMARK    8  A    between atoms: C_19  and  O_20
REMARK    9  A    between atoms: C_24  and  O_25
REMARK   10  A    between atoms: O_25  and  C_26
REMARK                            x       y       z     vdW  Elec       q    Type
REMARK                         _______ _______ _______ _____ _____    ______ ____
ROOT
ATOM      1  C   UNL     1       7.889   7.118  18.277  0.00  0.00    +0.000 A 
ATOM      2  C   UNL     1       7.164   7.208  17.090  0.00  0.00    +0.000 A 
ATOM      3  C   UNL     1       6.486   6.090  16.588  0.00  0.00    +0.000 A 
ATOM      4  C   UNL     1       6.543   4.850  17.239  0.00  0.00    +0.000 A 
ATOM      5  C   UNL     1       7.252   4.784  18.446  0.00  0.00    +0.000 A 
ATOM      6  C   UNL     1       7.930   5.900  18.956  0.00  0.00    +0.000 A 
ENDROOT
BRANCH   1   8
ATOM      7  C   UNL     1       8.583   9.465  18.152  0.00  0.00    +0.000 C 
ATOM      8  C   UNL     1       8.573   8.295  18.812  0.00  0.00    +0.000 C 
BRANCH   7  11
ATOM      9  C   UNL     1       9.929  12.089  20.512  0.00  0.00    +0.000 A 
ATOM     10  C   UNL     1       9.243  10.977  20.006  0.00  0.00    +0.000 A 
ATOM     11  C   UNL     1       9.243  10.689  18.635  0.00  0.00    +0.000 A 
ATOM     12  C   UNL     1       9.951  11.540  17.777  0.00  0.00    +0.000 A 
ATOM     13  C   UNL     1      10.647  12.648  18.269  0.00  0.00    +0.000 A 
ATOM     14  C   UNL     1      10.632  12.921  19.636  0.00  0.00    +0.000 A 
BRANCH   9  16
ATOM     15  C   UNL     1       8.562  12.492  22.415  0.00  0.00    +0.000 C 
ATOM     16  O   UNL     1       9.855  12.248  21.870  0.00  0.00    +0.000 OA
ENDBRANCH   9  16
BRANCH  13  17
ATOM     17  O   UNL     1      11.316  13.369  17.315  0.00  0.00    +0.000 OA
ATOM     18  C   UNL     1      12.114  14.455  17.768  0.00  0.00    +0.000 C 
ENDBRANCH  13  17
ENDBRANCH   7  11
ENDBRANCH   1   8
BRANCH   4  19
ATOM     19  N   UNL     1       5.780   3.781  16.739  0.00  0.00    +0.000 N 
ATOM     20  H   UNL     1       5.852   2.963  17.341  0.00  0.00    +0.000 HD
BRANCH  19  21
ATOM     21  C   UNL     1       4.377   4.058  16.426  0.00  0.00    +0.000 C 
BRANCH  21  22
ATOM     22  C   UNL     1       3.530   4.000  17.677  0.00  0.00    +0.000 A 
ATOM     23  C   UNL     1       2.880   5.159  18.134  0.00  0.00    +0.000 A 
ATOM     24  C   UNL     1       2.167   5.153  19.333  0.00  0.00    +0.000 A 
ATOM     25  C   UNL     1       2.091   3.985  20.091  0.00  0.00    +0.000 A 
ATOM     26  C   UNL     1       2.715   2.822  19.644  0.00  0.00    +0.000 A 
ATOM     27  C   UNL     1       3.430   2.836  18.444  0.00  0.00    +0.000 A 
BRANCH  27  28
ATOM     28  O   UNL     1       4.055   1.701  18.015  0.00  0.00    +0.000 OA
ATOM     29  H   UNL     1       3.880   0.985  18.651  0.00  0.00    +0.000 HD
ENDBRANCH  27  28
ENDBRANCH  21  22
ENDBRANCH  19  21
ENDBRANCH   4  19
TORSDOF 8
ENDMDL
MODEL 7
REMARK VINA RESULT:      -8.5      1.110      2.917
REMARK  Name = 
REMARK  10 active torsions:
REMARK  status: ('A' for Active; 'I' for Inactive)
REMARK    1  A    between atoms: C_1  and  O_2
REMARK    2  A    between atoms: O_2  and  C_3
REMARK    3  A    between atoms: C_5  and  C_6
REMARK    4  A    between atoms: C_7  and  C_8
REMARK    5  A    between atoms: C_11  and  N_12
REMARK    6  A    between atoms: N_12  and  C_13
REMARK    7  A    between atoms: C_13  and  C_14
REMARK    8  A    between atoms: C_19  and  O_20
REMARK    9  A    between atoms: C_24  and  O_25
REMARK   10  A    between atoms: O_25  and  C_26
REMARK                            x       y       z     vdW  Elec       q    Type
REMARK                         _______ _______ _______ _____ _____    ______ ____
ROOT
ATOM      1  C   UNL     1       7.339   6.942  18.046  0.00  0.00    +0.000 A 
ATOM      2  C   UNL     1       6.266   7.385  17.275  0.00  0.00    +0.000 A 
ATOM      3  C   UNL     1       5.294   6.480  16.829  0.00  0.00    +0.000 A 
ATOM      4  C   UNL     1       5.388   5.111  17.113  0.00  0.00    +0.000 A 
ATOM      5  C   UNL     1       6.458   4.687  17.913  0.00  0.00    +0.000 A 
ATOM      6  C   UNL     1       7.431   5.588  18.366  0.00  0.00    +0.000 A 
ENDROOT
BRANCH   1   8
ATOM      7  C   UNL     1       8.252   9.207  18.257  0.00  0.00    +0.000 C 
ATOM      8  C   UNL     1       8.337   7.895  18.532  0.00  0.00    +0.000 C 
BRANCH   7  11
ATOM      9  C   UNL     1      10.989  11.808  18.188  0.00  0.00    +0.000 A 
ATOM     10  C   UNL     1      10.112  10.785  17.804  0.00  0.00    +0.000 A 
ATOM     11  C   UNL     1       9.214  10.220  18.719  0.00  0.00    +0.000 A 
ATOM     12  C   UNL     1       9.211  10.706  20.033  0.00  0.00    +0.000 A 
ATOM     13  C   UNL     1      10.073  11.732  20.428  0.00  0.00    +0.000 A 
ATOM     14  C   UNL     1      10.962  12.280  19.504  0.00  0.00    +0.000 A 
BRANCH   9  16
ATOM     15  C   UNL     1      11.513  13.574  16.684  0.00  0.00    +0.000 C 
ATOM     16  O   UNL     1      11.805  12.277  17.193  0.00  0.00    +0.000 OA
ENDBRANCH   9  16
BRANCH  13  17
ATOM     17  O   UNL     1       9.933  12.123  21.733  0.00  0.00    +0.000 OA
ATOM     18  C   UNL     1       8.625  12.062  22.289  0.00  0.00    +0.000 C 
ENDBRANCH  13  17
ENDBRANCH   7  11
ENDBRANCH   1   8
BRANCH   4  19
ATOM     19  N   UNL     1       4.346   4.257  16.713  0.00  0.00    +0.000 N 
ATOM     20  H   UNL     1       4.391   4.063  15.714  0.00  0.00    +0.000 HD
BRANCH  19  21
ATOM     21  C   UNL     1       4.182   3.013  17.466  0.00  0.00    +0.000 C 
BRANCH  21  22
ATOM     22  C   UNL     1       3.256   3.220  18.643  0.00  0.00    +0.000 A 
ATOM     23  C   UNL     1       3.701   2.922  19.942  0.00  0.00    +0.000 A 
ATOM     24  C   UNL     1       2.837   3.018  21.033  0.00  0.00    +0.000 A 
ATOM     25  C   UNL     1       1.516   3.419  20.842  0.00  0.00    +0.000 A 
ATOM     26  C   UNL     1       1.063   3.736  19.562  0.00  0.00    +0.000 A 
ATOM     27  C   UNL     1       1.932   3.634  18.473  0.00  0.00    +0.000 A 
BRANCH  27  28
ATOM     28  O   UNL     1       1.483   3.929  17.219  0.00  0.00    +0.000 OA
ATOM     29  H   UNL     1       1.326   4.888  17.157  0.00  0.00    +0.000 HD
ENDBRANCH  27  28
ENDBRANCH  21  22
ENDBRANCH  19  21
ENDBRANCH   4  19
TORSDOF 8
ENDMDL
MODEL 8
REMARK VINA RESULT:      -8.5      1.190      1.643
REMARK  Name = 
REMARK  10 active torsions:
REMARK  status: ('A' for Active; 'I' for Inactive)
REMARK    1  A    between atoms: C_1  and  O_2
REMARK    2  A    between atoms: O_2  and  C_3
REMARK    3  A    between atoms: C_5  and  C_6
REMARK    4  A    between atoms: C_7  and  C_8
REMARK    5  A    between atoms: C_11  and  N_12
REMARK    6  A    between atoms: N_12  and  C_13
REMARK    7  A    between atoms: C_13  and  C_14
REMARK    8  A    between atoms: C_19  and  O_20
REMARK    9  A    between atoms: C_24  and  O_25
REMARK   10  A    between atoms: O_25  and  C_26
REMARK                            x       y       z     vdW  Elec       q    Type
REMARK                         _______ _______ _______ _____ _____    ______ ____
ROOT
ATOM      1  C   UNL     1       7.773   7.058  18.311  0.00  0.00    +0.000 A 
ATOM      2  C   UNL     1       6.829   7.224  17.300  0.00  0.00    +0.000 A 
ATOM      3  C   UNL     1       6.007   6.157  16.917  0.00  0.00    +0.000 A 
ATOM      4  C   UNL     1       6.131   4.892  17.509  0.00  0.00    +0.000 A 
ATOM      5  C   UNL     1       7.066   4.751  18.543  0.00  0.00    +0.000 A 
ATOM      6  C   UNL     1       7.889   5.815  18.934  0.00  0.00    +0.000 A 
ENDROOT
BRANCH   1   8
ATOM      7  C   UNL     1       8.450   9.411  18.207  0.00  0.00    +0.000 C 
ATOM      8  C   UNL     1       8.611   8.183  18.726  0.00  0.00    +0.000 C 
BRANCH   7  11
ATOM      9  C   UNL     1      10.137  12.034  20.338  0.00  0.00    +0.000 A 
ATOM     10  C   UNL     1       9.322  10.969  19.930  0.00  0.00    +0.000 A 
ATOM     11  C   UNL     1       9.251  10.587  18.584  0.00  0.00    +0.000 A 
ATOM     12  C   UNL     1      10.019  11.295  17.651  0.00  0.00    +0.000 A 
ATOM     13  C   UNL     1      10.842  12.354  18.045  0.00  0.00    +0.000 A 
ATOM     14  C   UNL     1      10.898  12.722  19.389  0.00  0.00    +0.000 A 
BRANCH   9  16
ATOM     15  C   UNL     1       8.857  12.612  22.257  0.00  0.00    +0.000 C 
ATOM     16  O   UNL     1      10.121  12.294  21.683  0.00  0.00    +0.000 OA
ENDBRANCH   9  16
BRANCH  13  17
ATOM     17  O   UNL     1      11.555  12.929  17.027  0.00  0.00    +0.000 OA
ATOM     18  C   UNL     1      11.630  14.350  17.013  0.00  0.00    +0.000 C 
ENDBRANCH  13  17
ENDBRANCH   7  11
ENDBRANCH   1   8
BRANCH   4  19
ATOM     19  N   UNL     1       5.229   3.878  17.147  0.00  0.00    +0.000 N 
ATOM     20  H   UNL     1       5.225   3.124  17.832  0.00  0.00    +0.000 HD
BRANCH  19  21
ATOM     21  C   UNL     1       3.859   4.289  16.837  0.00  0.00    +0.000 C 
BRANCH  21  22
ATOM     22  C   UNL     1       2.915   3.873  17.942  0.00  0.00    +0.000 A 
ATOM     23  C   UNL     1       2.175   2.685  17.819  0.00  0.00    +0.000 A 
ATOM     24  C   UNL     1       1.232   2.326  18.781  0.00  0.00    +0.000 A 
ATOM     25  C   UNL     1       1.017   3.149  19.886  0.00  0.00    +0.000 A 
ATOM     26  C   UNL     1       1.755   4.322  20.034  0.00  0.00    +0.000 A 
ATOM     27  C   UNL     1       2.695   4.678  19.064  0.00  0.00    +0.000 A 
BRANCH  27  28
ATOM     28  O   UNL     1       3.405   5.836  19.202  0.00  0.00    +0.000 OA
ATOM     29  H   UNL     1       3.695   6.134  18.322  0.00  0.00    +0.000 HD
ENDBRANCH  27  28
ENDBRANCH  21  22
ENDBRANCH  19  21
ENDBRANCH   4  19
TORSDOF 8
ENDMDL
MODEL 9
REMARK VINA RESULT:      -8.5      0.865      2.525
REMARK  Name = 
REMARK  10 active torsions:
REMARK  status: ('A' for Active; 'I' for Inactive)
REMARK    1  A    between atoms: C_1  and  O_2
REMARK    2  A    between atoms: O_2  and  C_3
REMARK    3  A    between atoms: C_5  and  C_6
REMARK    4  A    between atoms: C_7  and  C_8
REMARK    5  A    between atoms: C_11  and  N_12
REMARK    6  A    between atoms: N_12  and  C_13
REMARK    7  A    between atoms: C_13  and  C_14
REMARK    8  A    between atoms: C_19  and  O_20
REMARK    9  A    between atoms: C_24  and  O_25
REMARK   10  A    between atoms: O_25  and  C_26
REMARK                            x       y       z     vdW  Elec       q    Type
REMARK                         _______ _______ _______ _____ _____    ______ ____
ROOT
ATOM      1  C   UNL     1       7.440   7.490  17.910  0.00  0.00    +0.000 A 
ATOM      2  C   UNL     1       7.837   6.411  18.698  0.00  0.00    +0.000 A 
ATOM      3  C   UNL     1       7.109   5.215  18.678  0.00  0.00    +0.000 A 
ATOM      4  C   UNL     1       5.952   5.078  17.900  0.00  0.00    +0.000 A 
ATOM      5  C   UNL     1       5.583   6.162  17.092  0.00  0.00    +0.000 A 
ATOM      6  C   UNL     1       6.309   7.361  17.104  0.00  0.00    +0.000 A 
ENDROOT
BRANCH   1   8
ATOM      7  C   UNL     1       8.649   9.288  19.055  0.00  0.00    +0.000 C 
ATOM      8  C   UNL     1       8.219   8.728  17.912  0.00  0.00    +0.000 C 
BRANCH   7  11
ATOM      9  C   UNL     1      10.709  12.266  17.981  0.00  0.00    +0.000 A 
ATOM     10  C   UNL     1      10.016  11.048  17.964  0.00  0.00    +0.000 A 
ATOM     11  C   UNL     1       9.442  10.526  19.130  0.00  0.00    +0.000 A 
ATOM     12  C   UNL     1       9.575  11.253  20.320  0.00  0.00    +0.000 A 
ATOM     13  C   UNL     1      10.257  12.473  20.350  0.00  0.00    +0.000 A 
ATOM     14  C   UNL     1      10.824  12.976  19.180  0.00  0.00    +0.000 A 
BRANCH   9  16
ATOM     15  C   UNL     1      11.802  13.959  16.719  0.00  0.00    +0.000 C 
ATOM     16  O   UNL     1      11.210  12.665  16.771  0.00  0.00    +0.000 OA
ENDBRANCH   9  16
BRANCH  13  17
ATOM     17  O   UNL     1      10.279  13.082  21.577  0.00  0.00    +0.000 OA
ATOM     18  C   UNL     1       9.044  13.590  22.068  0.00  0.00    +0.000 C 
ENDBRANCH  13  17
ENDBRANCH   7  11
ENDBRANCH   1   8
BRANCH   4  19
ATOM     19  N   UNL     1       5.304   3.832  17.853  0.00  0.00    +0.000 N 
ATOM     20  H   UNL     1       5.824   3.166  17.285  0.00  0.00    +0.000 HD
BRANCH  19  21
ATOM     21  C   UNL     1       4.936   3.228  19.135  0.00  0.00    +0.000 C 
BRANCH  21  22
ATOM     22  C   UNL     1       3.468   3.442  19.424  0.00  0.00    +0.000 A 
ATOM     23  C   UNL     1       3.059   4.560  20.169  0.00  0.00    +0.000 A 
ATOM     24  C   UNL     1       1.722   4.732  20.527  0.00  0.00    +0.000 A 
ATOM     25  C   UNL     1       0.771   3.788  20.138  0.00  0.00    +0.000 A 
ATOM     26  C   UNL     1       1.157   2.682  19.383  0.00  0.00    +0.000 A 
ATOM     27  C   UNL     1       2.498   2.514  19.032  0.00  0.00    +0.000 A 
BRANCH  27  28
ATOM     28  O   UNL     1       2.877   1.422  18.306  0.00  0.00    +0.000 OA
ATOM     29  H   UNL     1       2.146   1.166  17.717  0.00  0.00    +0.000 HD
ENDBRANCH  27  28
ENDBRANCH  21  22
ENDBRANCH  19  21
ENDBRANCH   4  19
TORSDOF 8
ENDMDL
