MODEL 1
REMARK VINA RESULT:      -8.6      0.000      0.000
REMARK  Name = 
REMARK  6 active torsions:
REMARK  status: ('A' for Active; 'I' for Inactive)
REMARK    1  A    between atoms: C_1  and  O_2
REMARK    2  A    between atoms: O_2  and  C_3
REMARK    3  A    between atoms: C_3  and  C_4
REMARK    4  A    between atoms: C_8  and  O_9
REMARK    5  A    between atoms: O_9  and  C_10
REMARK    6  A    between atoms: C_10  and  C_11
REMARK                            x       y       z     vdW  Elec       q    Type
REMARK                         _______ _______ _______ _____ _____    ______ ____
ROOT
ATOM      1  C   UNL     1       3.207   5.629  19.157  0.00  0.00    +0.000 A 
ATOM      2  C   UNL     1       2.560   4.838  20.126  0.00  0.00    +0.000 A 
ATOM      3  C   UNL     1       1.585   5.364  20.973  0.00  0.00    +0.000 A 
ATOM      4  C   UNL     1       1.250   6.706  20.897  0.00  0.00    +0.000 A 
ATOM      5  C   UNL     1       1.916   7.541  20.002  0.00  0.00    +0.000 A 
ATOM      6  C   UNL     1       2.865   6.999  19.118  0.00  0.00    +0.000 A 
ENDROOT
BRANCH   1   7
ATOM      7  C   UNL     1       4.272   5.026  18.203  0.00  0.00    +0.000 C 
ATOM      8  C   UNL     1       4.281   5.734  16.812  0.00  0.00    +0.000 C 
ATOM      9  C   UNL     1       5.334   5.261  15.822  0.00  0.00    +0.000 C 
ATOM     10  S   UNL     1       6.967   5.467  16.468  0.00  0.00    +0.000 S 
ATOM     11  O   UNL     1       7.880   4.725  15.620  0.00  0.00    +0.000 OA
ATOM     12  O   UNL     1       7.175   6.879  16.727  0.00  0.00    +0.000 OA
ATOM     13  C   UNL     1       6.831   4.629  18.021  0.00  0.00    +0.000 C 
ATOM     14  C   UNL     1       5.678   5.162  18.863  0.00  0.00    +0.000 C 
BRANCH   7  16
ATOM     15  C   UNL     1       2.964   3.198  17.247  0.00  0.00    +0.000 C 
ATOM     16  O   UNL     1       4.082   3.608  18.028  0.00  0.00    +0.000 OA
ENDBRANCH   7  16
ENDBRANCH   1   7
BRANCH   5  17
ATOM     17  O   UNL     1       1.708   8.894  19.926  0.00  0.00    +0.000 OA
BRANCH  17  18
ATOM     18  C   UNL     1       1.496   9.405  18.598  0.00  0.00    +0.000 C 
BRANCH  18  19
ATOM     19  C   UNL     1       0.093   9.947  18.477  0.00  0.00    +0.000 A 
ATOM     20  C   UNL     1      -0.436  10.736  19.501  0.00  0.00    +0.000 A 
ATOM     21  C   UNL     1      -1.701  11.308  19.370  0.00  0.00    +0.000 A 
ATOM     22  C   UNL     1      -2.464  11.094  18.215  0.00  0.00    +0.000 A 
ATOM     23  C   UNL     1      -3.688  11.760  18.020  0.00  0.00    +0.000 A 
ATOM     24  C   UNL     1      -4.434  11.543  16.865  0.00  0.00    +0.000 A 
ATOM     25  C   UNL     1      -4.005  10.614  15.921  0.00  0.00    +0.000 A 
ATOM     26  C   UNL     1      -2.791   9.945  16.101  0.00  0.00    +0.000 A 
ATOM     27  C   UNL     1      -1.985  10.212  17.223  0.00  0.00    +0.000 A 
ATOM     28  C   UNL     1      -0.707   9.642  17.366  0.00  0.00    +0.000 A 
ENDBRANCH  18  19
ENDBRANCH  17  18
ENDBRANCH   5  17
TORSDOF 5
ENDMDL
MODEL 2
REMARK VINA RESULT:      -8.5      1.387      2.202
REMARK  Name = 
REMARK  6 active torsions:
REMARK  status: ('A' for Active; 'I' for Inactive)
REMARK    1  A    between atoms: C_1  and  O_2
REMARK    2  A    between atoms: O_2  and  C_3
REMARK    3  A    between atoms: C_3  and  C_4
REMARK    4  A    between atoms: C_8  and  O_9
REMARK    5  A    between atoms: O_9  and  C_10
REMARK    6  A    between atoms: C_10  and  C_11
REMARK                            x       y       z     vdW  Elec       q    Type
REMARK                         _______ _______ _______ _____ _____    ______ ____
ROOT
ATOM      1  C   UNL     1       2.924   6.993  18.731  0.00  0.00    +0.000 A 
ATOM      2  C   UNL     1       2.535   6.773  20.066  0.00  0.00    +0.000 A 
ATOM      3  C   UNL     1       1.584   7.576  20.695  0.00  0.00    +0.000 A 
ATOM      4  C   UNL     1       1.018   8.643  20.018  0.00  0.00    +0.000 A 
ATOM      5  C   UNL     1       1.427   8.940  18.719  0.00  0.00    +0.000 A 
ATOM      6  C   UNL     1       2.351   8.102  18.071  0.00  0.00    +0.000 A 
ENDROOT
BRANCH   1   7
ATOM      7  C   UNL     1       3.965   6.077  18.033  0.00  0.00    +0.000 C 
ATOM      8  C   UNL     1       4.909   6.879  17.084  0.00  0.00    +0.000 C 
ATOM      9  C   UNL     1       6.009   6.083  16.399  0.00  0.00    +0.000 C 
ATOM     10  S   UNL     1       7.073   5.303  17.576  0.00  0.00    +0.000 S 
ATOM     11  O   UNL     1       7.887   4.334  16.870  0.00  0.00    +0.000 OA
ATOM     12  O   UNL     1       7.685   6.338  18.386  0.00  0.00    +0.000 OA
ATOM     13  C   UNL     1       5.900   4.433  18.577  0.00  0.00    +0.000 C 
ATOM     14  C   UNL     1       4.815   5.354  19.122  0.00  0.00    +0.000 C 
BRANCH   7  16
ATOM     15  C   UNL     1       2.246   4.344  17.944  0.00  0.00    +0.000 C 
ATOM     16  O   UNL     1       3.324   5.013  17.299  0.00  0.00    +0.000 OA
ENDBRANCH   7  16
ENDBRANCH   1   7
BRANCH   5  17
ATOM     17  O   UNL     1       0.982  10.027  18.012  0.00  0.00    +0.000 OA
BRANCH  17  18
ATOM     18  C   UNL     1       0.305  11.028  18.792  0.00  0.00    +0.000 C 
BRANCH  18  19
ATOM     19  C   UNL     1      -1.168  11.018  18.468  0.00  0.00    +0.000 A 
ATOM     20  C   UNL     1      -1.648  10.193  17.448  0.00  0.00    +0.000 A 
ATOM     21  C   UNL     1      -3.016  10.114  17.188  0.00  0.00    +0.000 A 
ATOM     22  C   UNL     1      -3.929  10.866  17.939  0.00  0.00    +0.000 A 
ATOM     23  C   UNL     1      -5.316  10.706  17.767  0.00  0.00    +0.000 A 
ATOM     24  C   UNL     1      -6.212  11.455  18.523  0.00  0.00    +0.000 A 
ATOM     25  C   UNL     1      -5.742  12.418  19.412  0.00  0.00    +0.000 A 
ATOM     26  C   UNL     1      -4.367  12.588  19.594  0.00  0.00    +0.000 A 
ATOM     27  C   UNL     1      -3.447  11.782  18.899  0.00  0.00    +0.000 A 
ATOM     28  C   UNL     1      -2.065  11.852  19.151  0.00  0.00    +0.000 A 
ENDBRANCH  18  19
ENDBRANCH  17  18
ENDBRANCH   5  17
TORSDOF 5
ENDMDL
MODEL 3
REMARK VINA RESULT:      -8.4      2.383      3.113
REMARK  Name = 
REMARK  6 active torsions:
REMARK  status: ('A' for Active; 'I' for Inactive)
REMARK    1  A    between atoms: C_1  and  O_2
REMARK    2  A    between atoms: O_2  and  C_3
REMARK    3  A    between atoms: C_3  and  C_4
REMARK    4  A    between atoms: C_8  and  O_9
REMARK    5  A    between atoms: O_9  and  C_10
REMARK    6  A    between atoms: C_10  and  C_11
REMARK                            x       y       z     vdW  Elec       q    Type
REMARK                         _______ _______ _______ _____ _____    ______ ____
ROOT
ATOM      1  C   UNL     1       3.188   4.525  19.009  0.00  0.00    +0.000 A 
ATOM      2  C   UNL     1       2.269   3.457  19.005  0.00  0.00    +0.000 A 
ATOM      3  C   UNL     1       1.050   3.535  19.677  0.00  0.00    +0.000 A 
ATOM      4  C   UNL     1       0.726   4.672  20.400  0.00  0.00    +0.000 A 
ATOM      5  C   UNL     1       1.635   5.724  20.489  0.00  0.00    +0.000 A 
ATOM      6  C   UNL     1       2.844   5.662  19.773  0.00  0.00    +0.000 A 
ENDROOT
BRANCH   1   7
ATOM      7  C   UNL     1       4.531   4.437  18.236  0.00  0.00    +0.000 C 
ATOM      8  C   UNL     1       4.333   3.936  16.772  0.00  0.00    +0.000 C 
ATOM      9  C   UNL     1       5.582   3.875  15.906  0.00  0.00    +0.000 C 
ATOM     10  S   UNL     1       6.348   5.462  15.764  0.00  0.00    +0.000 S 
ATOM     11  O   UNL     1       7.670   5.271  15.199  0.00  0.00    +0.000 OA
ATOM     12  O   UNL     1       5.400   6.367  15.145  0.00  0.00    +0.000 OA
ATOM     13  C   UNL     1       6.522   5.914  17.467  0.00  0.00    +0.000 C 
ATOM     14  C   UNL     1       5.197   5.846  18.217  0.00  0.00    +0.000 C 
BRANCH   7  16
ATOM     15  C   UNL     1       4.947   2.632  19.829  0.00  0.00    +0.000 C 
ATOM     16  O   UNL     1       5.478   3.590  18.919  0.00  0.00    +0.000 OA
ENDBRANCH   7  16
ENDBRANCH   1   7
BRANCH   5  17
ATOM     17  O   UNL     1       1.430   6.844  21.252  0.00  0.00    +0.000 OA
BRANCH  17  18
ATOM     18  C   UNL     1       1.527   8.092  20.544  0.00  0.00    +0.000 C 
BRANCH  18  19
ATOM     19  C   UNL     1       0.601   9.107  21.168  0.00  0.00    +0.000 A 
ATOM     20  C   UNL     1       0.285   9.014  22.526  0.00  0.00    +0.000 A 
ATOM     21  C   UNL     1      -0.506   9.988  23.134  0.00  0.00    +0.000 A 
ATOM     22  C   UNL     1      -1.003  11.068  22.394  0.00  0.00    +0.000 A 
ATOM     23  C   UNL     1      -1.701  12.117  23.020  0.00  0.00    +0.000 A 
ATOM     24  C   UNL     1      -2.186  13.187  22.273  0.00  0.00    +0.000 A 
ATOM     25  C   UNL     1      -2.038  13.196  20.889  0.00  0.00    +0.000 A 
ATOM     26  C   UNL     1      -1.347  12.161  20.253  0.00  0.00    +0.000 A 
ATOM     27  C   UNL     1      -0.779  11.113  21.001  0.00  0.00    +0.000 A 
ATOM     28  C   UNL     1       0.021  10.125  20.399  0.00  0.00    +0.000 A 
ENDBRANCH  18  19
ENDBRANCH  17  18
ENDBRANCH   5  17
TORSDOF 5
ENDMDL
MODEL 4
REMARK VINA RESULT:      -8.4      2.411      3.373
REMARK  Name = 
REMARK  6 active torsions:
REMARK  status: ('A' for Active; 'I' for Inactive)
REMARK    1  A    between atoms: C_1  and  O_2
REMARK    2  A    between atoms: O_2  and  C_3
REMARK    3  A    between atoms: C_3  and  C_4
REMARK    4  A    between atoms: C_8  and  O_9
REMARK    5  A    between atoms: O_9  and  C_10
REMARK    6  A    between atoms: C_10  and  C_11
REMARK                            x       y       z     vdW  Elec       q    Type
REMARK                         _______ _______ _______ _____ _____    ______ ____
ROOT
ATOM      1  C   UNL     1       3.718   4.998  18.842  0.00  0.00    +0.000 A 
ATOM      2  C   UNL     1       3.258   3.681  19.038  0.00  0.00    +0.000 A 
ATOM      3  C   UNL     1       2.148   3.401  19.833  0.00  0.00    +0.000 A 
ATOM      4  C   UNL     1       1.483   4.428  20.484  0.00  0.00    +0.000 A 
ATOM      5  C   UNL     1       1.947   5.738  20.376  0.00  0.00    +0.000 A 
ATOM      6  C   UNL     1       3.038   6.023  19.536  0.00  0.00    +0.000 A 
ENDROOT
BRANCH   1   7
ATOM      7  C   UNL     1       4.939   5.299  17.933  0.00  0.00    +0.000 C 
ATOM      8  C   UNL     1       5.610   3.995  17.400  0.00  0.00    +0.000 C 
ATOM      9  C   UNL     1       6.779   4.180  16.446  0.00  0.00    +0.000 C 
ATOM     10  S   UNL     1       6.302   5.089  15.006  0.00  0.00    +0.000 S 
ATOM     11  O   UNL     1       7.508   5.487  14.308  0.00  0.00    +0.000 OA
ATOM     12  O   UNL     1       5.262   4.342  14.326  0.00  0.00    +0.000 OA
ATOM     13  C   UNL     1       5.570   6.528  15.734  0.00  0.00    +0.000 C 
ATOM     14  C   UNL     1       4.471   6.172  16.729  0.00  0.00    +0.000 C 
BRANCH   7  16
ATOM     15  C   UNL     1       6.808   5.435  19.500  0.00  0.00    +0.000 C 
ATOM     16  O   UNL     1       5.919   6.108  18.616  0.00  0.00    +0.000 OA
ENDBRANCH   7  16
ENDBRANCH   1   7
BRANCH   5  17
ATOM     17  O   UNL     1       1.402   6.796  21.055  0.00  0.00    +0.000 OA
BRANCH  17  18
ATOM     18  C   UNL     1       1.564   8.077  20.422  0.00  0.00    +0.000 C 
BRANCH  18  19
ATOM     19  C   UNL     1       0.654   9.088  21.074  0.00  0.00    +0.000 A 
ATOM     20  C   UNL     1       0.414   9.020  22.449  0.00  0.00    +0.000 A 
ATOM     21  C   UNL     1      -0.362   9.993  23.078  0.00  0.00    +0.000 A 
ATOM     22  C   UNL     1      -0.920  11.047  22.343  0.00  0.00    +0.000 A 
ATOM     23  C   UNL     1      -1.603  12.096  22.984  0.00  0.00    +0.000 A 
ATOM     24  C   UNL     1      -2.148  13.140  22.243  0.00  0.00    +0.000 A 
ATOM     25  C   UNL     1      -2.077  13.121  20.852  0.00  0.00    +0.000 A 
ATOM     26  C   UNL     1      -1.401  12.085  20.202  0.00  0.00    +0.000 A 
ATOM     27  C   UNL     1      -0.773  11.065  20.940  0.00  0.00    +0.000 A 
ATOM     28  C   UNL     1       0.012  10.078  20.316  0.00  0.00    +0.000 A 
ENDBRANCH  18  19
ENDBRANCH  17  18
ENDBRANCH   5  17
TORSDOF 5
ENDMDL
MODEL 5
REMARK VINA RESULT:      -8.3      2.116      3.018
REMARK  Name = 
REMARK  6 active torsions:
REMARK  status: ('A' for Active; 'I' for Inactive)
REMARK    1  A    between atoms: C_1  and  O_2
REMARK    2  A    between atoms: O_2  and  C_3
REMARK    3  A    between atoms: C_3  and  C_4
REMARK    4  A    between atoms: C_8  and  O_9
REMARK    5  A    between atoms: O_9  and  C_10
REMARK    6  A    between atoms: C_10  and  C_11
REMARK                            x       y       z     vdW  Elec       q    Type
REMARK                         _______ _______ _______ _____ _____    ______ ____
ROOT
ATOM      1  C   UNL     1       3.608   4.429  19.116  0.00  0.00    +0.000 A 
ATOM      2  C   UNL     1       3.457   3.305  19.952  0.00  0.00    +0.000 A 
ATOM      3  C   UNL     1       2.590   3.313  21.043  0.00  0.00    +0.000 A 
ATOM      4  C   UNL     1       1.870   4.456  21.352  0.00  0.00    +0.000 A 
ATOM      5  C   UNL     1       2.043   5.613  20.594  0.00  0.00    +0.000 A 
ATOM      6  C   UNL     1       2.883   5.589  19.467  0.00  0.00    +0.000 A 
ENDROOT
BRANCH   1   7
ATOM      7  C   UNL     1       4.557   4.400  17.889  0.00  0.00    +0.000 C 
ATOM      8  C   UNL     1       4.314   5.608  16.931  0.00  0.00    +0.000 C 
ATOM      9  C   UNL     1       5.238   5.710  15.728  0.00  0.00    +0.000 C 
ATOM     10  S   UNL     1       6.932   5.830  16.221  0.00  0.00    +0.000 S 
ATOM     11  O   UNL     1       7.756   5.614  15.048  0.00  0.00    +0.000 OA
ATOM     12  O   UNL     1       7.083   7.028  17.024  0.00  0.00    +0.000 OA
ATOM     13  C   UNL     1       7.082   4.423  17.284  0.00  0.00    +0.000 C 
ATOM     14  C   UNL     1       6.033   4.424  18.390  0.00  0.00    +0.000 C 
BRANCH   7  16
ATOM     15  C   UNL     1       3.128   2.619  17.023  0.00  0.00    +0.000 C 
ATOM     16  O   UNL     1       4.436   3.164  17.157  0.00  0.00    +0.000 OA
ENDBRANCH   7  16
ENDBRANCH   1   7
BRANCH   5  17
ATOM     17  O   UNL     1       1.438   6.808  20.884  0.00  0.00    +0.000 OA
BRANCH  17  18
ATOM     18  C   UNL     1       1.826   7.909  20.044  0.00  0.00    +0.000 C 
BRANCH  18  19
ATOM     19  C   UNL     1       0.937   9.097  20.315  0.00  0.00    +0.000 A 
ATOM     20  C   UNL     1       0.645   9.994  19.285  0.00  0.00    +0.000 A 
ATOM     21  C   UNL     1      -0.236  11.053  19.499  0.00  0.00    +0.000 A 
ATOM     22  C   UNL     1      -0.836  11.239  20.751  0.00  0.00    +0.000 A 
ATOM     23  C   UNL     1      -1.817  12.229  20.946  0.00  0.00    +0.000 A 
ATOM     24  C   UNL     1      -2.409  12.401  22.194  0.00  0.00    +0.000 A 
ATOM     25  C   UNL     1      -1.989  11.633  23.278  0.00  0.00    +0.000 A 
ATOM     26  C   UNL     1      -1.017  10.645  23.099  0.00  0.00    +0.000 A 
ATOM     27  C   UNL     1      -0.466  10.403  21.827  0.00  0.00    +0.000 A 
ATOM     28  C   UNL     1       0.424   9.339  21.597  0.00  0.00    +0.000 A 
ENDBRANCH  18  19
ENDBRANCH  17  18
ENDBRANCH   5  17
TORSDOF 5
ENDMDL
MODEL 6
REMARK VINA RESULT:      -8.3      5.021      8.470
REMARK  Name = 
REMARK  6 active torsions:
REMARK  status: ('A' for Active; 'I' for Inactive)
REMARK    1  A    between atoms: C_1  and  O_2
REMARK    2  A    between atoms: O_2  and  C_3
REMARK    3  A    between atoms: C_3  and  C_4
REMARK    4  A    between atoms: C_8  and  O_9
REMARK    5  A    between atoms: O_9  and  C_10
REMARK    6  A    between atoms: C_10  and  C_11
REMARK                            x       y       z     vdW  Elec       q    Type
REMARK                         _______ _______ _______ _____ _____    ______ ____
ROOT
ATOM      1  C   UNL     1       4.846   4.894  17.463  0.00  0.00    +0.000 A 
ATOM      2  C   UNL     1       5.380   4.016  16.500  0.00  0.00    +0.000 A 
ATOM      3  C   UNL     1       6.520   4.338  15.765  0.00  0.00    +0.000 A 
ATOM      4  C   UNL     1       7.143   5.562  15.948  0.00  0.00    +0.000 A 
ATOM      5  C   UNL     1       6.607   6.490  16.839  0.00  0.00    +0.000 A 
ATOM      6  C   UNL     1       5.484   6.145  17.613  0.00  0.00    +0.000 A 
ENDROOT
BRANCH   1   7
ATOM      7  C   UNL     1       3.591   4.514  18.293  0.00  0.00    +0.000 C 
ATOM      8  C   UNL     1       3.341   2.974  18.306  0.00  0.00    +0.000 C 
ATOM      9  C   UNL     1       2.171   2.488  19.147  0.00  0.00    +0.000 C 
ATOM     10  S   UNL     1       2.357   2.951  20.843  0.00  0.00    +0.000 S 
ATOM     11  O   UNL     1       1.087   2.733  21.508  0.00  0.00    +0.000 OA
ATOM     12  O   UNL     1       3.573   2.341  21.346  0.00  0.00    +0.000 OA
ATOM     13  C   UNL     1       2.626   4.695  20.697  0.00  0.00    +0.000 C 
ATOM     14  C   UNL     1       3.780   5.021  19.756  0.00  0.00    +0.000 C 
BRANCH   7  16
ATOM     15  C   UNL     1       2.341   6.598  18.053  0.00  0.00    +0.000 C 
ATOM     16  O   UNL     1       2.415   5.196  17.815  0.00  0.00    +0.000 OA
ENDBRANCH   7  16
ENDBRANCH   1   7
BRANCH   5  17
ATOM     17  O   UNL     1       7.108   7.753  17.014  0.00  0.00    +0.000 OA
BRANCH  17  18
ATOM     18  C   UNL     1       8.015   7.902  18.121  0.00  0.00    +0.000 C 
BRANCH  18  19
ATOM     19  C   UNL     1       8.423   9.349  18.256  0.00  0.00    +0.000 A 
ATOM     20  C   UNL     1       7.906  10.300  17.374  0.00  0.00    +0.000 A 
ATOM     21  C   UNL     1       8.212  11.651  17.534  0.00  0.00    +0.000 A 
ATOM     22  C   UNL     1       9.048  12.074  18.575  0.00  0.00    +0.000 A 
ATOM     23  C   UNL     1       9.268  13.443  18.819  0.00  0.00    +0.000 A 
ATOM     24  C   UNL     1      10.097  13.850  19.860  0.00  0.00    +0.000 A 
ATOM     25  C   UNL     1      10.767  12.904  20.630  0.00  0.00    +0.000 A 
ATOM     26  C   UNL     1      10.558  11.541  20.400  0.00  0.00    +0.000 A 
ATOM     27  C   UNL     1       9.661  11.111  19.405  0.00  0.00    +0.000 A 
ATOM     28  C   UNL     1       9.344   9.752  19.234  0.00  0.00    +0.000 A 
ENDBRANCH  18  19
ENDBRANCH  17  18
ENDBRANCH   5  17
TORSDOF 5
ENDMDL
MODEL 7
REMARK VINA RESULT:      -8.2      2.744      4.427
REMARK  Name = 
REMARK  6 active torsions:
REMARK  status: ('A' for Active; 'I' for Inactive)
REMARK    1  A    between atoms: C_1  and  O_2
REMARK    2  A    between atoms: O_2  and  C_3
REMARK    3  A    between atoms: C_3  and  C_4
REMARK    4  A    between atoms: C_8  and  O_9
REMARK    5  A    between atoms: O_9  and  C_10
REMARK    6  A    between atoms: C_10  and  C_11
REMARK                            x       y       z     vdW  Elec       q    Type
REMARK                         _______ _______ _______ _____ _____    ______ ____
ROOT
ATOM      1  C   UNL     1       2.574   6.859  19.015  0.00  0.00    +0.000 A 
ATOM      2  C   UNL     1       2.620   7.629  17.836  0.00  0.00    +0.000 A 
ATOM      3  C   UNL     1       2.070   8.909  17.773  0.00  0.00    +0.000 A 
ATOM      4  C   UNL     1       1.430   9.446  18.878  0.00  0.00    +0.000 A 
ATOM      5  C   UNL     1       1.298   8.691  20.042  0.00  0.00    +0.000 A 
ATOM      6  C   UNL     1       1.894   7.419  20.118  0.00  0.00    +0.000 A 
ENDROOT
BRANCH   1   7
ATOM      7  C   UNL     1       3.211   5.446  19.081  0.00  0.00    +0.000 C 
ATOM      8  C   UNL     1       2.369   4.463  19.953  0.00  0.00    +0.000 C 
ATOM      9  C   UNL     1       2.873   3.031  20.031  0.00  0.00    +0.000 C 
ATOM     10  S   UNL     1       2.958   2.287  18.429  0.00  0.00    +0.000 S 
ATOM     11  O   UNL     1       3.723   1.061  18.544  0.00  0.00    +0.000 OA
ATOM     12  O   UNL     1       1.623   2.278  17.864  0.00  0.00    +0.000 OA
ATOM     13  C   UNL     1       3.929   3.477  17.547  0.00  0.00    +0.000 C 
ATOM     14  C   UNL     1       3.336   4.879  17.634  0.00  0.00    +0.000 C 
BRANCH   7  16
ATOM     15  C   UNL     1       5.581   5.827  18.633  0.00  0.00    +0.000 C 
ATOM     16  O   UNL     1       4.565   5.500  19.574  0.00  0.00    +0.000 OA
ENDBRANCH   7  16
ENDBRANCH   1   7
BRANCH   5  17
ATOM     17  O   UNL     1       0.605   9.112  21.147  0.00  0.00    +0.000 OA
BRANCH  17  18
ATOM     18  C   UNL     1       0.841  10.478  21.532  0.00  0.00    +0.000 C 
BRANCH  18  19
ATOM     19  C   UNL     1      -0.460  11.243  21.521  0.00  0.00    +0.000 A 
ATOM     20  C   UNL     1      -0.935  11.786  20.325  0.00  0.00    +0.000 A 
ATOM     21  C   UNL     1      -2.172  12.428  20.284  0.00  0.00    +0.000 A 
ATOM     22  C   UNL     1      -2.953  12.546  21.441  0.00  0.00    +0.000 A 
ATOM     23  C   UNL     1      -4.252  13.085  21.388  0.00  0.00    +0.000 A 
ATOM     24  C   UNL     1      -5.020  13.192  22.543  0.00  0.00    +0.000 A 
ATOM     25  C   UNL     1      -4.483  12.826  23.775  0.00  0.00    +0.000 A 
ATOM     26  C   UNL     1      -3.195  12.289  23.843  0.00  0.00    +0.000 A 
ATOM     27  C   UNL     1      -2.435  12.097  22.674  0.00  0.00    +0.000 A 
ATOM     28  C   UNL     1      -1.186  11.451  22.703  0.00  0.00    +0.000 A 
ENDBRANCH  18  19
ENDBRANCH  17  18
ENDBRANCH   5  17
TORSDOF 5
ENDMDL
MODEL 8
REMARK VINA RESULT:      -8.2      3.923      8.898
REMARK  Name = 
REMARK  6 active torsions:
REMARK  status: ('A' for Active; 'I' for Inactive)
REMARK    1  A    between atoms: C_1  and  O_2
REMARK    2  A    between atoms: O_2  and  C_3
REMARK    3  A    between atoms: C_3  and  C_4
REMARK    4  A    between atoms: C_8  and  O_9
REMARK    5  A    between atoms: O_9  and  C_10
REMARK    6  A    between atoms: C_10  and  C_11
REMARK                            x       y       z     vdW  Elec       q    Type
REMARK                         _______ _______ _______ _____ _____    ______ ____
ROOT
ATOM      1  C   UNL     1      -0.550  11.252  19.829  0.00  0.00    +0.000 A 
ATOM      2  C   UNL     1      -1.785  11.344  19.156  0.00  0.00    +0.000 A 
ATOM      3  C   UNL     1      -2.042  10.623  17.992  0.00  0.00    +0.000 A 
ATOM      4  C   UNL     1      -1.061   9.811  17.446  0.00  0.00    +0.000 A 
ATOM      5  C   UNL     1       0.198   9.745  18.039  0.00  0.00    +0.000 A 
ATOM      6  C   UNL     1       0.441  10.438  19.239  0.00  0.00    +0.000 A 
ENDROOT
BRANCH   1   7
ATOM      7  C   UNL     1      -0.284  12.040  21.139  0.00  0.00    +0.000 C 
ATOM      8  C   UNL     1       0.344  13.441  20.863  0.00  0.00    +0.000 C 
ATOM      9  C   UNL     1       0.585  14.323  22.078  0.00  0.00    +0.000 C 
ATOM     10  S   UNL     1      -0.917  14.643  22.954  0.00  0.00    +0.000 S 
ATOM     11  O   UNL     1      -0.572  15.215  24.240  0.00  0.00    +0.000 OA
ATOM     12  O   UNL     1      -1.825  15.330  22.055  0.00  0.00    +0.000 OA
ATOM     13  C   UNL     1      -1.524  13.000  23.209  0.00  0.00    +0.000 C 
ATOM     14  C   UNL     1      -1.631  12.218  21.905  0.00  0.00    +0.000 C 
BRANCH   7  16
ATOM     15  C   UNL     1       0.032  10.079  22.559  0.00  0.00    +0.000 C 
ATOM     16  O   UNL     1       0.559  11.296  22.041  0.00  0.00    +0.000 OA
ENDBRANCH   7  16
ENDBRANCH   1   7
BRANCH   5  17
ATOM     17  O   UNL     1       1.249   9.037  17.515  0.00  0.00    +0.000 OA
BRANCH  17  18
ATOM     18  C   UNL     1       2.304   8.734  18.444  0.00  0.00    +0.000 C 
BRANCH  18  19
ATOM     19  C   UNL     1       2.172   7.308  18.920  0.00  0.00    +0.000 A 
ATOM     20  C   UNL     1       1.897   7.049  20.265  0.00  0.00    +0.000 A 
ATOM     21  C   UNL     1       1.695   5.741  20.704  0.00  0.00    +0.000 A 
ATOM     22  C   UNL     1       1.772   4.668  19.808  0.00  0.00    +0.000 A 
ATOM     23  C   UNL     1       1.453   3.359  20.214  0.00  0.00    +0.000 A 
ATOM     24  C   UNL     1       1.528   2.302  19.313  0.00  0.00    +0.000 A 
ATOM     25  C   UNL     1       1.982   2.521  18.015  0.00  0.00    +0.000 A 
ATOM     26  C   UNL     1       2.302   3.816  17.597  0.00  0.00    +0.000 A 
ATOM     27  C   UNL     1       2.154   4.909  18.471  0.00  0.00    +0.000 A 
ATOM     28  C   UNL     1       2.355   6.232  18.040  0.00  0.00    +0.000 A 
ENDBRANCH  18  19
ENDBRANCH  17  18
ENDBRANCH   5  17
TORSDOF 5
ENDMDL
MODEL 9
REMARK VINA RESULT:      -8.1      2.091      2.834
REMARK  Name = 
REMARK  6 active torsions:
REMARK  status: ('A' for Active; 'I' for Inactive)
REMARK    1  A    between atoms: C_1  and  O_2
REMARK    2  A    between atoms: O_2  and  C_3
REMARK    3  A    between atoms: C_3  and  C_4
REMARK    4  A    between atoms: C_8  and  O_9
REMARK    5  A    between atoms: O_9  and  C_10
REMARK    6  A    between atoms: C_10  and  C_11
REMARK                            x       y       z     vdW  Elec       q    Type
REMARK                         _______ _______ _______ _____ _____    ______ ____
ROOT
ATOM      1  C   UNL     1       3.429   4.450  19.195  0.00  0.00    +0.000 A 
ATOM      2  C   UNL     1       3.403   3.338  20.058  0.00  0.00    +0.000 A 
ATOM      3  C   UNL     1       2.512   3.258  21.127  0.00  0.00    +0.000 A 
ATOM      4  C   UNL     1       1.640   4.304  21.384  0.00  0.00    +0.000 A 
ATOM      5  C   UNL     1       1.680   5.454  20.599  0.00  0.00    +0.000 A 
ATOM      6  C   UNL     1       2.548   5.513  19.494  0.00  0.00    +0.000 A 
ENDROOT
BRANCH   1   7
ATOM      7  C   UNL     1       4.408   4.517  17.993  0.00  0.00    +0.000 C 
ATOM      8  C   UNL     1       4.238   5.831  17.169  0.00  0.00    +0.000 C 
ATOM      9  C   UNL     1       5.196   6.025  16.005  0.00  0.00    +0.000 C 
ATOM     10  S   UNL     1       6.880   6.022  16.545  0.00  0.00    +0.000 S 
ATOM     11  O   UNL     1       7.725   5.901  15.374  0.00  0.00    +0.000 OA
ATOM     12  O   UNL     1       7.056   7.117  17.478  0.00  0.00    +0.000 OA
ATOM     13  C   UNL     1       6.948   4.501  17.450  0.00  0.00    +0.000 C 
ATOM     14  C   UNL     1       5.871   4.425  18.526  0.00  0.00    +0.000 C 
BRANCH   7  16
ATOM     15  C   UNL     1       2.931   2.991  16.787  0.00  0.00    +0.000 C 
ATOM     16  O   UNL     1       4.259   3.374  17.126  0.00  0.00    +0.000 OA
ENDBRANCH   7  16
ENDBRANCH   1   7
BRANCH   5  17
ATOM     17  O   UNL     1       0.915   6.566  20.839  0.00  0.00    +0.000 OA
BRANCH  17  18
ATOM     18  C   UNL     1       1.652   7.789  21.011  0.00  0.00    +0.000 C 
BRANCH  18  19
ATOM     19  C   UNL     1       0.708   8.907  21.378  0.00  0.00    +0.000 A 
ATOM     20  C   UNL     1       0.373   9.120  22.717  0.00  0.00    +0.000 A 
ATOM     21  C   UNL     1      -0.436  10.196  23.079  0.00  0.00    +0.000 A 
ATOM     22  C   UNL     1      -0.932  11.075  22.108  0.00  0.00    +0.000 A 
ATOM     23  C   UNL     1      -1.649  12.229  22.472  0.00  0.00    +0.000 A 
ATOM     24  C   UNL     1      -2.132  13.097  21.497  0.00  0.00    +0.000 A 
ATOM     25  C   UNL     1      -1.964  12.795  20.148  0.00  0.00    +0.000 A 
ATOM     26  C   UNL     1      -1.254  11.652  19.771  0.00  0.00    +0.000 A 
ATOM     27  C   UNL     1      -0.688  10.806  20.744  0.00  0.00    +0.000 A 
ATOM     28  C   UNL     1       0.129   9.718  20.391  0.00  0.00    +0.000 A 
ENDBRANCH  18  19
ENDBRANCH  17  18
ENDBRANCH   5  17
TORSDOF 5
ENDMDL
