MODEL 1
REMARK VINA RESULT:      -9.2      0.000      0.000
REMARK  Name = 
REMARK  7 active torsions:
REMARK  status: ('A' for Active; 'I' for Inactive)
REMARK    1  A    between atoms: C_1  and  C_2
REMARK    2  A    between atoms: C_2  and  C_3
REMARK    3  A    between atoms: C_9  and  C_10
REMARK    4  A    between atoms: C_10  and  N_11
REMARK    5  A    between atoms: N_16  and  C_17
REMARK    6  A    between atoms: N_23  and  C_24
REMARK    7  A    between atoms: C_24  and  C_25
REMARK                            x       y       z     vdW  Elec       q    Type
REMARK                         _______ _______ _______ _____ _____    ______ ____
ROOT
ATOM      1  N   UNL     1       0.701  10.781  19.607  0.00  0.00    +0.000 NA
ATOM      2  C   UNL     1       0.993  10.571  18.179  0.00  0.00    +0.000 C 
ATOM      3  C   UNL     1       2.117   9.563  17.859  0.00  0.00    +0.000 C 
ATOM      4  N   UNL     1       1.874   8.234  18.460  0.00  0.00    +0.000 N 
ATOM      5  C   UNL     1       2.764   7.213  18.093  0.00  0.00    +0.000 C 
ATOM      6  N   UNL     1       3.998   7.510  17.789  0.00  0.00    +0.000 NA
ATOM      7  N   UNL     1       2.064   6.020  18.081  0.00  0.00    +0.000 N 
ATOM      8  C   UNL     1       1.513   8.311  19.899  0.00  0.00    +0.000 C 
ATOM      9  C   UNL     1       0.516   9.455  20.239  0.00  0.00    +0.000 C 
ATOM     10  H   UNL     1       1.236   6.127  17.504  0.00  0.00    +0.000 HD
ENDROOT
BRANCH   6  11
ATOM     11  C   UNL     1       4.917   6.601  17.237  0.00  0.00    +0.000 A 
ATOM     12  C   UNL     1       5.015   6.422  15.854  0.00  0.00    +0.000 A 
ATOM     13  C   UNL     1       5.762   5.374  15.311  0.00  0.00    +0.000 A 
ATOM     14  C   UNL     1       6.570   4.602  16.136  0.00  0.00    +0.000 A 
ATOM     15  C   UNL     1       6.644   4.903  17.495  0.00  0.00    +0.000 A 
ATOM     16  C   UNL     1       5.808   5.887  18.047  0.00  0.00    +0.000 A 
ENDBRANCH   6  11
BRANCH   1  17
ATOM     17  C   UNL     1       1.661  11.666  20.296  0.00  0.00    +0.000 C 
BRANCH  17  26
ATOM     18  C   UNL     1       0.735  18.630  19.472  0.00  0.00    +0.000 C 
ATOM     19  C   UNL     1       0.466  17.463  18.543  0.00  0.00    +0.000 C 
ATOM     20  C   UNL     1      -0.386  17.771  17.328  0.00  0.00    +0.000 C 
ATOM     21  N   UNL     1       1.755  16.880  18.119  0.00  0.00    +0.000 N 
ATOM     22  O   UNL     1       2.612  17.501  17.411  0.00  0.00    +0.000 OA
ATOM     23  C   UNL     1       1.918  15.666  18.586  0.00  0.00    +0.000 A 
ATOM     24  C   UNL     1       3.027  14.740  18.462  0.00  0.00    +0.000 A 
ATOM     25  C   UNL     1       2.850  13.556  19.065  0.00  0.00    +0.000 A 
ATOM     26  C   UNL     1       1.654  13.127  19.794  0.00  0.00    +0.000 A 
ATOM     27  C   UNL     1       0.598  13.957  19.941  0.00  0.00    +0.000 A 
ATOM     28  C   UNL     1       0.705  15.294  19.337  0.00  0.00    +0.000 A 
ATOM     29  N   UNL     1      -0.114  16.323  19.308  0.00  0.00    +0.000 N 
ATOM     30  O   UNL     1      -1.258  16.347  19.849  0.00  0.00    +0.000 OA
ENDBRANCH  17  26
ENDBRANCH   1  17
BRANCH   7  31
ATOM     31  C   UNL     1       2.658   4.705  17.959  0.00  0.00    +0.000 C 
BRANCH  31  32
ATOM     32  C   UNL     1       2.649   3.822  19.186  0.00  0.00    +0.000 A 
ATOM     33  C   UNL     1       3.737   3.082  19.652  0.00  0.00    +0.000 A 
ATOM     34  C   UNL     1       3.637   2.375  20.855  0.00  0.00    +0.000 A 
ATOM     35  C   UNL     1       2.460   2.405  21.604  0.00  0.00    +0.000 A 
ATOM     36  C   UNL     1       1.372   3.149  21.159  0.00  0.00    +0.000 A 
ATOM     37  C   UNL     1       1.469   3.851  19.961  0.00  0.00    +0.000 A 
ENDBRANCH  31  32
ENDBRANCH   7  31
TORSDOF 5
ENDMDL
MODEL 2
REMARK VINA RESULT:      -8.8      3.295      5.459
REMARK  Name = 
REMARK  7 active torsions:
REMARK  status: ('A' for Active; 'I' for Inactive)
REMARK    1  A    between atoms: C_1  and  C_2
REMARK    2  A    between atoms: C_2  and  C_3
REMARK    3  A    between atoms: C_9  and  C_10
REMARK    4  A    between atoms: C_10  and  N_11
REMARK    5  A    between atoms: N_16  and  C_17
REMARK    6  A    between atoms: N_23  and  C_24
REMARK    7  A    between atoms: C_24  and  C_25
REMARK                            x       y       z     vdW  Elec       q    Type
REMARK                         _______ _______ _______ _____ _____    ______ ____
ROOT
ATOM      1  N   UNL     1       0.538  10.885  20.650  0.00  0.00    +0.000 NA
ATOM      2  C   UNL     1       1.040  10.069  21.769  0.00  0.00    +0.000 C 
ATOM      3  C   UNL     1       1.082   8.545  21.529  0.00  0.00    +0.000 C 
ATOM      4  N   UNL     1       1.866   8.181  20.329  0.00  0.00    +0.000 N 
ATOM      5  C   UNL     1       2.087   6.811  20.123  0.00  0.00    +0.000 C 
ATOM      6  N   UNL     1       1.206   5.944  20.542  0.00  0.00    +0.000 NA
ATOM      7  N   UNL     1       3.322   6.665  19.517  0.00  0.00    +0.000 N 
ATOM      8  C   UNL     1       1.490   8.978  19.133  0.00  0.00    +0.000 C 
ATOM      9  C   UNL     1       1.270  10.489  19.426  0.00  0.00    +0.000 C 
ATOM     10  H   UNL     1       4.020   7.157  20.063  0.00  0.00    +0.000 HD
ENDROOT
BRANCH   6  11
ATOM     11  C   UNL     1       1.408   4.553  20.551  0.00  0.00    +0.000 A 
ATOM     12  C   UNL     1       2.098   3.930  21.595  0.00  0.00    +0.000 A 
ATOM     13  C   UNL     1       2.491   2.593  21.507  0.00  0.00    +0.000 A 
ATOM     14  C   UNL     1       2.039   1.809  20.453  0.00  0.00    +0.000 A 
ATOM     15  C   UNL     1       1.175   2.364  19.510  0.00  0.00    +0.000 A 
ATOM     16  C   UNL     1       0.874   3.734  19.549  0.00  0.00    +0.000 A 
ENDBRANCH   6  11
BRANCH   1  17
ATOM     17  C   UNL     1      -0.933  10.888  20.518  0.00  0.00    +0.000 C 
BRANCH  17  26
ATOM     18  C   UNL     1      -3.609  15.696  24.963  0.00  0.00    +0.000 C 
ATOM     19  C   UNL     1      -4.231  14.941  23.805  0.00  0.00    +0.000 C 
ATOM     20  C   UNL     1      -5.743  15.001  23.715  0.00  0.00    +0.000 C 
ATOM     21  N   UNL     1      -3.632  15.422  22.543  0.00  0.00    +0.000 N 
ATOM     22  O   UNL     1      -3.772  16.608  22.101  0.00  0.00    +0.000 OA
ATOM     23  C   UNL     1      -2.920  14.491  21.956  0.00  0.00    +0.000 A 
ATOM     24  C   UNL     1      -2.132  14.521  20.739  0.00  0.00    +0.000 A 
ATOM     25  C   UNL     1      -1.534  13.364  20.421  0.00  0.00    +0.000 A 
ATOM     26  C   UNL     1      -1.628  12.107  21.165  0.00  0.00    +0.000 A 
ATOM     27  C   UNL     1      -2.345  12.032  22.308  0.00  0.00    +0.000 A 
ATOM     28  C   UNL     1      -3.021  13.258  22.759  0.00  0.00    +0.000 A 
ATOM     29  N   UNL     1      -3.767  13.525  23.809  0.00  0.00    +0.000 N 
ATOM     30  O   UNL     1      -4.069  12.688  24.709  0.00  0.00    +0.000 OA
ENDBRANCH  17  26
ENDBRANCH   1  17
BRANCH   7  31
ATOM     31  C   UNL     1       3.831   5.434  18.948  0.00  0.00    +0.000 C 
BRANCH  31  32
ATOM     32  C   UNL     1       4.374   5.493  17.538  0.00  0.00    +0.000 A 
ATOM     33  C   UNL     1       4.652   6.664  16.832  0.00  0.00    +0.000 A 
ATOM     34  C   UNL     1       5.244   6.593  15.566  0.00  0.00    +0.000 A 
ATOM     35  C   UNL     1       5.568   5.360  14.998  0.00  0.00    +0.000 A 
ATOM     36  C   UNL     1       5.310   4.185  15.697  0.00  0.00    +0.000 A 
ATOM     37  C   UNL     1       4.719   4.254  16.955  0.00  0.00    +0.000 A 
ENDBRANCH  31  32
ENDBRANCH   7  31
TORSDOF 5
ENDMDL
MODEL 3
REMARK VINA RESULT:      -8.7      5.267     10.721
REMARK  Name = 
REMARK  7 active torsions:
REMARK  status: ('A' for Active; 'I' for Inactive)
REMARK    1  A    between atoms: C_1  and  C_2
REMARK    2  A    between atoms: C_2  and  C_3
REMARK    3  A    between atoms: C_9  and  C_10
REMARK    4  A    between atoms: C_10  and  N_11
REMARK    5  A    between atoms: N_16  and  C_17
REMARK    6  A    between atoms: N_23  and  C_24
REMARK    7  A    between atoms: C_24  and  C_25
REMARK                            x       y       z     vdW  Elec       q    Type
REMARK                         _______ _______ _______ _____ _____    ______ ____
ROOT
ATOM      1  N   UNL     1       1.327   9.593  19.211  0.00  0.00    +0.000 NA
ATOM      2  C   UNL     1       0.817  10.324  18.038  0.00  0.00    +0.000 C 
ATOM      3  C   UNL     1      -0.707  10.568  18.002  0.00  0.00    +0.000 C 
ATOM      4  N   UNL     1      -1.197  11.269  19.209  0.00  0.00    +0.000 N 
ATOM      5  C   UNL     1      -2.542  11.669  19.192  0.00  0.00    +0.000 C 
ATOM      6  N   UNL     1      -3.414  10.975  18.513  0.00  0.00    +0.000 NA
ATOM      7  N   UNL     1      -2.647  12.843  19.916  0.00  0.00    +0.000 N 
ATOM      8  C   UNL     1      -0.704  10.657  20.469  0.00  0.00    +0.000 C 
ATOM      9  C   UNL     1       0.795  10.246  20.428  0.00  0.00    +0.000 C 
ATOM     10  H   UNL     1      -1.972  13.512  19.562  0.00  0.00    +0.000 HD
ENDROOT
BRANCH   6  11
ATOM     11  C   UNL     1      -4.739  11.382  18.279  0.00  0.00    +0.000 A 
ATOM     12  C   UNL     1      -5.059  12.225  17.212  0.00  0.00    +0.000 A 
ATOM     13  C   UNL     1      -6.324  12.805  17.101  0.00  0.00    +0.000 A 
ATOM     14  C   UNL     1      -7.344  12.406  17.955  0.00  0.00    +0.000 A 
ATOM     15  C   UNL     1      -7.095  11.409  18.897  0.00  0.00    +0.000 A 
ATOM     16  C   UNL     1      -5.795  10.911  19.070  0.00  0.00    +0.000 A 
ENDBRANCH   6  11
BRANCH   1  17
ATOM     17  C   UNL     1       1.118   8.133  19.150  0.00  0.00    +0.000 C 
BRANCH  17  26
ATOM     18  C   UNL     1       7.422   5.912  16.836  0.00  0.00    +0.000 C 
ATOM     19  C   UNL     1       6.033   5.323  16.689  0.00  0.00    +0.000 C 
ATOM     20  C   UNL     1       5.891   4.218  15.662  0.00  0.00    +0.000 C 
ATOM     21  N   UNL     1       5.572   4.847  18.009  0.00  0.00    +0.000 N 
ATOM     22  O   UNL     1       6.122   3.892  18.647  0.00  0.00    +0.000 OA
ATOM     23  C   UNL     1       4.554   5.545  18.450  0.00  0.00    +0.000 A 
ATOM     24  C   UNL     1       3.812   5.462  19.693  0.00  0.00    +0.000 A 
ATOM     25  C   UNL     1       2.803   6.338  19.812  0.00  0.00    +0.000 A 
ATOM     26  C   UNL     1       2.388   7.321  18.810  0.00  0.00    +0.000 A 
ATOM     27  C   UNL     1       3.053   7.439  17.639  0.00  0.00    +0.000 A 
ATOM     28  C   UNL     1       4.196   6.539  17.422  0.00  0.00    +0.000 A 
ATOM     29  N   UNL     1       5.045   6.407  16.426  0.00  0.00    +0.000 N 
ATOM     30  O   UNL     1       5.023   7.099  15.367  0.00  0.00    +0.000 OA
ENDBRANCH  17  26
ENDBRANCH   1  17
BRANCH   7  31
ATOM     31  C   UNL     1      -3.890  13.469  20.315  0.00  0.00    +0.000 C 
BRANCH  31  32
ATOM     32  C   UNL     1      -4.423  13.140  21.691  0.00  0.00    +0.000 A 
ATOM     33  C   UNL     1      -3.640  12.840  22.807  0.00  0.00    +0.000 A 
ATOM     34  C   UNL     1      -4.244  12.645  24.053  0.00  0.00    +0.000 A 
ATOM     35  C   UNL     1      -5.628  12.754  24.200  0.00  0.00    +0.000 A 
ATOM     36  C   UNL     1      -6.420  13.066  23.100  0.00  0.00    +0.000 A 
ATOM     37  C   UNL     1      -5.820  13.257  21.859  0.00  0.00    +0.000 A 
ENDBRANCH  31  32
ENDBRANCH   7  31
TORSDOF 5
ENDMDL
MODEL 4
REMARK VINA RESULT:      -8.7      0.259      1.154
REMARK  Name = 
REMARK  7 active torsions:
REMARK  status: ('A' for Active; 'I' for Inactive)
REMARK    1  A    between atoms: C_1  and  C_2
REMARK    2  A    between atoms: C_2  and  C_3
REMARK    3  A    between atoms: C_9  and  C_10
REMARK    4  A    between atoms: C_10  and  N_11
REMARK    5  A    between atoms: N_16  and  C_17
REMARK    6  A    between atoms: N_23  and  C_24
REMARK    7  A    between atoms: C_24  and  C_25
REMARK                            x       y       z     vdW  Elec       q    Type
REMARK                         _______ _______ _______ _____ _____    ______ ____
ROOT
ATOM      1  N   UNL     1       0.645  10.765  19.539  0.00  0.00    +0.000 NA
ATOM      2  C   UNL     1       0.998  10.544  18.125  0.00  0.00    +0.000 C 
ATOM      3  C   UNL     1       2.132   9.531  17.861  0.00  0.00    +0.000 C 
ATOM      4  N   UNL     1       1.860   8.207  18.461  0.00  0.00    +0.000 N 
ATOM      5  C   UNL     1       2.762   7.182  18.140  0.00  0.00    +0.000 C 
ATOM      6  N   UNL     1       4.009   7.474  17.887  0.00  0.00    +0.000 NA
ATOM      7  N   UNL     1       2.059   5.990  18.107  0.00  0.00    +0.000 N 
ATOM      8  C   UNL     1       1.437   8.295  19.882  0.00  0.00    +0.000 C 
ATOM      9  C   UNL     1       0.429   9.444  20.171  0.00  0.00    +0.000 C 
ATOM     10  H   UNL     1       1.258   6.095  17.494  0.00  0.00    +0.000 HD
ENDROOT
BRANCH   6  11
ATOM     11  C   UNL     1       4.948   6.558  17.382  0.00  0.00    +0.000 A 
ATOM     12  C   UNL     1       5.842   5.898  18.230  0.00  0.00    +0.000 A 
ATOM     13  C   UNL     1       6.912   5.160  17.721  0.00  0.00    +0.000 A 
ATOM     14  C   UNL     1       6.997   4.919  16.355  0.00  0.00    +0.000 A 
ATOM     15  C   UNL     1       5.994   5.398  15.513  0.00  0.00    +0.000 A 
ATOM     16  C   UNL     1       4.983   6.228  16.022  0.00  0.00    +0.000 A 
ENDBRANCH   6  11
BRANCH   1  17
ATOM     17  C   UNL     1       1.577  11.653  20.262  0.00  0.00    +0.000 C 
BRANCH  17  26
ATOM     18  C   UNL     1       0.827  18.631  19.384  0.00  0.00    +0.000 C 
ATOM     19  C   UNL     1       0.507  17.463  18.472  0.00  0.00    +0.000 C 
ATOM     20  C   UNL     1      -0.360  17.782  17.271  0.00  0.00    +0.000 C 
ATOM     21  N   UNL     1       1.772  16.841  18.030  0.00  0.00    +0.000 N 
ATOM     22  O   UNL     1       2.631  17.430  17.298  0.00  0.00    +0.000 OA
ATOM     23  C   UNL     1       1.910  15.627  18.506  0.00  0.00    +0.000 A 
ATOM     24  C   UNL     1       2.991  14.670  18.370  0.00  0.00    +0.000 A 
ATOM     25  C   UNL     1       2.792  13.497  18.989  0.00  0.00    +0.000 A 
ATOM     26  C   UNL     1       1.600  13.108  19.745  0.00  0.00    +0.000 A 
ATOM     27  C   UNL     1       0.570  13.969  19.904  0.00  0.00    +0.000 A 
ATOM     28  C   UNL     1       0.702  15.296  19.283  0.00  0.00    +0.000 A 
ATOM     29  N   UNL     1      -0.088  16.348  19.260  0.00  0.00    +0.000 N 
ATOM     30  O   UNL     1      -1.221  16.408  19.822  0.00  0.00    +0.000 OA
ENDBRANCH  17  26
ENDBRANCH   1  17
BRANCH   7  31
ATOM     31  C   UNL     1       2.655   4.673  18.020  0.00  0.00    +0.000 C 
BRANCH  31  32
ATOM     32  C   UNL     1       2.755   3.870  19.297  0.00  0.00    +0.000 A 
ATOM     33  C   UNL     1       1.776   3.812  20.290  0.00  0.00    +0.000 A 
ATOM     34  C   UNL     1       1.941   2.957  21.385  0.00  0.00    +0.000 A 
ATOM     35  C   UNL     1       3.074   2.151  21.496  0.00  0.00    +0.000 A 
ATOM     36  C   UNL     1       4.052   2.188  20.507  0.00  0.00    +0.000 A 
ATOM     37  C   UNL     1       3.891   3.039  19.419  0.00  0.00    +0.000 A 
ENDBRANCH  31  32
ENDBRANCH   7  31
TORSDOF 5
ENDMDL
MODEL 5
REMARK VINA RESULT:      -8.6      3.406      5.425
REMARK  Name = 
REMARK  7 active torsions:
REMARK  status: ('A' for Active; 'I' for Inactive)
REMARK    1  A    between atoms: C_1  and  C_2
REMARK    2  A    between atoms: C_2  and  C_3
REMARK    3  A    between atoms: C_9  and  C_10
REMARK    4  A    between atoms: C_10  and  N_11
REMARK    5  A    between atoms: N_16  and  C_17
REMARK    6  A    between atoms: N_23  and  C_24
REMARK    7  A    between atoms: C_24  and  C_25
REMARK                            x       y       z     vdW  Elec       q    Type
REMARK                         _______ _______ _______ _____ _____    ______ ____
ROOT
ATOM      1  N   UNL     1       0.821  10.810  19.131  0.00  0.00    +0.000 NA
ATOM      2  C   UNL     1       0.982  10.097  20.410  0.00  0.00    +0.000 C 
ATOM      3  C   UNL     1       1.062   8.558  20.321  0.00  0.00    +0.000 C 
ATOM      4  N   UNL     1       2.141   8.099  19.419  0.00  0.00    +0.000 N 
ATOM      5  C   UNL     1       2.388   6.718  19.399  0.00  0.00    +0.000 C 
ATOM      6  N   UNL     1       1.411   5.883  19.630  0.00  0.00    +0.000 NA
ATOM      7  N   UNL     1       3.740   6.529  19.172  0.00  0.00    +0.000 N 
ATOM      8  C   UNL     1       2.123   8.788  18.103  0.00  0.00    +0.000 C 
ATOM      9  C   UNL     1       1.856  10.317  18.195  0.00  0.00    +0.000 C 
ATOM     10  H   UNL     1       4.268   7.072  19.847  0.00  0.00    +0.000 HD
ENDROOT
BRANCH   6  11
ATOM     11  C   UNL     1       1.580   4.500  19.812  0.00  0.00    +0.000 A 
ATOM     12  C   UNL     1       1.851   3.965  21.074  0.00  0.00    +0.000 A 
ATOM     13  C   UNL     1       2.233   2.631  21.229  0.00  0.00    +0.000 A 
ATOM     14  C   UNL     1       2.172   1.765  20.144  0.00  0.00    +0.000 A 
ATOM     15  C   UNL     1       1.703   2.237  18.919  0.00  0.00    +0.000 A 
ATOM     16  C   UNL     1       1.424   3.602  18.749  0.00  0.00    +0.000 A 
ENDBRANCH   6  11
BRANCH   1  17
ATOM     17  C   UNL     1      -0.556  10.791  18.598  0.00  0.00    +0.000 C 
BRANCH  17  26
ATOM     18  C   UNL     1      -3.828  15.254  23.003  0.00  0.00    +0.000 C 
ATOM     19  C   UNL     1      -3.864  13.743  22.894  0.00  0.00    +0.000 C 
ATOM     20  C   UNL     1      -4.484  13.011  24.068  0.00  0.00    +0.000 C 
ATOM     21  N   UNL     1      -4.557  13.369  21.644  0.00  0.00    +0.000 N 
ATOM     22  O   UNL     1      -5.787  13.611  21.420  0.00  0.00    +0.000 OA
ATOM     23  C   UNL     1      -3.748  12.790  20.792  0.00  0.00    +0.000 A 
ATOM     24  C   UNL     1      -3.975  12.300  19.446  0.00  0.00    +0.000 A 
ATOM     25  C   UNL     1      -2.908  11.742  18.857  0.00  0.00    +0.000 A 
ATOM     26  C   UNL     1      -1.581  11.572  19.452  0.00  0.00    +0.000 A 
ATOM     27  C   UNL     1      -1.319  12.018  20.700  0.00  0.00    +0.000 A 
ATOM     28  C   UNL     1      -2.421  12.671  21.424  0.00  0.00    +0.000 A 
ATOM     29  N   UNL     1      -2.497  13.218  22.618  0.00  0.00    +0.000 N 
ATOM     30  O   UNL     1      -1.539  13.282  23.442  0.00  0.00    +0.000 OA
ENDBRANCH  17  26
ENDBRANCH   1  17
BRANCH   7  31
ATOM     31  C   UNL     1       4.366   5.259  18.872  0.00  0.00    +0.000 C 
BRANCH  31  32
ATOM     32  C   UNL     1       4.902   5.062  17.473  0.00  0.00    +0.000 A 
ATOM     33  C   UNL     1       5.248   3.832  16.909  0.00  0.00    +0.000 A 
ATOM     34  C   UNL     1       5.644   3.763  15.569  0.00  0.00    +0.000 A 
ATOM     35  C   UNL     1       5.692   4.914  14.780  0.00  0.00    +0.000 A 
ATOM     36  C   UNL     1       5.338   6.144  15.324  0.00  0.00    +0.000 A 
ATOM     37  C   UNL     1       4.946   6.214  16.657  0.00  0.00    +0.000 A 
ENDBRANCH  31  32
ENDBRANCH   7  31
TORSDOF 5
ENDMDL
MODEL 6
REMARK VINA RESULT:      -8.6      3.404      5.247
REMARK  Name = 
REMARK  7 active torsions:
REMARK  status: ('A' for Active; 'I' for Inactive)
REMARK    1  A    between atoms: C_1  and  C_2
REMARK    2  A    between atoms: C_2  and  C_3
REMARK    3  A    between atoms: C_9  and  C_10
REMARK    4  A    between atoms: C_10  and  N_11
REMARK    5  A    between atoms: N_16  and  C_17
REMARK    6  A    between atoms: N_23  and  C_24
REMARK    7  A    between atoms: C_24  and  C_25
REMARK                            x       y       z     vdW  Elec       q    Type
REMARK                         _______ _______ _______ _____ _____    ______ ____
ROOT
ATOM      1  N   UNL     1       0.675  10.468  21.375  0.00  0.00    +0.000 NA
ATOM      2  C   UNL     1       1.611   9.561  22.060  0.00  0.00    +0.000 C 
ATOM      3  C   UNL     1       1.700   8.127  21.495  0.00  0.00    +0.000 C 
ATOM      4  N   UNL     1       2.037   8.106  20.055  0.00  0.00    +0.000 N 
ATOM      5  C   UNL     1       2.291   6.845  19.495  0.00  0.00    +0.000 C 
ATOM      6  N   UNL     1       1.696   5.790  19.981  0.00  0.00    +0.000 NA
ATOM      7  N   UNL     1       3.240   7.003  18.500  0.00  0.00    +0.000 N 
ATOM      8  C   UNL     1       1.194   9.029  19.253  0.00  0.00    +0.000 C 
ATOM      9  C   UNL     1       0.959  10.412  19.923  0.00  0.00    +0.000 C 
ATOM     10  H   UNL     1       4.039   7.498  18.880  0.00  0.00    +0.000 HD
ENDROOT
BRANCH   6  11
ATOM     11  C   UNL     1       2.011   4.468  19.620  0.00  0.00    +0.000 A 
ATOM     12  C   UNL     1       3.015   3.758  20.283  0.00  0.00    +0.000 A 
ATOM     13  C   UNL     1       3.481   2.535  19.795  0.00  0.00    +0.000 A 
ATOM     14  C   UNL     1       2.821   1.917  18.740  0.00  0.00    +0.000 A 
ATOM     15  C   UNL     1       1.684   2.517  18.200  0.00  0.00    +0.000 A 
ATOM     16  C   UNL     1       1.290   3.794  18.627  0.00  0.00    +0.000 A 
ENDBRANCH   6  11
BRANCH   1  17
ATOM     17  C   UNL     1      -0.741  10.261  21.737  0.00  0.00    +0.000 C 
BRANCH  17  26
ATOM     18  C   UNL     1      -3.794  15.822  24.866  0.00  0.00    +0.000 C 
ATOM     19  C   UNL     1      -4.336  14.792  23.894  0.00  0.00    +0.000 C 
ATOM     20  C   UNL     1      -5.844  14.755  23.746  0.00  0.00    +0.000 C 
ATOM     21  N   UNL     1      -3.705  14.999  22.575  0.00  0.00    +0.000 N 
ATOM     22  O   UNL     1      -3.875  16.044  21.867  0.00  0.00    +0.000 OA
ATOM     23  C   UNL     1      -2.932  13.995  22.242  0.00  0.00    +0.000 A 
ATOM     24  C   UNL     1      -2.096  13.784  21.076  0.00  0.00    +0.000 A 
ATOM     25  C   UNL     1      -1.438  12.616  21.052  0.00  0.00    +0.000 A 
ATOM     26  C   UNL     1      -1.512  11.560  22.063  0.00  0.00    +0.000 A 
ATOM     27  C   UNL     1      -2.272  11.714  23.170  0.00  0.00    +0.000 A 
ATOM     28  C   UNL     1      -3.016  12.975  23.304  0.00  0.00    +0.000 A 
ATOM     29  N   UNL     1      -3.815  13.440  24.240  0.00  0.00    +0.000 N 
ATOM     30  O   UNL     1      -4.120  12.817  25.299  0.00  0.00    +0.000 OA
ENDBRANCH  17  26
ENDBRANCH   1  17
BRANCH   7  31
ATOM     31  C   UNL     1       3.622   5.986  17.542  0.00  0.00    +0.000 C 
BRANCH  31  32
ATOM     32  C   UNL     1       5.030   5.444  17.628  0.00  0.00    +0.000 A 
ATOM     33  C   UNL     1       5.713   4.812  16.588  0.00  0.00    +0.000 A 
ATOM     34  C   UNL     1       7.050   4.437  16.757  0.00  0.00    +0.000 A 
ATOM     35  C   UNL     1       7.717   4.692  17.956  0.00  0.00    +0.000 A 
ATOM     36  C   UNL     1       7.052   5.333  18.997  0.00  0.00    +0.000 A 
ATOM     37  C   UNL     1       5.722   5.705  18.831  0.00  0.00    +0.000 A 
ENDBRANCH  31  32
ENDBRANCH   7  31
TORSDOF 5
ENDMDL
MODEL 7
REMARK VINA RESULT:      -8.5      3.392      5.478
REMARK  Name = 
REMARK  7 active torsions:
REMARK  status: ('A' for Active; 'I' for Inactive)
REMARK    1  A    between atoms: C_1  and  C_2
REMARK    2  A    between atoms: C_2  and  C_3
REMARK    3  A    between atoms: C_9  and  C_10
REMARK    4  A    between atoms: C_10  and  N_11
REMARK    5  A    between atoms: N_16  and  C_17
REMARK    6  A    between atoms: N_23  and  C_24
REMARK    7  A    between atoms: C_24  and  C_25
REMARK                            x       y       z     vdW  Elec       q    Type
REMARK                         _______ _______ _______ _____ _____    ______ ____
ROOT
ATOM      1  N   UNL     1       0.679  10.665  18.988  0.00  0.00    +0.000 NA
ATOM      2  C   UNL     1       0.682   9.777  20.164  0.00  0.00    +0.000 C 
ATOM      3  C   UNL     1       0.951   8.284  19.883  0.00  0.00    +0.000 C 
ATOM      4  N   UNL     1       2.222   8.063  19.159  0.00  0.00    +0.000 N 
ATOM      5  C   UNL     1       2.623   6.728  18.999  0.00  0.00    +0.000 C 
ATOM      6  N   UNL     1       1.721   5.788  18.916  0.00  0.00    +0.000 NA
ATOM      7  N   UNL     1       4.006   6.692  19.021  0.00  0.00    +0.000 N 
ATOM      8  C   UNL     1       2.368   8.944  17.972  0.00  0.00    +0.000 C 
ATOM      9  C   UNL     1       1.917  10.412  18.217  0.00  0.00    +0.000 C 
ATOM     10  H   UNL     1       4.336   7.166  19.855  0.00  0.00    +0.000 HD
ENDROOT
BRANCH   6  11
ATOM     11  C   UNL     1       2.009   4.412  18.938  0.00  0.00    +0.000 A 
ATOM     12  C   UNL     1       2.300   3.754  20.135  0.00  0.00    +0.000 A 
ATOM     13  C   UNL     1       2.797   2.448  20.142  0.00  0.00    +0.000 A 
ATOM     14  C   UNL     1       2.835   1.718  18.960  0.00  0.00    +0.000 A 
ATOM     15  C   UNL     1       2.351   2.293  17.786  0.00  0.00    +0.000 A 
ATOM     16  C   UNL     1       1.955   3.640  17.771  0.00  0.00    +0.000 A 
ENDBRANCH   6  11
BRANCH   1  17
ATOM     17  C   UNL     1      -0.565  10.612  18.195  0.00  0.00    +0.000 C 
BRANCH  17  26
ATOM     18  C   UNL     1      -6.924  12.338  20.768  0.00  0.00    +0.000 C 
ATOM     19  C   UNL     1      -5.973  13.084  19.853  0.00  0.00    +0.000 C 
ATOM     20  C   UNL     1      -6.555  14.287  19.138  0.00  0.00    +0.000 C 
ATOM     21  N   UNL     1      -4.781  13.486  20.626  0.00  0.00    +0.000 N 
ATOM     22  O   UNL     1      -4.812  14.313  21.593  0.00  0.00    +0.000 OA
ATOM     23  C   UNL     1      -3.702  12.865  20.215  0.00  0.00    +0.000 A 
ATOM     24  C   UNL     1      -2.335  12.915  20.696  0.00  0.00    +0.000 A 
ATOM     25  C   UNL     1      -1.467  12.147  20.021  0.00  0.00    +0.000 A 
ATOM     26  C   UNL     1      -1.774  11.309  18.860  0.00  0.00    +0.000 A 
ATOM     27  C   UNL     1      -3.034  11.226  18.380  0.00  0.00    +0.000 A 
ATOM     28  C   UNL     1      -4.068  12.013  19.069  0.00  0.00    +0.000 A 
ATOM     29  N   UNL     1      -5.363  12.142  18.873  0.00  0.00    +0.000 N 
ATOM     30  O   UNL     1      -6.014  11.556  17.960  0.00  0.00    +0.000 OA
ENDBRANCH  17  26
ENDBRANCH   1  17
BRANCH   7  31
ATOM     31  C   UNL     1       4.816   5.541  18.681  0.00  0.00    +0.000 C 
BRANCH  31  32
ATOM     32  C   UNL     1       5.100   5.300  17.216  0.00  0.00    +0.000 A 
ATOM     33  C   UNL     1       5.034   6.270  16.214  0.00  0.00    +0.000 A 
ATOM     34  C   UNL     1       5.413   5.950  14.906  0.00  0.00    +0.000 A 
ATOM     35  C   UNL     1       5.866   4.669  14.587  0.00  0.00    +0.000 A 
ATOM     36  C   UNL     1       5.949   3.696  15.578  0.00  0.00    +0.000 A 
ATOM     37  C   UNL     1       5.570   4.012  16.879  0.00  0.00    +0.000 A 
ENDBRANCH  31  32
ENDBRANCH   7  31
TORSDOF 5
ENDMDL
MODEL 8
REMARK VINA RESULT:      -8.5      0.724      1.692
REMARK  Name = 
REMARK  7 active torsions:
REMARK  status: ('A' for Active; 'I' for Inactive)
REMARK    1  A    between atoms: C_1  and  C_2
REMARK    2  A    between atoms: C_2  and  C_3
REMARK    3  A    between atoms: C_9  and  C_10
REMARK    4  A    between atoms: C_10  and  N_11
REMARK    5  A    between atoms: N_16  and  C_17
REMARK    6  A    between atoms: N_23  and  C_24
REMARK    7  A    between atoms: C_24  and  C_25
REMARK                            x       y       z     vdW  Elec       q    Type
REMARK                         _______ _______ _______ _____ _____    ______ ____
ROOT
ATOM      1  N   UNL     1       0.502  10.553  19.603  0.00  0.00    +0.000 NA
ATOM      2  C   UNL     1       0.740  10.311  18.169  0.00  0.00    +0.000 C 
ATOM      3  C   UNL     1       1.942   9.407  17.826  0.00  0.00    +0.000 C 
ATOM      4  N   UNL     1       1.867   8.088  18.491  0.00  0.00    +0.000 N 
ATOM      5  C   UNL     1       2.835   7.145  18.115  0.00  0.00    +0.000 C 
ATOM      6  N   UNL     1       4.016   7.550  17.731  0.00  0.00    +0.000 NA
ATOM      7  N   UNL     1       2.260   5.889  18.188  0.00  0.00    +0.000 N 
ATOM      8  C   UNL     1       1.574   8.192  19.944  0.00  0.00    +0.000 C 
ATOM      9  C   UNL     1       0.485   9.245  20.294  0.00  0.00    +0.000 C 
ATOM     10  H   UNL     1       1.398   5.888  17.654  0.00  0.00    +0.000 HD
ENDROOT
BRANCH   6  11
ATOM     11  C   UNL     1       4.993   6.713  17.164  0.00  0.00    +0.000 A 
ATOM     12  C   UNL     1       5.005   6.442  15.794  0.00  0.00    +0.000 A 
ATOM     13  C   UNL     1       5.829   5.449  15.259  0.00  0.00    +0.000 A 
ATOM     14  C   UNL     1       6.785   4.839  16.062  0.00  0.00    +0.000 A 
ATOM     15  C   UNL     1       6.926   5.249  17.387  0.00  0.00    +0.000 A 
ATOM     16  C   UNL     1       6.023   6.169  17.941  0.00  0.00    +0.000 A 
ENDBRANCH   6  11
BRANCH   1  17
ATOM     17  C   UNL     1       1.401  11.559  20.202  0.00  0.00    +0.000 C 
BRANCH  17  26
ATOM     18  C   UNL     1       1.198  18.001  17.288  0.00  0.00    +0.000 C 
ATOM     19  C   UNL     1       1.272  17.554  18.734  0.00  0.00    +0.000 C 
ATOM     20  C   UNL     1       1.627  18.631  19.740  0.00  0.00    +0.000 C 
ATOM     21  N   UNL     1      -0.010  16.921  19.106  0.00  0.00    +0.000 N 
ATOM     22  O   UNL     1      -1.119  17.544  19.151  0.00  0.00    +0.000 OA
ATOM     23  C   UNL     1       0.132  15.641  19.353  0.00  0.00    +0.000 A 
ATOM     24  C   UNL     1      -0.841  14.627  19.709  0.00  0.00    +0.000 A 
ATOM     25  C   UNL     1      -0.338  13.400  19.905  0.00  0.00    +0.000 A 
ATOM     26  C   UNL     1       1.073  13.019  19.815  0.00  0.00    +0.000 A 
ATOM     27  C   UNL     1       2.016  13.927  19.480  0.00  0.00    +0.000 A 
ATOM     28  C   UNL     1       1.561  15.301  19.219  0.00  0.00    +0.000 A 
ATOM     29  N   UNL     1       2.200  16.395  18.864  0.00  0.00    +0.000 N 
ATOM     30  O   UNL     1       3.448  16.468  18.670  0.00  0.00    +0.000 OA
ENDBRANCH  17  26
ENDBRANCH   1  17
BRANCH   7  31
ATOM     31  C   UNL     1       2.978   4.636  18.084  0.00  0.00    +0.000 C 
BRANCH  31  32
ATOM     32  C   UNL     1       2.934   3.709  19.277  0.00  0.00    +0.000 A 
ATOM     33  C   UNL     1       4.010   2.955  19.751  0.00  0.00    +0.000 A 
ATOM     34  C   UNL     1       3.875   2.205  20.924  0.00  0.00    +0.000 A 
ATOM     35  C   UNL     1       2.674   2.204  21.636  0.00  0.00    +0.000 A 
ATOM     36  C   UNL     1       1.598   2.961  21.184  0.00  0.00    +0.000 A 
ATOM     37  C   UNL     1       1.731   3.706  20.016  0.00  0.00    +0.000 A 
ENDBRANCH  31  32
ENDBRANCH   7  31
TORSDOF 5
ENDMDL
MODEL 9
REMARK VINA RESULT:      -8.4      3.205      5.374
REMARK  Name = 
REMARK  7 active torsions:
REMARK  status: ('A' for Active; 'I' for Inactive)
REMARK    1  A    between atoms: C_1  and  C_2
REMARK    2  A    between atoms: C_2  and  C_3
REMARK    3  A    between atoms: C_9  and  C_10
REMARK    4  A    between atoms: C_10  and  N_11
REMARK    5  A    between atoms: N_16  and  C_17
REMARK    6  A    between atoms: N_23  and  C_24
REMARK    7  A    between atoms: C_24  and  C_25
REMARK                            x       y       z     vdW  Elec       q    Type
REMARK                         _______ _______ _______ _____ _____    ______ ____
ROOT
ATOM      1  N   UNL     1       0.676  10.950  21.055  0.00  0.00    +0.000 NA
ATOM      2  C   UNL     1       1.473  10.103  21.958  0.00  0.00    +0.000 C 
ATOM      3  C   UNL     1       1.436   8.586  21.672  0.00  0.00    +0.000 C 
ATOM      4  N   UNL     1       1.842   8.261  20.287  0.00  0.00    +0.000 N 
ATOM      5  C   UNL     1       1.988   6.899  19.986  0.00  0.00    +0.000 C 
ATOM      6  N   UNL     1       1.259   6.017  20.613  0.00  0.00    +0.000 NA
ATOM      7  N   UNL     1       2.997   6.775  19.048  0.00  0.00    +0.000 N 
ATOM      8  C   UNL     1       1.144   9.093  19.273  0.00  0.00    +0.000 C 
ATOM      9  C   UNL     1       1.025  10.594  19.661  0.00  0.00    +0.000 C 
ATOM     10  H   UNL     1       3.825   7.254  19.386  0.00  0.00    +0.000 HD
ENDROOT
BRANCH   6  11
ATOM     11  C   UNL     1       1.448   4.626  20.523  0.00  0.00    +0.000 A 
ATOM     12  C   UNL     1       2.260   3.947  21.435  0.00  0.00    +0.000 A 
ATOM     13  C   UNL     1       2.627   2.616  21.227  0.00  0.00    +0.000 A 
ATOM     14  C   UNL     1       2.037   1.890  20.199  0.00  0.00    +0.000 A 
ATOM     15  C   UNL     1       1.066   2.497  19.405  0.00  0.00    +0.000 A 
ATOM     16  C   UNL     1       0.784   3.864  19.555  0.00  0.00    +0.000 A 
ENDBRANCH   6  11
BRANCH   1  17
ATOM     17  C   UNL     1      -0.771  10.952  21.349  0.00  0.00    +0.000 C 
BRANCH  17  26
ATOM     18  C   UNL     1      -2.031  17.422  23.915  0.00  0.00    +0.000 C 
ATOM     19  C   UNL     1      -1.550  16.150  24.586  0.00  0.00    +0.000 C 
ATOM     20  C   UNL     1      -0.983  16.315  25.981  0.00  0.00    +0.000 C 
ATOM     21  N   UNL     1      -2.655  15.171  24.603  0.00  0.00    +0.000 N 
ATOM     22  O   UNL     1      -3.737  15.338  25.254  0.00  0.00    +0.000 OA
ATOM     23  C   UNL     1      -2.397  14.131  23.848  0.00  0.00    +0.000 A 
ATOM     24  C   UNL     1      -3.193  12.960  23.537  0.00  0.00    +0.000 A 
ATOM     25  C   UNL     1      -2.604  12.071  22.724  0.00  0.00    +0.000 A 
ATOM     26  C   UNL     1      -1.254  12.172  22.165  0.00  0.00    +0.000 A 
ATOM     27  C   UNL     1      -0.477  13.247  22.422  0.00  0.00    +0.000 A 
ATOM     28  C   UNL     1      -1.044  14.295  23.284  0.00  0.00    +0.000 A 
ATOM     29  N   UNL     1      -0.572  15.448  23.708  0.00  0.00    +0.000 N 
ATOM     30  O   UNL     1       0.573  15.904  23.422  0.00  0.00    +0.000 OA
ENDBRANCH  17  26
ENDBRANCH   1  17
BRANCH   7  31
ATOM     31  C   UNL     1       3.316   5.564  18.320  0.00  0.00    +0.000 C 
BRANCH  31  32
ATOM     32  C   UNL     1       4.769   5.320  17.980  0.00  0.00    +0.000 A 
ATOM     33  C   UNL     1       5.845   5.541  18.842  0.00  0.00    +0.000 A 
ATOM     34  C   UNL     1       7.140   5.187  18.448  0.00  0.00    +0.000 A 
ATOM     35  C   UNL     1       7.372   4.605  17.200  0.00  0.00    +0.000 A 
ATOM     36  C   UNL     1       6.307   4.366  16.337  0.00  0.00    +0.000 A 
ATOM     37  C   UNL     1       5.019   4.720  16.727  0.00  0.00    +0.000 A 
ENDBRANCH  31  32
ENDBRANCH   7  31
TORSDOF 5
ENDMDL
