MODEL 1
REMARK VINA RESULT:      -5.8      0.000      0.000
REMARK  Name = 
REMARK  23 active torsions:
REMARK  status: ('A' for Active; 'I' for Inactive)
REMARK    1  A    between atoms: C_1  and  C_2
REMARK    2  A    between atoms: C_2  and  C_3
REMARK    3  A    between atoms: C_3  and  C_4
REMARK    4  A    between atoms: C_4  and  C_5
REMARK    5  A    between atoms: C_5  and  C_6
REMARK    6  A    between atoms: C_6  and  C_7
REMARK    7  A    between atoms: C_7  and  C_8
REMARK    8  A    between atoms: C_8  and  C_9
REMARK    9  A    between atoms: C_10  and  C_11
REMARK   10  A    between atoms: C_11  and  C_12
REMARK   11  A    between atoms: C_12  and  C_13
REMARK   12  A    between atoms: C_13  and  C_14
REMARK   13  A    between atoms: C_14  and  C_15
REMARK   14  A    between atoms: C_15  and  C_16
REMARK   15  A    between atoms: C_16  and  C_17
REMARK   16  A    between atoms: C_17  and  C_18
REMARK   17  A    between atoms: N_20  and  CA_21
REMARK   18  A    between atoms: CA_21  and  C_22
REMARK   19  A    between atoms: CA_21  and  CB_25
REMARK   20  A    between atoms: C_22  and  OXT_24
REMARK   21  A    between atoms: CB_25  and  CG2_26
REMARK   22  A    between atoms: CB_25  and  CG1_27
REMARK   23  A    between atoms: CG1_27  and  CD1_28
REMARK                            x       y       z     vdW  Elec       q    Type
REMARK                         _______ _______ _______ _____ _____    ______ ____
ROOT
ATOM      1  C   UNK A   0       3.323   7.034  18.178  0.00  0.00    +0.000 C 
ENDROOT
BRANCH   1   2
ATOM      2  C   UNK A   0       1.962   7.714  18.108  0.00  0.00    +0.000 C 
BRANCH   2   3
ATOM      3  C   UNK A   0       2.102   9.206  17.873  0.00  0.00    +0.000 C 
BRANCH   3   4
ATOM      4  C   UNK A   0       1.168  10.004  18.768  0.00  0.00    +0.000 C 
ATOM      5  O   UNK A   0       0.683   9.573  19.809  0.00  0.00    +0.000 OA
ATOM      6  N   ILE A   1       0.942  11.273  18.247  0.00  0.00    +0.000 N 
ATOM      7  H   ILE A   1       1.489  11.538  17.435  0.00  0.00    +0.000 HD
BRANCH   6   8
ATOM      8  CA  ILE A   1       0.125  12.330  18.919  0.00  0.00    +0.000 C 
BRANCH   8   9
ATOM      9  CB  ILE A   1       0.736  13.728  18.651  0.00  0.00    +0.000 C 
ATOM     10  CG2 ILE A   1      -0.198  14.856  19.126  0.00  0.00    +0.000 C 
BRANCH   9  11
ATOM     11  CG1 ILE A   1       2.133  13.938  19.280  0.00  0.00    +0.000 C 
ATOM     12  CD1 ILE A   1       3.259  14.084  18.267  0.00  0.00    +0.000 C 
ENDBRANCH   9  11
ENDBRANCH   8   9
BRANCH   8  13
ATOM     13  C   ILE A   1      -1.343  12.248  18.434  0.00  0.00    +0.000 C 
ATOM     14  O   ILE A   1      -2.321  12.079  19.138  0.00  0.00    +0.000 OA
BRANCH  13  15
ATOM     15  OXT ILE A   1      -1.432  12.409  17.086  0.00  0.00    +0.000 OA
ATOM     16  HXT ILE A   1      -2.358  12.764  16.931  0.00  0.00    +0.000 HD
ENDBRANCH  13  15
ENDBRANCH   8  13
ENDBRANCH   6   8
ENDBRANCH   3   4
ENDBRANCH   2   3
ENDBRANCH   1   2
BRANCH   1  17
ATOM     17  C   UNK A   0       3.394   6.195  19.442  0.00  0.00    +0.000 C 
BRANCH  17  18
ATOM     18  C   UNK A   0       2.076   6.210  20.208  0.00  0.00    +0.000 C 
BRANCH  18  19
ATOM     19  C   UNK A   0       1.587   4.789  20.480  0.00  0.00    +0.000 C 
BRANCH  19  20
ATOM     20  C   UNK A   0       2.667   3.730  20.264  0.00  0.00    +0.000 C 
BRANCH  20  22
ATOM     21  C   UNK A   0       2.161   2.422  18.180  0.00  0.00    +0.000 C 
ATOM     22  C   UNK A   0       2.139   2.532  19.514  0.00  0.00    +0.000 C 
BRANCH  21  23
ATOM     23  C   UNK A   0       2.760   3.482  17.326  0.00  0.00    +0.000 C 
BRANCH  23  24
ATOM     24  C   UNK A   0       4.265   3.369  17.254  0.00  0.00    +0.000 C 
BRANCH  24  25
ATOM     25  C   UNK A   0       4.739   3.964  15.937  0.00  0.00    +0.000 C 
BRANCH  25  26
ATOM     26  C   UNK A   0       6.157   4.472  16.087  0.00  0.00    +0.000 C 
BRANCH  26  27
ATOM     27  C   UNK A   0       6.170   5.987  16.148  0.00  0.00    +0.000 C 
BRANCH  27  28
ATOM     28  C   UNK A   0       7.093   6.451  17.268  0.00  0.00    +0.000 C 
BRANCH  28  30
ATOM     29  C   UNK A   0       7.759   5.708  19.563  0.00  0.00    +0.000 C 
ATOM     30  C   UNK A   0       7.542   5.272  18.125  0.00  0.00    +0.000 C 
ENDBRANCH  28  30
ENDBRANCH  27  28
ENDBRANCH  26  27
ENDBRANCH  25  26
ENDBRANCH  24  25
ENDBRANCH  23  24
ENDBRANCH  21  23
ENDBRANCH  20  22
ENDBRANCH  19  20
ENDBRANCH  18  19
ENDBRANCH  17  18
ENDBRANCH   1  17
TORSDOF 20
ENDMDL
MODEL 2
REMARK VINA RESULT:      -5.7      3.673      8.554
REMARK  Name = 
REMARK  23 active torsions:
REMARK  status: ('A' for Active; 'I' for Inactive)
REMARK    1  A    between atoms: C_1  and  C_2
REMARK    2  A    between atoms: C_2  and  C_3
REMARK    3  A    between atoms: C_3  and  C_4
REMARK    4  A    between atoms: C_4  and  C_5
REMARK    5  A    between atoms: C_5  and  C_6
REMARK    6  A    between atoms: C_6  and  C_7
REMARK    7  A    between atoms: C_7  and  C_8
REMARK    8  A    between atoms: C_8  and  C_9
REMARK    9  A    between atoms: C_10  and  C_11
REMARK   10  A    between atoms: C_11  and  C_12
REMARK   11  A    between atoms: C_12  and  C_13
REMARK   12  A    between atoms: C_13  and  C_14
REMARK   13  A    between atoms: C_14  and  C_15
REMARK   14  A    between atoms: C_15  and  C_16
REMARK   15  A    between atoms: C_16  and  C_17
REMARK   16  A    between atoms: C_17  and  C_18
REMARK   17  A    between atoms: N_20  and  CA_21
REMARK   18  A    between atoms: CA_21  and  C_22
REMARK   19  A    between atoms: CA_21  and  CB_25
REMARK   20  A    between atoms: C_22  and  OXT_24
REMARK   21  A    between atoms: CB_25  and  CG2_26
REMARK   22  A    between atoms: CB_25  and  CG1_27
REMARK   23  A    between atoms: CG1_27  and  CD1_28
REMARK                            x       y       z     vdW  Elec       q    Type
REMARK                         _______ _______ _______ _____ _____    ______ ____
ROOT
ATOM      1  C   UNK A   0       2.171   2.242  20.077  0.00  0.00    +0.000 C 
ENDROOT
BRANCH   1   2
ATOM      2  C   UNK A   0       2.218   1.956  18.581  0.00  0.00    +0.000 C 
BRANCH   2   3
ATOM      3  C   UNK A   0       3.624   2.114  18.033  0.00  0.00    +0.000 C 
BRANCH   3   4
ATOM      4  C   UNK A   0       3.784   3.419  17.271  0.00  0.00    +0.000 C 
ATOM      5  O   UNK A   0       2.845   4.092  16.861  0.00  0.00    +0.000 OA
ATOM      6  N   ILE A   1       5.127   3.737  17.103  0.00  0.00    +0.000 N 
ATOM      7  H   ILE A   1       5.800   3.149  17.584  0.00  0.00    +0.000 HD
BRANCH   6   8
ATOM      8  CA  ILE A   1       5.625   4.990  16.456  0.00  0.00    +0.000 C 
BRANCH   8   9
ATOM      9  CB  ILE A   1       5.648   6.149  17.485  0.00  0.00    +0.000 C 
ATOM     10  CG2 ILE A   1       4.438   7.084  17.312  0.00  0.00    +0.000 C 
BRANCH   9  11
ATOM     11  CG1 ILE A   1       5.715   5.683  18.958  0.00  0.00    +0.000 C 
ATOM     12  CD1 ILE A   1       7.126   5.588  19.519  0.00  0.00    +0.000 C 
ENDBRANCH   9  11
ENDBRANCH   8   9
BRANCH   8  13
ATOM     13  C   ILE A   1       7.026   4.745  15.844  0.00  0.00    +0.000 C 
ATOM     14  O   ILE A   1       7.412   5.142  14.760  0.00  0.00    +0.000 OA
BRANCH  13  15
ATOM     15  OXT ILE A   1       7.818   4.025  16.683  0.00  0.00    +0.000 OA
ATOM     16  HXT ILE A   1       8.494   3.587  16.085  0.00  0.00    +0.000 HD
ENDBRANCH  13  15
ENDBRANCH   8  13
ENDBRANCH   6   8
ENDBRANCH   3   4
ENDBRANCH   2   3
ENDBRANCH   1   2
BRANCH   1  17
ATOM     17  C   UNK A   0       0.952   3.095  20.381  0.00  0.00    +0.000 C 
BRANCH  17  18
ATOM     18  C   UNK A   0       1.080   4.497  19.796  0.00  0.00    +0.000 C 
BRANCH  18  19
ATOM     19  C   UNK A   0       2.103   5.321  20.577  0.00  0.00    +0.000 C 
BRANCH  19  20
ATOM     20  C   UNK A   0       2.261   6.744  20.043  0.00  0.00    +0.000 C 
BRANCH  20  22
ATOM     21  C   UNK A   0       1.050   8.932  20.283  0.00  0.00    +0.000 C 
ATOM     22  C   UNK A   0       1.359   7.718  20.758  0.00  0.00    +0.000 C 
BRANCH  21  23
ATOM     23  C   UNK A   0       1.557   9.399  18.965  0.00  0.00    +0.000 C 
BRANCH  23  24
ATOM     24  C   UNK A   0       0.432   9.734  18.013  0.00  0.00    +0.000 C 
BRANCH  24  25
ATOM     25  C   UNK A   0      -0.757  10.238  18.816  0.00  0.00    +0.000 C 
BRANCH  25  26
ATOM     26  C   UNK A   0      -0.638  11.732  19.022  0.00  0.00    +0.000 C 
BRANCH  26  27
ATOM     27  C   UNK A   0      -1.860  12.264  19.745  0.00  0.00    +0.000 C 
BRANCH  27  28
ATOM     28  C   UNK A   0      -1.446  12.880  21.075  0.00  0.00    +0.000 C 
BRANCH  28  30
ATOM     29  C   UNK A   0      -1.359  11.323  23.031  0.00  0.00    +0.000 C 
ATOM     30  C   UNK A   0      -0.576  11.915  21.874  0.00  0.00    +0.000 C 
ENDBRANCH  28  30
ENDBRANCH  27  28
ENDBRANCH  26  27
ENDBRANCH  25  26
ENDBRANCH  24  25
ENDBRANCH  23  24
ENDBRANCH  21  23
ENDBRANCH  20  22
ENDBRANCH  19  20
ENDBRANCH  18  19
ENDBRANCH  17  18
ENDBRANCH   1  17
TORSDOF 20
ENDMDL
MODEL 3
REMARK VINA RESULT:      -5.7      3.857      8.744
REMARK  Name = 
REMARK  23 active torsions:
REMARK  status: ('A' for Active; 'I' for Inactive)
REMARK    1  A    between atoms: C_1  and  C_2
REMARK    2  A    between atoms: C_2  and  C_3
REMARK    3  A    between atoms: C_3  and  C_4
REMARK    4  A    between atoms: C_4  and  C_5
REMARK    5  A    between atoms: C_5  and  C_6
REMARK    6  A    between atoms: C_6  and  C_7
REMARK    7  A    between atoms: C_7  and  C_8
REMARK    8  A    between atoms: C_8  and  C_9
REMARK    9  A    between atoms: C_10  and  C_11
REMARK   10  A    between atoms: C_11  and  C_12
REMARK   11  A    between atoms: C_12  and  C_13
REMARK   12  A    between atoms: C_13  and  C_14
REMARK   13  A    between atoms: C_14  and  C_15
REMARK   14  A    between atoms: C_15  and  C_16
REMARK   15  A    between atoms: C_16  and  C_17
REMARK   16  A    between atoms: C_17  and  C_18
REMARK   17  A    between atoms: N_20  and  CA_21
REMARK   18  A    between atoms: CA_21  and  C_22
REMARK   19  A    between atoms: CA_21  and  CB_25
REMARK   20  A    between atoms: C_22  and  OXT_24
REMARK   21  A    between atoms: CB_25  and  CG2_26
REMARK   22  A    between atoms: CB_25  and  CG1_27
REMARK   23  A    between atoms: CG1_27  and  CD1_28
REMARK                            x       y       z     vdW  Elec       q    Type
REMARK                         _______ _______ _______ _____ _____    ______ ____
ROOT
ATOM      1  C   UNK A   0       0.963   3.483  20.530  0.00  0.00    +0.000 C 
ENDROOT
BRANCH   1   2
ATOM      2  C   UNK A   0       1.492   2.327  19.690  0.00  0.00    +0.000 C 
BRANCH   2   3
ATOM      3  C   UNK A   0       1.661   2.733  18.238  0.00  0.00    +0.000 C 
BRANCH   3   4
ATOM      4  C   UNK A   0       3.119   2.690  17.810  0.00  0.00    +0.000 C 
ATOM      5  O   UNK A   0       3.754   1.653  17.648  0.00  0.00    +0.000 OA
ATOM      6  N   ILE A   1       3.625   3.972  17.633  0.00  0.00    +0.000 N 
ATOM      7  H   ILE A   1       2.963   4.738  17.697  0.00  0.00    +0.000 HD
BRANCH   6   8
ATOM      8  CA  ILE A   1       5.007   4.276  17.148  0.00  0.00    +0.000 C 
BRANCH   8   9
ATOM      9  CB  ILE A   1       4.979   5.496  16.192  0.00  0.00    +0.000 C 
ATOM     10  CG2 ILE A   1       5.509   6.767  16.879  0.00  0.00    +0.000 C 
BRANCH   9  11
ATOM     11  CG1 ILE A   1       5.756   5.280  14.872  0.00  0.00    +0.000 C 
ATOM     12  CD1 ILE A   1       6.389   3.903  14.739  0.00  0.00    +0.000 C 
ENDBRANCH   9  11
ENDBRANCH   8   9
BRANCH   8  13
ATOM     13  C   ILE A   1       5.946   4.520  18.354  0.00  0.00    +0.000 C 
ATOM     14  O   ILE A   1       7.153   4.370  18.362  0.00  0.00    +0.000 OA
BRANCH  13  15
ATOM     15  OXT ILE A   1       5.256   4.955  19.443  0.00  0.00    +0.000 OA
ATOM     16  HXT ILE A   1       5.328   5.956  19.409  0.00  0.00    +0.000 HD
ENDBRANCH  13  15
ENDBRANCH   8  13
ENDBRANCH   6   8
ENDBRANCH   3   4
ENDBRANCH   2   3
ENDBRANCH   1   2
BRANCH   1  17
ATOM     17  C   UNK A   0       2.117   4.399  20.896  0.00  0.00    +0.000 C 
BRANCH  17  18
ATOM     18  C   UNK A   0       1.800   5.860  20.596  0.00  0.00    +0.000 C 
BRANCH  18  19
ATOM     19  C   UNK A   0       2.072   6.186  19.129  0.00  0.00    +0.000 C 
BRANCH  19  20
ATOM     20  C   UNK A   0       2.389   7.662  18.890  0.00  0.00    +0.000 C 
BRANCH  20  22
ATOM     21  C   UNK A   0       0.862   9.526  19.600  0.00  0.00    +0.000 C 
ATOM     22  C   UNK A   0       1.727   8.553  19.912  0.00  0.00    +0.000 C 
BRANCH  21  23
ATOM     23  C   UNK A   0       0.451   9.775  18.192  0.00  0.00    +0.000 C 
BRANCH  23  24
ATOM     24  C   UNK A   0      -0.823  10.582  18.107  0.00  0.00    +0.000 C 
BRANCH  24  25
ATOM     25  C   UNK A   0      -1.325  10.855  19.517  0.00  0.00    +0.000 C 
BRANCH  25  26
ATOM     26  C   UNK A   0      -1.941  12.236  19.581  0.00  0.00    +0.000 C 
BRANCH  26  27
ATOM     27  C   UNK A   0      -1.548  12.929  20.870  0.00  0.00    +0.000 C 
BRANCH  27  28
ATOM     28  C   UNK A   0      -0.553  12.068  21.638  0.00  0.00    +0.000 C 
BRANCH  28  30
ATOM     29  C   UNK A   0      -0.618  10.108  23.192  0.00  0.00    +0.000 C 
ATOM     30  C   UNK A   0      -1.199  11.477  22.887  0.00  0.00    +0.000 C 
ENDBRANCH  28  30
ENDBRANCH  27  28
ENDBRANCH  26  27
ENDBRANCH  25  26
ENDBRANCH  24  25
ENDBRANCH  23  24
ENDBRANCH  21  23
ENDBRANCH  20  22
ENDBRANCH  19  20
ENDBRANCH  18  19
ENDBRANCH  17  18
ENDBRANCH   1  17
TORSDOF 20
ENDMDL
MODEL 4
REMARK VINA RESULT:      -5.6      2.081      3.093
REMARK  Name = 
REMARK  23 active torsions:
REMARK  status: ('A' for Active; 'I' for Inactive)
REMARK    1  A    between atoms: C_1  and  C_2
REMARK    2  A    between atoms: C_2  and  C_3
REMARK    3  A    between atoms: C_3  and  C_4
REMARK    4  A    between atoms: C_4  and  C_5
REMARK    5  A    between atoms: C_5  and  C_6
REMARK    6  A    between atoms: C_6  and  C_7
REMARK    7  A    between atoms: C_7  and  C_8
REMARK    8  A    between atoms: C_8  and  C_9
REMARK    9  A    between atoms: C_10  and  C_11
REMARK   10  A    between atoms: C_11  and  C_12
REMARK   11  A    between atoms: C_12  and  C_13
REMARK   12  A    between atoms: C_13  and  C_14
REMARK   13  A    between atoms: C_14  and  C_15
REMARK   14  A    between atoms: C_15  and  C_16
REMARK   15  A    between atoms: C_16  and  C_17
REMARK   16  A    between atoms: C_17  and  C_18
REMARK   17  A    between atoms: N_20  and  CA_21
REMARK   18  A    between atoms: CA_21  and  C_22
REMARK   19  A    between atoms: CA_21  and  CB_25
REMARK   20  A    between atoms: C_22  and  OXT_24
REMARK   21  A    between atoms: CB_25  and  CG2_26
REMARK   22  A    between atoms: CB_25  and  CG1_27
REMARK   23  A    between atoms: CG1_27  and  CD1_28
REMARK                            x       y       z     vdW  Elec       q    Type
REMARK                         _______ _______ _______ _____ _____    ______ ____
ROOT
ATOM      1  C   UNK A   0       2.105   7.578  18.177  0.00  0.00    +0.000 C 
ENDROOT
BRANCH   1   2
ATOM      2  C   UNK A   0       2.069   9.052  17.795  0.00  0.00    +0.000 C 
BRANCH   2   3
ATOM      3  C   UNK A   0       0.755   9.694  18.196  0.00  0.00    +0.000 C 
BRANCH   3   4
ATOM      4  C   UNK A   0       0.910  10.558  19.436  0.00  0.00    +0.000 C 
ATOM      5  O   UNK A   0       1.592  11.577  19.480  0.00  0.00    +0.000 OA
ATOM      6  N   ILE A   1       0.183  10.038  20.501  0.00  0.00    +0.000 N 
ATOM      7  H   ILE A   1      -0.422   9.249  20.299  0.00  0.00    +0.000 HD
BRANCH   6   8
ATOM      8  CA  ILE A   1       0.068  10.686  21.844  0.00  0.00    +0.000 C 
BRANCH   8   9
ATOM      9  CB  ILE A   1      -1.111  11.692  21.851  0.00  0.00    +0.000 C 
ATOM     10  CG2 ILE A   1      -0.688  13.057  22.424  0.00  0.00    +0.000 C 
BRANCH   9  11
ATOM     11  CG1 ILE A   1      -1.762  11.912  20.465  0.00  0.00    +0.000 C 
ATOM     12  CD1 ILE A   1      -1.650  13.336  19.941  0.00  0.00    +0.000 C 
ENDBRANCH   9  11
ENDBRANCH   8   9
BRANCH   8  13
ATOM     13  C   ILE A   1      -0.101   9.604  22.938  0.00  0.00    +0.000 C 
ATOM     14  O   ILE A   1       0.348   9.653  24.068  0.00  0.00    +0.000 OA
BRANCH  13  15
ATOM     15  OXT ILE A   1      -0.850   8.559  22.493  0.00  0.00    +0.000 OA
ATOM     16  HXT ILE A   1      -0.180   7.864  22.219  0.00  0.00    +0.000 HD
ENDBRANCH  13  15
ENDBRANCH   8  13
ENDBRANCH   6   8
ENDBRANCH   3   4
ENDBRANCH   2   3
ENDBRANCH   1   2
BRANCH   1  17
ATOM     17  C   UNK A   0       2.255   7.459  19.683  0.00  0.00    +0.000 C 
BRANCH  17  18
ATOM     18  C   UNK A   0       2.725   6.070  20.099  0.00  0.00    +0.000 C 
BRANCH  18  19
ATOM     19  C   UNK A   0       1.551   5.218  20.579  0.00  0.00    +0.000 C 
BRANCH  19  20
ATOM     20  C   UNK A   0       1.974   3.834  21.072  0.00  0.00    +0.000 C 
BRANCH  20  22
ATOM     21  C   UNK A   0       1.463   2.141  19.289  0.00  0.00    +0.000 C 
ATOM     22  C   UNK A   0       1.149   2.737  20.446  0.00  0.00    +0.000 C 
BRANCH  21  23
ATOM     23  C   UNK A   0       2.698   2.500  18.542  0.00  0.00    +0.000 C 
BRANCH  23  24
ATOM     24  C   UNK A   0       2.402   3.377  17.347  0.00  0.00    +0.000 C 
BRANCH  24  25
ATOM     25  C   UNK A   0       3.718   3.856  16.753  0.00  0.00    +0.000 C 
BRANCH  25  26
ATOM     26  C   UNK A   0       4.643   4.309  17.861  0.00  0.00    +0.000 C 
BRANCH  26  27
ATOM     27  C   UNK A   0       5.210   5.680  17.547  0.00  0.00    +0.000 C 
BRANCH  27  28
ATOM     28  C   UNK A   0       6.731   5.640  17.619  0.00  0.00    +0.000 C 
BRANCH  28  30
ATOM     29  C   UNK A   0       7.259   4.855  15.303  0.00  0.00    +0.000 C 
ATOM     30  C   UNK A   0       7.285   4.495  16.777  0.00  0.00    +0.000 C 
ENDBRANCH  28  30
ENDBRANCH  27  28
ENDBRANCH  26  27
ENDBRANCH  25  26
ENDBRANCH  24  25
ENDBRANCH  23  24
ENDBRANCH  21  23
ENDBRANCH  20  22
ENDBRANCH  19  20
ENDBRANCH  18  19
ENDBRANCH  17  18
ENDBRANCH   1  17
TORSDOF 20
ENDMDL
MODEL 5
REMARK VINA RESULT:      -5.6      1.808      2.922
REMARK  Name = 
REMARK  23 active torsions:
REMARK  status: ('A' for Active; 'I' for Inactive)
REMARK    1  A    between atoms: C_1  and  C_2
REMARK    2  A    between atoms: C_2  and  C_3
REMARK    3  A    between atoms: C_3  and  C_4
REMARK    4  A    between atoms: C_4  and  C_5
REMARK    5  A    between atoms: C_5  and  C_6
REMARK    6  A    between atoms: C_6  and  C_7
REMARK    7  A    between atoms: C_7  and  C_8
REMARK    8  A    between atoms: C_8  and  C_9
REMARK    9  A    between atoms: C_10  and  C_11
REMARK   10  A    between atoms: C_11  and  C_12
REMARK   11  A    between atoms: C_12  and  C_13
REMARK   12  A    between atoms: C_13  and  C_14
REMARK   13  A    between atoms: C_14  and  C_15
REMARK   14  A    between atoms: C_15  and  C_16
REMARK   15  A    between atoms: C_16  and  C_17
REMARK   16  A    between atoms: C_17  and  C_18
REMARK   17  A    between atoms: N_20  and  CA_21
REMARK   18  A    between atoms: CA_21  and  C_22
REMARK   19  A    between atoms: CA_21  and  CB_25
REMARK   20  A    between atoms: C_22  and  OXT_24
REMARK   21  A    between atoms: CB_25  and  CG2_26
REMARK   22  A    between atoms: CB_25  and  CG1_27
REMARK   23  A    between atoms: CG1_27  and  CD1_28
REMARK                            x       y       z     vdW  Elec       q    Type
REMARK                         _______ _______ _______ _____ _____    ______ ____
ROOT
ATOM      1  C   UNK A   0       2.182   5.083  20.748  0.00  0.00    +0.000 C 
ENDROOT
BRANCH   1   2
ATOM      2  C   UNK A   0       2.554   6.191  19.770  0.00  0.00    +0.000 C 
BRANCH   2   3
ATOM      3  C   UNK A   0       1.939   7.516  20.178  0.00  0.00    +0.000 C 
BRANCH   3   4
ATOM      4  C   UNK A   0       1.888   8.492  19.014  0.00  0.00    +0.000 C 
ATOM      5  O   UNK A   0       2.525   8.351  17.974  0.00  0.00    +0.000 OA
ATOM      6  N   ILE A   1       1.034   9.553  19.289  0.00  0.00    +0.000 N 
ATOM      7  H   ILE A   1       0.489   9.492  20.143  0.00  0.00    +0.000 HD
BRANCH   6   8
ATOM      8  CA  ILE A   1       0.708  10.649  18.325  0.00  0.00    +0.000 C 
BRANCH   8   9
ATOM      9  CB  ILE A   1      -0.801  10.996  18.403  0.00  0.00    +0.000 C 
ATOM     10  CG2 ILE A   1      -1.039  12.513  18.298  0.00  0.00    +0.000 C 
BRANCH   9  11
ATOM     11  CG1 ILE A   1      -1.669  10.279  17.342  0.00  0.00    +0.000 C 
ATOM     12  CD1 ILE A   1      -2.966   9.700  17.886  0.00  0.00    +0.000 C 
ENDBRANCH   9  11
ENDBRANCH   8   9
BRANCH   8  13
ATOM     13  C   ILE A   1       1.592  11.886  18.616  0.00  0.00    +0.000 C 
ATOM     14  O   ILE A   1       1.730  12.427  19.697  0.00  0.00    +0.000 OA
BRANCH  13  15
ATOM     15  OXT ILE A   1       2.239  12.310  17.498  0.00  0.00    +0.000 OA
ATOM     16  HXT ILE A   1       3.177  11.969  17.600  0.00  0.00    +0.000 HD
ENDBRANCH  13  15
ENDBRANCH   8  13
ENDBRANCH   6   8
ENDBRANCH   3   4
ENDBRANCH   2   3
ENDBRANCH   1   2
BRANCH   1  17
ATOM     17  C   UNK A   0       0.933   4.380  20.249  0.00  0.00    +0.000 C 
BRANCH  17  18
ATOM     18  C   UNK A   0       1.214   2.932  19.859  0.00  0.00    +0.000 C 
BRANCH  18  19
ATOM     19  C   UNK A   0       2.362   2.359  20.687  0.00  0.00    +0.000 C 
BRANCH  19  20
ATOM     20  C   UNK A   0       3.689   2.323  19.929  0.00  0.00    +0.000 C 
BRANCH  20  22
ATOM     21  C   UNK A   0       3.551   2.168  17.426  0.00  0.00    +0.000 C 
ATOM     22  C   UNK A   0       3.574   1.573  18.625  0.00  0.00    +0.000 C 
BRANCH  21  23
ATOM     23  C   UNK A   0       3.683   3.644  17.291  0.00  0.00    +0.000 C 
BRANCH  23  24
ATOM     24  C   UNK A   0       5.076   4.052  16.869  0.00  0.00    +0.000 C 
BRANCH  24  25
ATOM     25  C   UNK A   0       4.984   4.832  15.567  0.00  0.00    +0.000 C 
BRANCH  25  26
ATOM     26  C   UNK A   0       5.361   6.277  15.810  0.00  0.00    +0.000 C 
BRANCH  26  27
ATOM     27  C   UNK A   0       5.623   6.513  17.284  0.00  0.00    +0.000 C 
BRANCH  27  28
ATOM     28  C   UNK A   0       6.962   7.216  17.466  0.00  0.00    +0.000 C 
BRANCH  28  30
ATOM     29  C   UNK A   0       7.056   5.624  19.394  0.00  0.00    +0.000 C 
ATOM     30  C   UNK A   0       7.874   6.417  18.391  0.00  0.00    +0.000 C 
ENDBRANCH  28  30
ENDBRANCH  27  28
ENDBRANCH  26  27
ENDBRANCH  25  26
ENDBRANCH  24  25
ENDBRANCH  23  24
ENDBRANCH  21  23
ENDBRANCH  20  22
ENDBRANCH  19  20
ENDBRANCH  18  19
ENDBRANCH  17  18
ENDBRANCH   1  17
TORSDOF 20
ENDMDL
MODEL 6
REMARK VINA RESULT:      -5.5      3.938      8.786
REMARK  Name = 
REMARK  23 active torsions:
REMARK  status: ('A' for Active; 'I' for Inactive)
REMARK    1  A    between atoms: C_1  and  C_2
REMARK    2  A    between atoms: C_2  and  C_3
REMARK    3  A    between atoms: C_3  and  C_4
REMARK    4  A    between atoms: C_4  and  C_5
REMARK    5  A    between atoms: C_5  and  C_6
REMARK    6  A    between atoms: C_6  and  C_7
REMARK    7  A    between atoms: C_7  and  C_8
REMARK    8  A    between atoms: C_8  and  C_9
REMARK    9  A    between atoms: C_10  and  C_11
REMARK   10  A    between atoms: C_11  and  C_12
REMARK   11  A    between atoms: C_12  and  C_13
REMARK   12  A    between atoms: C_13  and  C_14
REMARK   13  A    between atoms: C_14  and  C_15
REMARK   14  A    between atoms: C_15  and  C_16
REMARK   15  A    between atoms: C_16  and  C_17
REMARK   16  A    between atoms: C_17  and  C_18
REMARK   17  A    between atoms: N_20  and  CA_21
REMARK   18  A    between atoms: CA_21  and  C_22
REMARK   19  A    between atoms: CA_21  and  CB_25
REMARK   20  A    between atoms: C_22  and  OXT_24
REMARK   21  A    between atoms: CB_25  and  CG2_26
REMARK   22  A    between atoms: CB_25  and  CG1_27
REMARK   23  A    between atoms: CG1_27  and  CD1_28
REMARK                            x       y       z     vdW  Elec       q    Type
REMARK                         _______ _______ _______ _____ _____    ______ ____
ROOT
ATOM      1  C   UNK A   0       6.372   5.437  15.347  0.00  0.00    +0.000 C 
ENDROOT
BRANCH   1   2
ATOM      2  C   UNK A   0       6.769   4.276  16.249  0.00  0.00    +0.000 C 
BRANCH   2   3
ATOM      3  C   UNK A   0       7.455   4.767  17.510  0.00  0.00    +0.000 C 
BRANCH   3   4
ATOM      4  C   UNK A   0       6.553   4.633  18.726  0.00  0.00    +0.000 C 
ATOM      5  O   UNK A   0       6.745   5.216  19.788  0.00  0.00    +0.000 OA
ATOM      6  N   ILE A   1       5.497   3.765  18.471  0.00  0.00    +0.000 N 
ATOM      7  H   ILE A   1       5.398   3.433  17.518  0.00  0.00    +0.000 HD
BRANCH   6   8
ATOM      8  CA  ILE A   1       4.394   3.469  19.436  0.00  0.00    +0.000 C 
BRANCH   8   9
ATOM      9  CB  ILE A   1       3.027   3.859  18.819  0.00  0.00    +0.000 C 
ATOM     10  CG2 ILE A   1       2.960   3.508  17.322  0.00  0.00    +0.000 C 
BRANCH   9  11
ATOM     11  CG1 ILE A   1       1.809   3.230  19.535  0.00  0.00    +0.000 C 
ATOM     12  CD1 ILE A   1       1.162   4.132  20.575  0.00  0.00    +0.000 C 
ENDBRANCH   9  11
ENDBRANCH   8   9
BRANCH   8  13
ATOM     13  C   ILE A   1       4.432   1.974  19.836  0.00  0.00    +0.000 C 
ATOM     14  O   ILE A   1       4.102   1.037  19.132  0.00  0.00    +0.000 OA
BRANCH  13  15
ATOM     15  OXT ILE A   1       4.907   1.808  21.099  0.00  0.00    +0.000 OA
ATOM     16  HXT ILE A   1       5.835   2.189  21.075  0.00  0.00    +0.000 HD
ENDBRANCH  13  15
ENDBRANCH   8  13
ENDBRANCH   6   8
ENDBRANCH   3   4
ENDBRANCH   2   3
ENDBRANCH   1   2
BRANCH   1  17
ATOM     17  C   UNK A   0       5.971   6.621  16.209  0.00  0.00    +0.000 C 
BRANCH  17  18
ATOM     18  C   UNK A   0       4.459   6.711  16.384  0.00  0.00    +0.000 C 
BRANCH  18  19
ATOM     19  C   UNK A   0       4.100   7.178  17.793  0.00  0.00    +0.000 C 
BRANCH  19  20
ATOM     20  C   UNK A   0       2.604   7.425  17.982  0.00  0.00    +0.000 C 
BRANCH  20  22
ATOM     21  C   UNK A   0       1.514   8.513  19.966  0.00  0.00    +0.000 C 
ATOM     22  C   UNK A   0       2.226   7.509  19.440  0.00  0.00    +0.000 C 
BRANCH  21  23
ATOM     23  C   UNK A   0       0.998   9.623  19.120  0.00  0.00    +0.000 C 
BRANCH  23  24
ATOM     24  C   UNK A   0      -0.198  10.302  19.744  0.00  0.00    +0.000 C 
BRANCH  24  25
ATOM     25  C   UNK A   0       0.292  11.404  20.672  0.00  0.00    +0.000 C 
BRANCH  25  26
ATOM     26  C   UNK A   0       0.531  12.670  19.878  0.00  0.00    +0.000 C 
BRANCH  26  27
ATOM     27  C   UNK A   0       1.988  13.077  19.961  0.00  0.00    +0.000 C 
BRANCH  27  28
ATOM     28  C   UNK A   0       2.591  13.131  18.563  0.00  0.00    +0.000 C 
BRANCH  28  30
ATOM     29  C   UNK A   0       4.319  14.848  17.994  0.00  0.00    +0.000 C 
ATOM     30  C   UNK A   0       2.832  14.574  18.131  0.00  0.00    +0.000 C 
ENDBRANCH  28  30
ENDBRANCH  27  28
ENDBRANCH  26  27
ENDBRANCH  25  26
ENDBRANCH  24  25
ENDBRANCH  23  24
ENDBRANCH  21  23
ENDBRANCH  20  22
ENDBRANCH  19  20
ENDBRANCH  18  19
ENDBRANCH  17  18
ENDBRANCH   1  17
TORSDOF 20
ENDMDL
MODEL 7
REMARK VINA RESULT:      -5.4      3.388      8.715
REMARK  Name = 
REMARK  23 active torsions:
REMARK  status: ('A' for Active; 'I' for Inactive)
REMARK    1  A    between atoms: C_1  and  C_2
REMARK    2  A    between atoms: C_2  and  C_3
REMARK    3  A    between atoms: C_3  and  C_4
REMARK    4  A    between atoms: C_4  and  C_5
REMARK    5  A    between atoms: C_5  and  C_6
REMARK    6  A    between atoms: C_6  and  C_7
REMARK    7  A    between atoms: C_7  and  C_8
REMARK    8  A    between atoms: C_8  and  C_9
REMARK    9  A    between atoms: C_10  and  C_11
REMARK   10  A    between atoms: C_11  and  C_12
REMARK   11  A    between atoms: C_12  and  C_13
REMARK   12  A    between atoms: C_13  and  C_14
REMARK   13  A    between atoms: C_14  and  C_15
REMARK   14  A    between atoms: C_15  and  C_16
REMARK   15  A    between atoms: C_16  and  C_17
REMARK   16  A    between atoms: C_17  and  C_18
REMARK   17  A    between atoms: N_20  and  CA_21
REMARK   18  A    between atoms: CA_21  and  C_22
REMARK   19  A    between atoms: CA_21  and  CB_25
REMARK   20  A    between atoms: C_22  and  OXT_24
REMARK   21  A    between atoms: CB_25  and  CG2_26
REMARK   22  A    between atoms: CB_25  and  CG1_27
REMARK   23  A    between atoms: CG1_27  and  CD1_28
REMARK                            x       y       z     vdW  Elec       q    Type
REMARK                         _______ _______ _______ _____ _____    ______ ____
ROOT
ATOM      1  C   UNK A   0       1.303   3.717  18.834  0.00  0.00    +0.000 C 
ENDROOT
BRANCH   1   2
ATOM      2  C   UNK A   0       1.657   2.261  18.555  0.00  0.00    +0.000 C 
BRANCH   2   3
ATOM      3  C   UNK A   0       2.976   2.147  17.816  0.00  0.00    +0.000 C 
BRANCH   3   4
ATOM      4  C   UNK A   0       4.043   3.035  18.433  0.00  0.00    +0.000 C 
ATOM      5  O   UNK A   0       4.507   2.868  19.556  0.00  0.00    +0.000 OA
ATOM      6  N   ILE A   1       4.413   4.052  17.560  0.00  0.00    +0.000 N 
ATOM      7  H   ILE A   1       4.028   4.012  16.622  0.00  0.00    +0.000 HD
BRANCH   6   8
ATOM      8  CA  ILE A   1       5.488   5.055  17.836  0.00  0.00    +0.000 C 
BRANCH   8   9
ATOM      9  CB  ILE A   1       6.882   4.424  17.586  0.00  0.00    +0.000 C 
ATOM     10  CG2 ILE A   1       7.179   4.284  16.083  0.00  0.00    +0.000 C 
BRANCH   9  11
ATOM     11  CG1 ILE A   1       8.048   5.186  18.258  0.00  0.00    +0.000 C 
ATOM     12  CD1 ILE A   1       7.746   5.670  19.669  0.00  0.00    +0.000 C 
ENDBRANCH   9  11
ENDBRANCH   8   9
BRANCH   8  13
ATOM     13  C   ILE A   1       5.269   6.314  16.963  0.00  0.00    +0.000 C 
ATOM     14  O   ILE A   1       5.522   7.460  17.284  0.00  0.00    +0.000 OA
BRANCH  13  15
ATOM     15  OXT ILE A   1       4.760   5.993  15.743  0.00  0.00    +0.000 OA
ATOM     16  HXT ILE A   1       3.935   5.457  15.943  0.00  0.00    +0.000 HD
ENDBRANCH  13  15
ENDBRANCH   8  13
ENDBRANCH   6   8
ENDBRANCH   3   4
ENDBRANCH   2   3
ENDBRANCH   1   2
BRANCH   1  17
ATOM     17  C   UNK A   0       1.175   3.918  20.333  0.00  0.00    +0.000 C 
BRANCH  17  18
ATOM     18  C   UNK A   0       1.669   5.294  20.766  0.00  0.00    +0.000 C 
BRANCH  18  19
ATOM     19  C   UNK A   0       2.331   6.026  19.600  0.00  0.00    +0.000 C 
BRANCH  19  20
ATOM     20  C   UNK A   0       2.111   7.538  19.636  0.00  0.00    +0.000 C 
BRANCH  20  22
ATOM     21  C   UNK A   0       1.633   9.371  17.986  0.00  0.00    +0.000 C 
ATOM     22  C   UNK A   0       2.080   8.137  18.252  0.00  0.00    +0.000 C 
BRANCH  21  23
ATOM     23  C   UNK A   0       1.162  10.274  19.071  0.00  0.00    +0.000 C 
BRANCH  23  24
ATOM     24  C   UNK A   0       0.588  11.561  18.526  0.00  0.00    +0.000 C 
BRANCH  24  25
ATOM     25  C   UNK A   0      -0.834  11.721  19.042  0.00  0.00    +0.000 C 
BRANCH  25  26
ATOM     26  C   UNK A   0      -1.783  11.900  17.877  0.00  0.00    +0.000 C 
BRANCH  26  27
ATOM     27  C   UNK A   0      -3.172  11.424  18.251  0.00  0.00    +0.000 C 
BRANCH  27  28
ATOM     28  C   UNK A   0      -3.752  10.580  17.123  0.00  0.00    +0.000 C 
BRANCH  28  30
ATOM     29  C   UNK A   0      -2.983  10.126  14.786  0.00  0.00    +0.000 C 
ATOM     30  C   UNK A   0      -2.640   9.993  16.259  0.00  0.00    +0.000 C 
ENDBRANCH  28  30
ENDBRANCH  27  28
ENDBRANCH  26  27
ENDBRANCH  25  26
ENDBRANCH  24  25
ENDBRANCH  23  24
ENDBRANCH  21  23
ENDBRANCH  20  22
ENDBRANCH  19  20
ENDBRANCH  18  19
ENDBRANCH  17  18
ENDBRANCH   1  17
TORSDOF 20
ENDMDL
MODEL 8
REMARK VINA RESULT:      -5.4      1.368      1.994
REMARK  Name = 
REMARK  23 active torsions:
REMARK  status: ('A' for Active; 'I' for Inactive)
REMARK    1  A    between atoms: C_1  and  C_2
REMARK    2  A    between atoms: C_2  and  C_3
REMARK    3  A    between atoms: C_3  and  C_4
REMARK    4  A    between atoms: C_4  and  C_5
REMARK    5  A    between atoms: C_5  and  C_6
REMARK    6  A    between atoms: C_6  and  C_7
REMARK    7  A    between atoms: C_7  and  C_8
REMARK    8  A    between atoms: C_8  and  C_9
REMARK    9  A    between atoms: C_10  and  C_11
REMARK   10  A    between atoms: C_11  and  C_12
REMARK   11  A    between atoms: C_12  and  C_13
REMARK   12  A    between atoms: C_13  and  C_14
REMARK   13  A    between atoms: C_14  and  C_15
REMARK   14  A    between atoms: C_15  and  C_16
REMARK   15  A    between atoms: C_16  and  C_17
REMARK   16  A    between atoms: C_17  and  C_18
REMARK   17  A    between atoms: N_20  and  CA_21
REMARK   18  A    between atoms: CA_21  and  C_22
REMARK   19  A    between atoms: CA_21  and  CB_25
REMARK   20  A    between atoms: C_22  and  OXT_24
REMARK   21  A    between atoms: CB_25  and  CG2_26
REMARK   22  A    between atoms: CB_25  and  CG1_27
REMARK   23  A    between atoms: CG1_27  and  CD1_28
REMARK                            x       y       z     vdW  Elec       q    Type
REMARK                         _______ _______ _______ _____ _____    ______ ____
ROOT
ATOM      1  C   UNK A   0       1.915   7.021  18.682  0.00  0.00    +0.000 C 
ENDROOT
BRANCH   1   2
ATOM      2  C   UNK A   0       2.660   8.313  18.371  0.00  0.00    +0.000 C 
BRANCH   2   3
ATOM      3  C   UNK A   0       1.753   9.322  17.693  0.00  0.00    +0.000 C 
BRANCH   3   4
ATOM      4  C   UNK A   0       0.815   9.988  18.687  0.00  0.00    +0.000 C 
ATOM      5  O   UNK A   0       1.041  10.074  19.889  0.00  0.00    +0.000 OA
ATOM      6  N   ILE A   1      -0.321  10.476  18.051  0.00  0.00    +0.000 N 
ATOM      7  H   ILE A   1      -0.332  10.432  17.038  0.00  0.00    +0.000 HD
BRANCH   6   8
ATOM      8  CA  ILE A   1      -1.408  11.244  18.733  0.00  0.00    +0.000 C 
BRANCH   8   9
ATOM      9  CB  ILE A   1      -0.835  12.549  19.344  0.00  0.00    +0.000 C 
ATOM     10  CG2 ILE A   1      -0.302  13.497  18.255  0.00  0.00    +0.000 C 
BRANCH   9  11
ATOM     11  CG1 ILE A   1      -1.836  13.321  20.234  0.00  0.00    +0.000 C 
ATOM     12  CD1 ILE A   1      -2.354  12.528  21.424  0.00  0.00    +0.000 C 
ENDBRANCH   9  11
ENDBRANCH   8   9
BRANCH   8  13
ATOM     13  C   ILE A   1      -2.551  11.539  17.732  0.00  0.00    +0.000 C 
ATOM     14  O   ILE A   1      -3.719  11.731  18.017  0.00  0.00    +0.000 OA
BRANCH  13  15
ATOM     15  OXT ILE A   1      -2.094  11.580  16.452  0.00  0.00    +0.000 OA
ATOM     16  HXT ILE A   1      -2.142  10.630  16.132  0.00  0.00    +0.000 HD
ENDBRANCH  13  15
ENDBRANCH   8  13
ENDBRANCH   6   8
ENDBRANCH   3   4
ENDBRANCH   2   3
ENDBRANCH   1   2
BRANCH   1  17
ATOM     17  C   UNK A   0       1.926   6.792  20.183  0.00  0.00    +0.000 C 
BRANCH  17  18
ATOM     18  C   UNK A   0       2.514   5.432  20.546  0.00  0.00    +0.000 C 
BRANCH  18  19
ATOM     19  C   UNK A   0       1.470   4.328  20.389  0.00  0.00    +0.000 C 
BRANCH  19  20
ATOM     20  C   UNK A   0       2.081   2.928  20.327  0.00  0.00    +0.000 C 
BRANCH  20  22
ATOM     21  C   UNK A   0       1.828   2.451  17.874  0.00  0.00    +0.000 C 
ATOM     22  C   UNK A   0       1.565   2.139  19.150  0.00  0.00    +0.000 C 
BRANCH  21  23
ATOM     23  C   UNK A   0       2.702   3.602  17.523  0.00  0.00    +0.000 C 
BRANCH  23  24
ATOM     24  C   UNK A   0       4.148   3.190  17.374  0.00  0.00    +0.000 C 
BRANCH  24  25
ATOM     25  C   UNK A   0       5.035   4.326  17.861  0.00  0.00    +0.000 C 
BRANCH  25  26
ATOM     26  C   UNK A   0       4.803   5.555  17.010  0.00  0.00    +0.000 C 
BRANCH  26  27
ATOM     27  C   UNK A   0       6.126   6.166  16.594  0.00  0.00    +0.000 C 
BRANCH  27  28
ATOM     28  C   UNK A   0       7.242   5.640  17.487  0.00  0.00    +0.000 C 
BRANCH  28  30
ATOM     29  C   UNK A   0       7.765   8.081  17.644  0.00  0.00    +0.000 C 
ATOM     30  C   UNK A   0       7.798   6.750  18.373  0.00  0.00    +0.000 C 
ENDBRANCH  28  30
ENDBRANCH  27  28
ENDBRANCH  26  27
ENDBRANCH  25  26
ENDBRANCH  24  25
ENDBRANCH  23  24
ENDBRANCH  21  23
ENDBRANCH  20  22
ENDBRANCH  19  20
ENDBRANCH  18  19
ENDBRANCH  17  18
ENDBRANCH   1  17
TORSDOF 20
ENDMDL
MODEL 9
REMARK VINA RESULT:      -5.4      2.242      4.084
REMARK  Name = 
REMARK  23 active torsions:
REMARK  status: ('A' for Active; 'I' for Inactive)
REMARK    1  A    between atoms: C_1  and  C_2
REMARK    2  A    between atoms: C_2  and  C_3
REMARK    3  A    between atoms: C_3  and  C_4
REMARK    4  A    between atoms: C_4  and  C_5
REMARK    5  A    between atoms: C_5  and  C_6
REMARK    6  A    between atoms: C_6  and  C_7
REMARK    7  A    between atoms: C_7  and  C_8
REMARK    8  A    between atoms: C_8  and  C_9
REMARK    9  A    between atoms: C_10  and  C_11
REMARK   10  A    between atoms: C_11  and  C_12
REMARK   11  A    between atoms: C_12  and  C_13
REMARK   12  A    between atoms: C_13  and  C_14
REMARK   13  A    between atoms: C_14  and  C_15
REMARK   14  A    between atoms: C_15  and  C_16
REMARK   15  A    between atoms: C_16  and  C_17
REMARK   16  A    between atoms: C_17  and  C_18
REMARK   17  A    between atoms: N_20  and  CA_21
REMARK   18  A    between atoms: CA_21  and  C_22
REMARK   19  A    between atoms: CA_21  and  CB_25
REMARK   20  A    between atoms: C_22  and  OXT_24
REMARK   21  A    between atoms: CB_25  and  CG2_26
REMARK   22  A    between atoms: CB_25  and  CG1_27
REMARK   23  A    between atoms: CG1_27  and  CD1_28
REMARK                            x       y       z     vdW  Elec       q    Type
REMARK                         _______ _______ _______ _____ _____    ______ ____
ROOT
ATOM      1  C   UNK A   0       2.758   6.806  19.156  0.00  0.00    +0.000 C 
ENDROOT
BRANCH   1   2
ATOM      2  C   UNK A   0       1.779   7.727  18.439  0.00  0.00    +0.000 C 
BRANCH   2   3
ATOM      3  C   UNK A   0       2.449   9.017  18.008  0.00  0.00    +0.000 C 
BRANCH   3   4
ATOM      4  C   UNK A   0       1.486  10.192  18.053  0.00  0.00    +0.000 C 
ATOM      5  O   UNK A   0       1.826  11.348  18.285  0.00  0.00    +0.000 OA
ATOM      6  N   ILE A   1       0.183   9.778  17.800  0.00  0.00    +0.000 N 
ATOM      7  H   ILE A   1       0.056   8.812  17.519  0.00  0.00    +0.000 HD
BRANCH   6   8
ATOM      8  CA  ILE A   1      -0.993  10.698  17.704  0.00  0.00    +0.000 C 
BRANCH   8   9
ATOM      9  CB  ILE A   1      -2.134  10.022  16.902  0.00  0.00    +0.000 C 
ATOM     10  CG2 ILE A   1      -3.247   9.503  17.829  0.00  0.00    +0.000 C 
BRANCH   9  11
ATOM     11  CG1 ILE A   1      -2.766  10.927  15.819  0.00  0.00    +0.000 C 
ATOM     12  CD1 ILE A   1      -3.204  10.187  14.564  0.00  0.00    +0.000 C 
ENDBRANCH   9  11
ENDBRANCH   8   9
BRANCH   8  13
ATOM     13  C   ILE A   1      -1.459  11.106  19.122  0.00  0.00    +0.000 C 
ATOM     14  O   ILE A   1      -2.303  11.942  19.384  0.00  0.00    +0.000 OA
BRANCH  13  15
ATOM     15  OXT ILE A   1      -0.814  10.391  20.083  0.00  0.00    +0.000 OA
ATOM     16  HXT ILE A   1       0.045  10.102  19.654  0.00  0.00    +0.000 HD
ENDBRANCH  13  15
ENDBRANCH   8  13
ENDBRANCH   6   8
ENDBRANCH   3   4
ENDBRANCH   2   3
ENDBRANCH   1   2
BRANCH   1  17
ATOM     17  C   UNK A   0       1.979   5.801  19.984  0.00  0.00    +0.000 C 
BRANCH  17  18
ATOM     18  C   UNK A   0       2.731   4.484  20.135  0.00  0.00    +0.000 C 
BRANCH  18  19
ATOM     19  C   UNK A   0       2.999   3.850  18.771  0.00  0.00    +0.000 C 
BRANCH  19  20
ATOM     20  C   UNK A   0       4.487   3.668  18.475  0.00  0.00    +0.000 C 
BRANCH  20  22
ATOM     21  C   UNK A   0       6.301   5.345  18.928  0.00  0.00    +0.000 C 
ATOM     22  C   UNK A   0       5.349   4.517  19.376  0.00  0.00    +0.000 C 
BRANCH  21  23
ATOM     23  C   UNK A   0       6.554   5.520  17.473  0.00  0.00    +0.000 C 
BRANCH  23  24
ATOM     24  C   UNK A   0       5.420   6.243  16.784  0.00  0.00    +0.000 C 
BRANCH  24  25
ATOM     25  C   UNK A   0       5.519   5.997  15.286  0.00  0.00    +0.000 C 
BRANCH  25  26
ATOM     26  C   UNK A   0       5.086   4.582  14.972  0.00  0.00    +0.000 C 
BRANCH  26  27
ATOM     27  C   UNK A   0       6.252   3.783  14.422  0.00  0.00    +0.000 C 
BRANCH  27  28
ATOM     28  C   UNK A   0       6.385   4.026  12.924  0.00  0.00    +0.000 C 
BRANCH  28  30
ATOM     29  C   UNK A   0       4.426   3.368  11.514  0.00  0.00    +0.000 C 
ATOM     30  C   UNK A   0       5.731   2.898  12.132  0.00  0.00    +0.000 C 
ENDBRANCH  28  30
ENDBRANCH  27  28
ENDBRANCH  26  27
ENDBRANCH  25  26
ENDBRANCH  24  25
ENDBRANCH  23  24
ENDBRANCH  21  23
ENDBRANCH  20  22
ENDBRANCH  19  20
ENDBRANCH  18  19
ENDBRANCH  17  18
ENDBRANCH   1  17
TORSDOF 20
ENDMDL
