MODEL 1
REMARK VINA RESULT:      -8.0      0.000      0.000
REMARK  Name = 
REMARK  5 active torsions:
REMARK  status: ('A' for Active; 'I' for Inactive)
REMARK    1  A    between atoms: C_1  and  C_2
REMARK    2  A    between atoms: C_6  and  C_7
REMARK    3  A    between atoms: C_10  and  C_11
REMARK    4  A    between atoms: C_13  and  N_14
REMARK    5  A    between atoms: N_14  and  C_15
REMARK                            x       y       z     vdW  Elec       q    Type
REMARK                         _______ _______ _______ _____ _____    ______ ____
ROOT
ATOM      1  C   UNL     1       3.426   6.270  17.818  0.00  0.00    +0.000 A 
ATOM      2  C   UNL     1       4.599   6.717  17.222  0.00  0.00    +0.000 A 
ATOM      3  N   UNL     1       5.448   5.964  16.499  0.00  0.00    +0.000 NA
ATOM      4  C   UNL     1       5.098   4.682  16.349  0.00  0.00    +0.000 A 
ATOM      5  C   UNL     1       6.015   3.808  15.551  0.00  0.00    +0.000 C 
ATOM      6  N   UNL     1       3.980   4.130  16.857  0.00  0.00    +0.000 NA
ATOM      7  C   UNL     1       3.154   4.904  17.588  0.00  0.00    +0.000 A 
ENDROOT
BRANCH   1  13
ATOM      8  C   UNL     1       0.695  10.476  18.465  0.00  0.00    +0.000 C 
ATOM      9  C   UNL     1       1.289   9.220  19.029  0.00  0.00    +0.000 A 
ATOM     10  C   UNL     1       1.017   8.831  20.341  0.00  0.00    +0.000 A 
ATOM     11  C   UNL     1       1.550   7.647  20.836  0.00  0.00    +0.000 A 
ATOM     12  C   UNL     1       2.330   6.829  20.013  0.00  0.00    +0.000 A 
ATOM     13  C   UNL     1       2.638   7.189  18.683  0.00  0.00    +0.000 A 
ATOM     14  C   UNL     1       2.137   8.427  18.235  0.00  0.00    +0.000 A 
ENDBRANCH   1  13
BRANCH   7  15
ATOM     15  N   UNL     1       1.957   4.335  18.058  0.00  0.00    +0.000 N 
ATOM     16  H   UNL     1       1.367   5.065  18.446  0.00  0.00    +0.000 HD
BRANCH  15  17
ATOM     17  C   UNL     1       2.029   3.196  18.973  0.00  0.00    +0.000 C 
ATOM     18  C   UNL     1       3.243   3.323  19.895  0.00  0.00    +0.000 C 
ATOM     19  C   UNL     1       2.822   2.758  21.240  0.00  0.00    +0.000 C 
ATOM     20  C   UNL     1       1.308   2.871  21.309  0.00  0.00    +0.000 C 
ATOM     21  C   UNL     1       0.822   3.258  19.919  0.00  0.00    +0.000 C 
ENDBRANCH  15  17
ENDBRANCH   7  15
TORSDOF 3
ENDMDL
MODEL 2
REMARK VINA RESULT:      -7.8      1.725      5.833
REMARK  Name = 
REMARK  5 active torsions:
REMARK  status: ('A' for Active; 'I' for Inactive)
REMARK    1  A    between atoms: C_1  and  C_2
REMARK    2  A    between atoms: C_6  and  C_7
REMARK    3  A    between atoms: C_10  and  C_11
REMARK    4  A    between atoms: C_13  and  N_14
REMARK    5  A    between atoms: N_14  and  C_15
REMARK                            x       y       z     vdW  Elec       q    Type
REMARK                         _______ _______ _______ _____ _____    ______ ____
ROOT
ATOM      1  C   UNL     1       4.108   3.880  18.917  0.00  0.00    +0.000 A 
ATOM      2  C   UNL     1       3.817   2.547  19.180  0.00  0.00    +0.000 A 
ATOM      3  N   UNL     1       2.967   2.100  20.122  0.00  0.00    +0.000 NA
ATOM      4  C   UNL     1       2.355   3.046  20.843  0.00  0.00    +0.000 A 
ATOM      5  C   UNL     1       1.399   2.592  21.902  0.00  0.00    +0.000 C 
ATOM      6  N   UNL     1       2.534   4.370  20.675  0.00  0.00    +0.000 NA
ATOM      7  C   UNL     1       3.401   4.790  19.733  0.00  0.00    +0.000 A 
ENDROOT
BRANCH   1  13
ATOM      8  C   UNL     1       5.688   4.282  14.131  0.00  0.00    +0.000 C 
ATOM      9  C   UNL     1       5.949   4.452  15.598  0.00  0.00    +0.000 A 
ATOM     10  C   UNL     1       7.129   5.047  16.047  0.00  0.00    +0.000 A 
ATOM     11  C   UNL     1       7.339   5.226  17.409  0.00  0.00    +0.000 A 
ATOM     12  C   UNL     1       6.358   4.842  18.327  0.00  0.00    +0.000 A 
ATOM     13  C   UNL     1       5.154   4.228  17.918  0.00  0.00    +0.000 A 
ATOM     14  C   UNL     1       5.003   4.001  16.536  0.00  0.00    +0.000 A 
ENDBRANCH   1  13
BRANCH   7  15
ATOM     15  N   UNL     1       3.530   6.173  19.522  0.00  0.00    +0.000 N 
ATOM     16  H   UNL     1       3.832   6.619  20.383  0.00  0.00    +0.000 HD
BRANCH  15  17
ATOM     17  C   UNL     1       2.408   6.905  18.934  0.00  0.00    +0.000 C 
ATOM     18  C   UNL     1       1.838   7.910  19.936  0.00  0.00    +0.000 C 
ATOM     19  C   UNL     1       1.408   9.124  19.130  0.00  0.00    +0.000 C 
ATOM     20  C   UNL     1       2.228   9.113  17.851  0.00  0.00    +0.000 C 
ATOM     21  C   UNL     1       2.944   7.772  17.785  0.00  0.00    +0.000 C 
ENDBRANCH  15  17
ENDBRANCH   7  15
TORSDOF 3
ENDMDL
MODEL 3
REMARK VINA RESULT:      -7.8      0.678      1.529
REMARK  Name = 
REMARK  5 active torsions:
REMARK  status: ('A' for Active; 'I' for Inactive)
REMARK    1  A    between atoms: C_1  and  C_2
REMARK    2  A    between atoms: C_6  and  C_7
REMARK    3  A    between atoms: C_10  and  C_11
REMARK    4  A    between atoms: C_13  and  N_14
REMARK    5  A    between atoms: N_14  and  C_15
REMARK                            x       y       z     vdW  Elec       q    Type
REMARK                         _______ _______ _______ _____ _____    ______ ____
ROOT
ATOM      1  C   UNL     1       3.545   6.668  17.716  0.00  0.00    +0.000 A 
ATOM      2  C   UNL     1       4.735   7.156  17.191  0.00  0.00    +0.000 A 
ATOM      3  N   UNL     1       5.730   6.411  16.676  0.00  0.00    +0.000 NA
ATOM      4  C   UNL     1       5.519   5.090  16.672  0.00  0.00    +0.000 A 
ATOM      5  C   UNL     1       6.601   4.223  16.107  0.00  0.00    +0.000 C 
ATOM      6  N   UNL     1       4.404   4.493  17.131  0.00  0.00    +0.000 NA
ATOM      7  C   UNL     1       3.429   5.263  17.654  0.00  0.00    +0.000 A 
ENDROOT
BRANCH   1  13
ATOM      8  C   UNL     1       1.147   8.429  21.805  0.00  0.00    +0.000 C 
ATOM      9  C   UNL     1       1.406   8.494  20.329  0.00  0.00    +0.000 A 
ATOM     10  C   UNL     1       0.838   9.502  19.550  0.00  0.00    +0.000 A 
ATOM     11  C   UNL     1       1.115   9.566  18.190  0.00  0.00    +0.000 A 
ATOM     12  C   UNL     1       1.989   8.643  17.608  0.00  0.00    +0.000 A 
ATOM     13  C   UNL     1       2.579   7.602  18.355  0.00  0.00    +0.000 A 
ATOM     14  C   UNL     1       2.223   7.526  19.717  0.00  0.00    +0.000 A 
ENDBRANCH   1  13
BRANCH   7  15
ATOM     15  N   UNL     1       2.241   4.635  18.070  0.00  0.00    +0.000 N 
ATOM     16  H   UNL     1       1.584   5.338  18.392  0.00  0.00    +0.000 HD
BRANCH  15  17
ATOM     17  C   UNL     1       2.324   3.534  19.030  0.00  0.00    +0.000 C 
ATOM     18  C   UNL     1       3.050   3.983  20.300  0.00  0.00    +0.000 C 
ATOM     19  C   UNL     1       2.376   3.266  21.457  0.00  0.00    +0.000 C 
ATOM     20  C   UNL     1       0.970   2.919  20.997  0.00  0.00    +0.000 C 
ATOM     21  C   UNL     1       0.902   3.196  19.502  0.00  0.00    +0.000 C 
ENDBRANCH  15  17
ENDBRANCH   7  15
TORSDOF 3
ENDMDL
MODEL 4
REMARK VINA RESULT:      -7.7      1.746      5.623
REMARK  Name = 
REMARK  5 active torsions:
REMARK  status: ('A' for Active; 'I' for Inactive)
REMARK    1  A    between atoms: C_1  and  C_2
REMARK    2  A    between atoms: C_6  and  C_7
REMARK    3  A    between atoms: C_10  and  C_11
REMARK    4  A    between atoms: C_13  and  N_14
REMARK    5  A    between atoms: N_14  and  C_15
REMARK                            x       y       z     vdW  Elec       q    Type
REMARK                         _______ _______ _______ _____ _____    ______ ____
ROOT
ATOM      1  C   UNL     1       3.930   4.274  18.886  0.00  0.00    +0.000 A 
ATOM      2  C   UNL     1       3.724   2.906  19.014  0.00  0.00    +0.000 A 
ATOM      3  N   UNL     1       2.950   2.312  19.940  0.00  0.00    +0.000 NA
ATOM      4  C   UNL     1       2.330   3.137  20.790  0.00  0.00    +0.000 A 
ATOM      5  C   UNL     1       1.458   2.517  21.837  0.00  0.00    +0.000 C 
ATOM      6  N   UNL     1       2.429   4.480  20.762  0.00  0.00    +0.000 NA
ATOM      7  C   UNL     1       3.221   5.048  19.831  0.00  0.00    +0.000 A 
ENDROOT
BRANCH   1  13
ATOM      8  C   UNL     1       7.705   7.372  17.574  0.00  0.00    +0.000 C 
ATOM      9  C   UNL     1       6.751   6.271  17.217  0.00  0.00    +0.000 A 
ATOM     10  C   UNL     1       6.834   5.631  15.980  0.00  0.00    +0.000 A 
ATOM     11  C   UNL     1       5.963   4.591  15.678  0.00  0.00    +0.000 A 
ATOM     12  C   UNL     1       5.027   4.163  16.624  0.00  0.00    +0.000 A 
ATOM     13  C   UNL     1       4.901   4.788  17.883  0.00  0.00    +0.000 A 
ATOM     14  C   UNL     1       5.754   5.882  18.130  0.00  0.00    +0.000 A 
ENDBRANCH   1  13
BRANCH   7  15
ATOM     15  N   UNL     1       3.266   6.452  19.768  0.00  0.00    +0.000 N 
ATOM     16  H   UNL     1       3.446   6.825  20.695  0.00  0.00    +0.000 HD
BRANCH  15  17
ATOM     17  C   UNL     1       2.155   7.165  19.137  0.00  0.00    +0.000 C 
ATOM     18  C   UNL     1       1.607   8.243  20.074  0.00  0.00    +0.000 C 
ATOM     19  C   UNL     1       1.197   9.410  19.194  0.00  0.00    +0.000 C 
ATOM     20  C   UNL     1       2.012   9.303  17.916  0.00  0.00    +0.000 C 
ATOM     21  C   UNL     1       2.704   7.947  17.934  0.00  0.00    +0.000 C 
ENDBRANCH  15  17
ENDBRANCH   7  15
TORSDOF 3
ENDMDL
MODEL 5
REMARK VINA RESULT:      -7.7      1.847      5.075
REMARK  Name = 
REMARK  5 active torsions:
REMARK  status: ('A' for Active; 'I' for Inactive)
REMARK    1  A    between atoms: C_1  and  C_2
REMARK    2  A    between atoms: C_6  and  C_7
REMARK    3  A    between atoms: C_10  and  C_11
REMARK    4  A    between atoms: C_13  and  N_14
REMARK    5  A    between atoms: N_14  and  C_15
REMARK                            x       y       z     vdW  Elec       q    Type
REMARK                         _______ _______ _______ _____ _____    ______ ____
ROOT
ATOM      1  C   UNL     1       3.951   6.730  18.088  0.00  0.00    +0.000 A 
ATOM      2  C   UNL     1       3.557   7.914  17.478  0.00  0.00    +0.000 A 
ATOM      3  N   UNL     1       2.552   8.710  17.886  0.00  0.00    +0.000 NA
ATOM      4  C   UNL     1       1.905   8.306  18.985  0.00  0.00    +0.000 A 
ATOM      5  C   UNL     1       0.781   9.164  19.475  0.00  0.00    +0.000 C 
ATOM      6  N   UNL     1       2.202   7.192  19.680  0.00  0.00    +0.000 NA
ATOM      7  C   UNL     1       3.204   6.405  19.241  0.00  0.00    +0.000 A 
ENDROOT
BRANCH   1  13
ATOM      8  C   UNL     1       5.736   4.047  14.190  0.00  0.00    +0.000 C 
ATOM      9  C   UNL     1       5.915   4.591  15.576  0.00  0.00    +0.000 A 
ATOM     10  C   UNL     1       7.119   4.417  16.259  0.00  0.00    +0.000 A 
ATOM     11  C   UNL     1       7.278   4.956  17.531  0.00  0.00    +0.000 A 
ATOM     12  C   UNL     1       6.247   5.698  18.113  0.00  0.00    +0.000 A 
ATOM     13  C   UNL     1       5.009   5.890  17.463  0.00  0.00    +0.000 A 
ATOM     14  C   UNL     1       4.857   5.274  16.204  0.00  0.00    +0.000 A 
ENDBRANCH   1  13
BRANCH   7  15
ATOM     15  N   UNL     1       3.548   5.280  20.010  0.00  0.00    +0.000 N 
ATOM     16  H   UNL     1       4.558   5.186  20.036  0.00  0.00    +0.000 HD
BRANCH  15  17
ATOM     17  C   UNL     1       2.922   3.994  19.698  0.00  0.00    +0.000 C 
ATOM     18  C   UNL     1       2.072   4.104  18.431  0.00  0.00    +0.000 C 
ATOM     19  C   UNL     1       2.212   2.778  17.704  0.00  0.00    +0.000 C 
ATOM     20  C   UNL     1       3.525   2.165  18.158  0.00  0.00    +0.000 C 
ATOM     21  C   UNL     1       4.029   2.995  19.331  0.00  0.00    +0.000 C 
ENDBRANCH  15  17
ENDBRANCH   7  15
TORSDOF 3
ENDMDL
MODEL 6
REMARK VINA RESULT:      -7.7      1.872      4.893
REMARK  Name = 
REMARK  5 active torsions:
REMARK  status: ('A' for Active; 'I' for Inactive)
REMARK    1  A    between atoms: C_1  and  C_2
REMARK    2  A    between atoms: C_6  and  C_7
REMARK    3  A    between atoms: C_10  and  C_11
REMARK    4  A    between atoms: C_13  and  N_14
REMARK    5  A    between atoms: N_14  and  C_15
REMARK                            x       y       z     vdW  Elec       q    Type
REMARK                         _______ _______ _______ _____ _____    ______ ____
ROOT
ATOM      1  C   UNL     1       2.936   7.067  18.355  0.00  0.00    +0.000 A 
ATOM      2  C   UNL     1       2.569   8.236  17.700  0.00  0.00    +0.000 A 
ATOM      3  N   UNL     1       1.789   9.208  18.206  0.00  0.00    +0.000 NA
ATOM      4  C   UNL     1       1.355   9.008  19.455  0.00  0.00    +0.000 A 
ATOM      5  C   UNL     1       0.484  10.067  20.058  0.00  0.00    +0.000 C 
ATOM      6  N   UNL     1       1.654   7.931  20.205  0.00  0.00    +0.000 NA
ATOM      7  C   UNL     1       2.427   6.966  19.669  0.00  0.00    +0.000 A 
ENDROOT
BRANCH   1  13
ATOM      8  C   UNL     1       7.163   5.503  16.063  0.00  0.00    +0.000 C 
ATOM      9  C   UNL     1       5.763   5.225  16.526  0.00  0.00    +0.000 A 
ATOM     10  C   UNL     1       5.209   3.952  16.392  0.00  0.00    +0.000 A 
ATOM     11  C   UNL     1       3.922   3.705  16.856  0.00  0.00    +0.000 A 
ATOM     12  C   UNL     1       3.196   4.720  17.485  0.00  0.00    +0.000 A 
ATOM     13  C   UNL     1       3.714   6.024  17.633  0.00  0.00    +0.000 A 
ATOM     14  C   UNL     1       4.994   6.258  17.092  0.00  0.00    +0.000 A 
ENDBRANCH   1  13
BRANCH   7  15
ATOM     15  N   UNL     1       2.787   5.878  20.482  0.00  0.00    +0.000 N 
ATOM     16  H   UNL     1       3.539   5.360  20.038  0.00  0.00    +0.000 HD
BRANCH  15  17
ATOM     17  C   UNL     1       1.741   4.965  20.944  0.00  0.00    +0.000 C 
ATOM     18  C   UNL     1       1.050   4.294  19.756  0.00  0.00    +0.000 C 
ATOM     19  C   UNL     1       0.716   2.879  20.196  0.00  0.00    +0.000 C 
ATOM     20  C   UNL     1       1.684   2.528  21.314  0.00  0.00    +0.000 C 
ATOM     21  C   UNL     1       2.408   3.809  21.703  0.00  0.00    +0.000 C 
ENDBRANCH  15  17
ENDBRANCH   7  15
TORSDOF 3
ENDMDL
MODEL 7
REMARK VINA RESULT:      -7.7      1.150      1.940
REMARK  Name = 
REMARK  5 active torsions:
REMARK  status: ('A' for Active; 'I' for Inactive)
REMARK    1  A    between atoms: C_1  and  C_2
REMARK    2  A    between atoms: C_6  and  C_7
REMARK    3  A    between atoms: C_10  and  C_11
REMARK    4  A    between atoms: C_13  and  N_14
REMARK    5  A    between atoms: N_14  and  C_15
REMARK                            x       y       z     vdW  Elec       q    Type
REMARK                         _______ _______ _______ _____ _____    ______ ____
ROOT
ATOM      1  C   UNL     1       3.740   6.739  18.068  0.00  0.00    +0.000 A 
ATOM      2  C   UNL     1       4.382   6.967  16.857  0.00  0.00    +0.000 A 
ATOM      3  N   UNL     1       5.420   6.261  16.374  0.00  0.00    +0.000 NA
ATOM      4  C   UNL     1       5.839   5.250  17.143  0.00  0.00    +0.000 A 
ATOM      5  C   UNL     1       6.991   4.436  16.642  0.00  0.00    +0.000 C 
ATOM      6  N   UNL     1       5.291   4.911  18.325  0.00  0.00    +0.000 NA
ATOM      7  C   UNL     1       4.261   5.644  18.792  0.00  0.00    +0.000 A 
ENDROOT
BRANCH   1  13
ATOM      8  C   UNL     1       0.758   8.581  21.712  0.00  0.00    +0.000 C 
ATOM      9  C   UNL     1       1.221   8.601  20.286  0.00  0.00    +0.000 A 
ATOM     10  C   UNL     1       0.747   9.567  19.398  0.00  0.00    +0.000 A 
ATOM     11  C   UNL     1       1.211   9.590  18.088  0.00  0.00    +0.000 A 
ATOM     12  C   UNL     1       2.176   8.670  17.669  0.00  0.00    +0.000 A 
ATOM     13  C   UNL     1       2.675   7.669  18.530  0.00  0.00    +0.000 A 
ATOM     14  C   UNL     1       2.134   7.632  19.831  0.00  0.00    +0.000 A 
ENDBRANCH   1  13
BRANCH   7  15
ATOM     15  N   UNL     1       3.655   5.242  19.995  0.00  0.00    +0.000 N 
ATOM     16  H   UNL     1       4.296   5.402  20.766  0.00  0.00    +0.000 HD
BRANCH  15  17
ATOM     17  C   UNL     1       3.077   3.900  20.080  0.00  0.00    +0.000 C 
ATOM     18  C   UNL     1       2.391   3.696  21.432  0.00  0.00    +0.000 C 
ATOM     19  C   UNL     1       1.172   2.830  21.169  0.00  0.00    +0.000 C 
ATOM     20  C   UNL     1       0.801   3.027  19.709  0.00  0.00    +0.000 C 
ATOM     21  C   UNL     1       1.939   3.798  19.054  0.00  0.00    +0.000 C 
ENDBRANCH  15  17
ENDBRANCH   7  15
TORSDOF 3
ENDMDL
MODEL 8
REMARK VINA RESULT:      -7.7      1.529      5.697
REMARK  Name = 
REMARK  5 active torsions:
REMARK  status: ('A' for Active; 'I' for Inactive)
REMARK    1  A    between atoms: C_1  and  C_2
REMARK    2  A    between atoms: C_6  and  C_7
REMARK    3  A    between atoms: C_10  and  C_11
REMARK    4  A    between atoms: C_13  and  N_14
REMARK    5  A    between atoms: N_14  and  C_15
REMARK                            x       y       z     vdW  Elec       q    Type
REMARK                         _______ _______ _______ _____ _____    ______ ____
ROOT
ATOM      1  C   UNL     1       4.115   4.000  18.655  0.00  0.00    +0.000 A 
ATOM      2  C   UNL     1       4.372   2.896  19.458  0.00  0.00    +0.000 A 
ATOM      3  N   UNL     1       3.587   2.451  20.456  0.00  0.00    +0.000 NA
ATOM      4  C   UNL     1       2.462   3.146  20.659  0.00  0.00    +0.000 A 
ATOM      5  C   UNL     1       1.558   2.685  21.759  0.00  0.00    +0.000 C 
ATOM      6  N   UNL     1       2.087   4.221  19.939  0.00  0.00    +0.000 NA
ATOM      7  C   UNL     1       2.899   4.652  18.955  0.00  0.00    +0.000 A 
ENDROOT
BRANCH   1  13
ATOM      8  C   UNL     1       5.988   4.007  13.958  0.00  0.00    +0.000 C 
ATOM      9  C   UNL     1       6.055   4.484  15.378  0.00  0.00    +0.000 A 
ATOM     10  C   UNL     1       6.995   5.441  15.764  0.00  0.00    +0.000 A 
ATOM     11  C   UNL     1       7.022   5.895  17.077  0.00  0.00    +0.000 A 
ATOM     12  C   UNL     1       6.089   5.420  18.003  0.00  0.00    +0.000 A 
ATOM     13  C   UNL     1       5.128   4.445  17.660  0.00  0.00    +0.000 A 
ATOM     14  C   UNL     1       5.172   3.957  16.338  0.00  0.00    +0.000 A 
ENDBRANCH   1  13
BRANCH   7  15
ATOM     15  N   UNL     1       2.468   5.734  18.167  0.00  0.00    +0.000 N 
ATOM     16  H   UNL     1       2.758   5.587  17.205  0.00  0.00    +0.000 HD
BRANCH  15  17
ATOM     17  C   UNL     1       2.792   7.094  18.598  0.00  0.00    +0.000 C 
ATOM     18  C   UNL     1       2.340   8.112  17.549  0.00  0.00    +0.000 C 
ATOM     19  C   UNL     1       1.871   9.337  18.314  0.00  0.00    +0.000 C 
ATOM     20  C   UNL     1       1.477   8.864  19.702  0.00  0.00    +0.000 C 
ATOM     21  C   UNL     1       1.949   7.423  19.839  0.00  0.00    +0.000 C 
ENDBRANCH  15  17
ENDBRANCH   7  15
TORSDOF 3
ENDMDL
MODEL 9
REMARK VINA RESULT:      -7.6      1.605      5.497
REMARK  Name = 
REMARK  5 active torsions:
REMARK  status: ('A' for Active; 'I' for Inactive)
REMARK    1  A    between atoms: C_1  and  C_2
REMARK    2  A    between atoms: C_6  and  C_7
REMARK    3  A    between atoms: C_10  and  C_11
REMARK    4  A    between atoms: C_13  and  N_14
REMARK    5  A    between atoms: N_14  and  C_15
REMARK                            x       y       z     vdW  Elec       q    Type
REMARK                         _______ _______ _______ _____ _____    ______ ____
ROOT
ATOM      1  C   UNL     1       3.983   4.188  18.717  0.00  0.00    +0.000 A 
ATOM      2  C   UNL     1       4.296   3.061  19.467  0.00  0.00    +0.000 A 
ATOM      3  N   UNL     1       3.534   2.528  20.439  0.00  0.00    +0.000 NA
ATOM      4  C   UNL     1       2.374   3.153  20.671  0.00  0.00    +0.000 A 
ATOM      5  C   UNL     1       1.494   2.593  21.745  0.00  0.00    +0.000 C 
ATOM      6  N   UNL     1       1.945   4.240  20.003  0.00  0.00    +0.000 NA
ATOM      7  C   UNL     1       2.734   4.761  19.043  0.00  0.00    +0.000 A 
ENDROOT
BRANCH   1  13
ATOM      8  C   UNL     1       7.691   7.414  17.530  0.00  0.00    +0.000 C 
ATOM      9  C   UNL     1       6.791   6.278  17.143  0.00  0.00    +0.000 A 
ATOM     10  C   UNL     1       6.944   5.636  15.914  0.00  0.00    +0.000 A 
ATOM     11  C   UNL     1       6.122   4.564  15.585  0.00  0.00    +0.000 A 
ATOM     12  C   UNL     1       5.167   4.107  16.498  0.00  0.00    +0.000 A 
ATOM     13  C   UNL     1       4.972   4.732  17.748  0.00  0.00    +0.000 A 
ATOM     14  C   UNL     1       5.776   5.857  18.021  0.00  0.00    +0.000 A 
ENDBRANCH   1  13
BRANCH   7  15
ATOM     15  N   UNL     1       2.248   5.855  18.307  0.00  0.00    +0.000 N 
ATOM     16  H   UNL     1       2.487   5.735  17.328  0.00  0.00    +0.000 HD
BRANCH  15  17
ATOM     17  C   UNL     1       2.579   7.209  18.753  0.00  0.00    +0.000 C 
ATOM     18  C   UNL     1       2.050   8.246  17.761  0.00  0.00    +0.000 C 
ATOM     19  C   UNL     1       1.611   9.444  18.584  0.00  0.00    +0.000 C 
ATOM     20  C   UNL     1       1.308   8.929  19.981  0.00  0.00    +0.000 C 
ATOM     21  C   UNL     1       1.809   7.493  20.051  0.00  0.00    +0.000 C 
ENDBRANCH  15  17
ENDBRANCH   7  15
TORSDOF 3
ENDMDL
