MODEL 1
REMARK VINA RESULT:      -6.9      0.000      0.000
REMARK  Name = 
REMARK  4 active torsions:
REMARK  status: ('A' for Active; 'I' for Inactive)
REMARK    1  A    between atoms: C_1  and  O_2
REMARK    2  A    between atoms: O_2  and  C_3
REMARK    3  A    between atoms: C_8  and  C_9
REMARK    4  A    between atoms: C_12  and  N_13
REMARK                            x       y       z     vdW  Elec       q    Type
REMARK                         _______ _______ _______ _____ _____    ______ ____
ROOT
ATOM      1  C   UNL     1       6.749   4.699  14.582  0.00  0.00    +0.000 A 
ATOM      2  C   UNL     1       7.616   4.935  15.656  0.00  0.00    +0.000 A 
ATOM      3  C   UNL     1       7.201   4.741  16.981  0.00  0.00    +0.000 A 
ATOM      4  C   UNL     1       5.891   4.308  17.168  0.00  0.00    +0.000 A 
ATOM      5  O   UNL     1       5.297   4.061  18.368  0.00  0.00    +0.000 OA
ATOM      6  C   UNL     1       4.011   3.665  18.115  0.00  0.00    +0.000 A 
ATOM      7  C   UNL     1       3.795   3.656  16.749  0.00  0.00    +0.000 A 
ATOM      8  C   UNL     1       4.999   4.074  16.131  0.00  0.00    +0.000 A 
ATOM      9  C   UNL     1       5.429   4.284  14.810  0.00  0.00    +0.000 A 
ENDROOT
BRANCH   6  10
ATOM     10  C   UNL     1       3.172   3.365  19.273  0.00  0.00    +0.000 A 
ATOM     11  C   UNL     1       1.826   3.748  19.328  0.00  0.00    +0.000 A 
ATOM     12  C   UNL     1       1.033   3.424  20.438  0.00  0.00    +0.000 A 
ATOM     13  C   UNL     1       1.554   2.673  21.494  0.00  0.00    +0.000 A 
ATOM     14  C   UNL     1       2.911   2.358  21.477  0.00  0.00    +0.000 A 
ATOM     15  C   UNL     1       3.706   2.680  20.372  0.00  0.00    +0.000 A 
BRANCH  13  16
ATOM     16  N   UNL     1       0.793   2.444  22.646  0.00  0.00    +0.000 N 
ATOM     17  H   UNL     1       0.144   3.196  22.858  0.00  0.00    +0.000 HD
ATOM     18  H   UNL     1       0.343   1.535  22.662  0.00  0.00    +0.000 HD
ENDBRANCH  13  16
ENDBRANCH   6  10
BRANCH   1  20
ATOM     19  C   UNL     1       6.692   3.822  12.387  0.00  0.00    +0.000 C 
ATOM     20  O   UNL     1       7.067   4.880  13.262  0.00  0.00    +0.000 OA
ENDBRANCH   1  20
TORSDOF 3
ENDMDL
MODEL 2
REMARK VINA RESULT:      -6.8      0.080      1.133
REMARK  Name = 
REMARK  4 active torsions:
REMARK  status: ('A' for Active; 'I' for Inactive)
REMARK    1  A    between atoms: C_1  and  O_2
REMARK    2  A    between atoms: O_2  and  C_3
REMARK    3  A    between atoms: C_8  and  C_9
REMARK    4  A    between atoms: C_12  and  N_13
REMARK                            x       y       z     vdW  Elec       q    Type
REMARK                         _______ _______ _______ _____ _____    ______ ____
ROOT
ATOM      1  C   UNL     1       6.751   4.709  14.561  0.00  0.00    +0.000 A 
ATOM      2  C   UNL     1       7.595   5.031  15.629  0.00  0.00    +0.000 A 
ATOM      3  C   UNL     1       7.185   4.852  16.959  0.00  0.00    +0.000 A 
ATOM      4  C   UNL     1       5.904   4.345  17.154  0.00  0.00    +0.000 A 
ATOM      5  O   UNL     1       5.320   4.098  18.359  0.00  0.00    +0.000 OA
ATOM      6  C   UNL     1       4.063   3.615  18.114  0.00  0.00    +0.000 A 
ATOM      7  C   UNL     1       3.854   3.551  16.748  0.00  0.00    +0.000 A 
ATOM      8  C   UNL     1       5.034   4.024  16.122  0.00  0.00    +0.000 A 
ATOM      9  C   UNL     1       5.458   4.220  14.796  0.00  0.00    +0.000 A 
ENDROOT
BRANCH   6  10
ATOM     10  C   UNL     1       3.237   3.299  19.277  0.00  0.00    +0.000 A 
ATOM     11  C   UNL     1       3.747   2.593  20.374  0.00  0.00    +0.000 A 
ATOM     12  C   UNL     1       2.943   2.327  21.492  0.00  0.00    +0.000 A 
ATOM     13  C   UNL     1       1.631   2.798  21.557  0.00  0.00    +0.000 A 
ATOM     14  C   UNL     1       1.098   3.433  20.436  0.00  0.00    +0.000 A 
ATOM     15  C   UNL     1       1.896   3.700  19.320  0.00  0.00    +0.000 A 
BRANCH  13  16
ATOM     16  N   UNL     1       0.799   2.440  22.624  0.00  0.00    +0.000 N 
ATOM     17  H   UNL     1       0.307   3.228  23.036  0.00  0.00    +0.000 HD
ATOM     18  H   UNL     1       0.174   1.669  22.411  0.00  0.00    +0.000 HD
ENDBRANCH  13  16
ENDBRANCH   6  10
BRANCH   1  20
ATOM     19  C   UNL     1       6.658   3.812  12.375  0.00  0.00    +0.000 C 
ATOM     20  O   UNL     1       7.065   4.869  13.236  0.00  0.00    +0.000 OA
ENDBRANCH   1  20
TORSDOF 3
ENDMDL
MODEL 3
REMARK VINA RESULT:      -6.8      5.297      7.659
REMARK  Name = 
REMARK  4 active torsions:
REMARK  status: ('A' for Active; 'I' for Inactive)
REMARK    1  A    between atoms: C_1  and  O_2
REMARK    2  A    between atoms: O_2  and  C_3
REMARK    3  A    between atoms: C_8  and  C_9
REMARK    4  A    between atoms: C_12  and  N_13
REMARK                            x       y       z     vdW  Elec       q    Type
REMARK                         _______ _______ _______ _____ _____    ______ ____
ROOT
ATOM      1  C   UNL     1       0.217  10.185  20.403  0.00  0.00    +0.000 A 
ATOM      2  C   UNL     1       0.426   9.236  21.410  0.00  0.00    +0.000 A 
ATOM      3  C   UNL     1       1.214   8.098  21.185  0.00  0.00    +0.000 A 
ATOM      4  C   UNL     1       1.770   7.965  19.916  0.00  0.00    +0.000 A 
ATOM      5  O   UNL     1       2.562   6.940  19.497  0.00  0.00    +0.000 OA
ATOM      6  C   UNL     1       2.888   7.182  18.190  0.00  0.00    +0.000 A 
ATOM      7  C   UNL     1       2.304   8.369  17.784  0.00  0.00    +0.000 A 
ATOM      8  C   UNL     1       1.577   8.878  18.888  0.00  0.00    +0.000 A 
ATOM      9  C   UNL     1       0.776  10.006  19.129  0.00  0.00    +0.000 A 
ENDROOT
BRANCH   6  10
ATOM     10  C   UNL     1       3.725   6.188  17.522  0.00  0.00    +0.000 A 
ATOM     11  C   UNL     1       3.501   4.813  17.673  0.00  0.00    +0.000 A 
ATOM     12  C   UNL     1       4.299   3.879  16.999  0.00  0.00    +0.000 A 
ATOM     13  C   UNL     1       5.306   4.295  16.126  0.00  0.00    +0.000 A 
ATOM     14  C   UNL     1       5.580   5.659  16.034  0.00  0.00    +0.000 A 
ATOM     15  C   UNL     1       4.787   6.595  16.705  0.00  0.00    +0.000 A 
BRANCH  13  16
ATOM     16  N   UNL     1       6.169   3.363  15.540  0.00  0.00    +0.000 N 
ATOM     17  H   UNL     1       6.652   2.778  16.215  0.00  0.00    +0.000 HD
ATOM     18  H   UNL     1       5.736   2.816  14.802  0.00  0.00    +0.000 HD
ENDBRANCH  13  16
ENDBRANCH   6  10
BRANCH   1  20
ATOM     19  C   UNL     1      -1.363  11.638  19.411  0.00  0.00    +0.000 C 
ATOM     20  O   UNL     1      -0.551  11.313  20.533  0.00  0.00    +0.000 OA
ENDBRANCH   1  20
TORSDOF 3
ENDMDL
MODEL 4
REMARK VINA RESULT:      -6.8      5.285      7.633
REMARK  Name = 
REMARK  4 active torsions:
REMARK  status: ('A' for Active; 'I' for Inactive)
REMARK    1  A    between atoms: C_1  and  O_2
REMARK    2  A    between atoms: O_2  and  C_3
REMARK    3  A    between atoms: C_8  and  C_9
REMARK    4  A    between atoms: C_12  and  N_13
REMARK                            x       y       z     vdW  Elec       q    Type
REMARK                         _______ _______ _______ _____ _____    ______ ____
ROOT
ATOM      1  C   UNL     1       0.245  10.111  20.472  0.00  0.00    +0.000 A 
ATOM      2  C   UNL     1       0.442   9.127  21.448  0.00  0.00    +0.000 A 
ATOM      3  C   UNL     1       1.225   7.993  21.190  0.00  0.00    +0.000 A 
ATOM      4  C   UNL     1       1.789   7.901  19.921  0.00  0.00    +0.000 A 
ATOM      5  O   UNL     1       2.579   6.886  19.472  0.00  0.00    +0.000 OA
ATOM      6  C   UNL     1       2.916   7.171  18.176  0.00  0.00    +0.000 A 
ATOM      7  C   UNL     1       2.341   8.374  17.807  0.00  0.00    +0.000 A 
ATOM      8  C   UNL     1       1.609   8.848  18.923  0.00  0.00    +0.000 A 
ATOM      9  C   UNL     1       0.812   9.973  19.197  0.00  0.00    +0.000 A 
ENDROOT
BRANCH   6  10
ATOM     10  C   UNL     1       3.751   6.195  17.480  0.00  0.00    +0.000 A 
ATOM     11  C   UNL     1       4.835   6.585  16.684  0.00  0.00    +0.000 A 
ATOM     12  C   UNL     1       5.640   5.629  16.049  0.00  0.00    +0.000 A 
ATOM     13  C   UNL     1       5.408   4.265  16.232  0.00  0.00    +0.000 A 
ATOM     14  C   UNL     1       4.286   3.875  16.961  0.00  0.00    +0.000 A 
ATOM     15  C   UNL     1       3.480   4.826  17.595  0.00  0.00    +0.000 A 
BRANCH  13  16
ATOM     16  N   UNL     1       6.144   3.316  15.514  0.00  0.00    +0.000 N 
ATOM     17  H   UNL     1       5.695   3.025  14.650  0.00  0.00    +0.000 HD
ATOM     18  H   UNL     1       7.114   3.577  15.370  0.00  0.00    +0.000 HD
ENDBRANCH  13  16
ENDBRANCH   6  10
BRANCH   1  20
ATOM     19  C   UNL     1      -0.526  12.141  19.535  0.00  0.00    +0.000 C 
ATOM     20  O   UNL     1      -0.517  11.238  20.635  0.00  0.00    +0.000 OA
ENDBRANCH   1  20
TORSDOF 3
ENDMDL
MODEL 5
REMARK VINA RESULT:      -6.7      6.210      8.286
REMARK  Name = 
REMARK  4 active torsions:
REMARK  status: ('A' for Active; 'I' for Inactive)
REMARK    1  A    between atoms: C_1  and  O_2
REMARK    2  A    between atoms: O_2  and  C_3
REMARK    3  A    between atoms: C_8  and  C_9
REMARK    4  A    between atoms: C_12  and  N_13
REMARK                            x       y       z     vdW  Elec       q    Type
REMARK                         _______ _______ _______ _____ _____    ______ ____
ROOT
ATOM      1  C   UNL     1       6.182   5.305  17.101  0.00  0.00    +0.000 A 
ATOM      2  C   UNL     1       7.006   4.778  18.100  0.00  0.00    +0.000 A 
ATOM      3  C   UNL     1       7.910   5.590  18.801  0.00  0.00    +0.000 A 
ATOM      4  C   UNL     1       7.942   6.936  18.448  0.00  0.00    +0.000 A 
ATOM      5  O   UNL     1       8.743   7.886  19.005  0.00  0.00    +0.000 OA
ATOM      6  C   UNL     1       8.473   9.071  18.373  0.00  0.00    +0.000 A 
ATOM      7  C   UNL     1       7.493   8.868  17.418  0.00  0.00    +0.000 A 
ATOM      8  C   UNL     1       7.149   7.495  17.456  0.00  0.00    +0.000 A 
ATOM      9  C   UNL     1       6.257   6.663  16.758  0.00  0.00    +0.000 A 
ENDROOT
BRANCH   6  10
ATOM     10  C   UNL     1       9.242  10.237  18.800  0.00  0.00    +0.000 A 
ATOM     11  C   UNL     1       9.879  11.079  17.879  0.00  0.00    +0.000 A 
ATOM     12  C   UNL     1      10.588  12.209  18.310  0.00  0.00    +0.000 A 
ATOM     13  C   UNL     1      10.637  12.547  19.664  0.00  0.00    +0.000 A 
ATOM     14  C   UNL     1      10.071  11.671  20.588  0.00  0.00    +0.000 A 
ATOM     15  C   UNL     1       9.363  10.543  20.161  0.00  0.00    +0.000 A 
BRANCH  13  16
ATOM     16  N   UNL     1      11.433  13.612  20.101  0.00  0.00    +0.000 N 
ATOM     17  H   UNL     1      11.095  14.046  20.955  0.00  0.00    +0.000 HD
ATOM     18  H   UNL     1      12.421  13.387  20.153  0.00  0.00    +0.000 HD
ENDBRANCH  13  16
ENDBRANCH   6  10
BRANCH   1  20
ATOM     19  C   UNL     1       5.588   4.461  14.973  0.00  0.00    +0.000 C 
ATOM     20  O   UNL     1       5.286   4.581  16.358  0.00  0.00    +0.000 OA
ENDBRANCH   1  20
TORSDOF 3
ENDMDL
MODEL 6
REMARK VINA RESULT:      -6.7      6.215      8.405
REMARK  Name = 
REMARK  4 active torsions:
REMARK  status: ('A' for Active; 'I' for Inactive)
REMARK    1  A    between atoms: C_1  and  O_2
REMARK    2  A    between atoms: O_2  and  C_3
REMARK    3  A    between atoms: C_8  and  C_9
REMARK    4  A    between atoms: C_12  and  N_13
REMARK                            x       y       z     vdW  Elec       q    Type
REMARK                         _______ _______ _______ _____ _____    ______ ____
ROOT
ATOM      1  C   UNL     1       6.101   5.346  17.118  0.00  0.00    +0.000 A 
ATOM      2  C   UNL     1       6.949   4.795  18.085  0.00  0.00    +0.000 A 
ATOM      3  C   UNL     1       7.879   5.587  18.773  0.00  0.00    +0.000 A 
ATOM      4  C   UNL     1       7.913   6.939  18.442  0.00  0.00    +0.000 A 
ATOM      5  O   UNL     1       8.738   7.872  18.991  0.00  0.00    +0.000 OA
ATOM      6  C   UNL     1       8.461   9.070  18.387  0.00  0.00    +0.000 A 
ATOM      7  C   UNL     1       7.453   8.892  17.457  0.00  0.00    +0.000 A 
ATOM      8  C   UNL     1       7.098   7.521  17.482  0.00  0.00    +0.000 A 
ATOM      9  C   UNL     1       6.179   6.709  16.795  0.00  0.00    +0.000 A 
ENDROOT
BRANCH   6  10
ATOM     10  C   UNL     1       9.253  10.223  18.811  0.00  0.00    +0.000 A 
ATOM     11  C   UNL     1       9.379  10.576  20.161  0.00  0.00    +0.000 A 
ATOM     12  C   UNL     1      10.168  11.669  20.545  0.00  0.00    +0.000 A 
ATOM     13  C   UNL     1      10.881  12.405  19.597  0.00  0.00    +0.000 A 
ATOM     14  C   UNL     1      10.695  12.104  18.248  0.00  0.00    +0.000 A 
ATOM     15  C   UNL     1       9.910  11.014  17.861  0.00  0.00    +0.000 A 
BRANCH  13  16
ATOM     16  N   UNL     1      11.579  13.558  19.970  0.00  0.00    +0.000 N 
ATOM     17  H   UNL     1      11.842  13.572  20.951  0.00  0.00    +0.000 HD
ATOM     18  H   UNL     1      12.362  13.774  19.362  0.00  0.00    +0.000 HD
ENDBRANCH  13  16
ENDBRANCH   6  10
BRANCH   1  20
ATOM     19  C   UNL     1       4.122   4.052  17.136  0.00  0.00    +0.000 C 
ATOM     20  O   UNL     1       5.178   4.643  16.389  0.00  0.00    +0.000 OA
ENDBRANCH   1  20
TORSDOF 3
ENDMDL
MODEL 7
REMARK VINA RESULT:      -6.7      5.055      7.789
REMARK  Name = 
REMARK  4 active torsions:
REMARK  status: ('A' for Active; 'I' for Inactive)
REMARK    1  A    between atoms: C_1  and  O_2
REMARK    2  A    between atoms: O_2  and  C_3
REMARK    3  A    between atoms: C_8  and  C_9
REMARK    4  A    between atoms: C_12  and  N_13
REMARK                            x       y       z     vdW  Elec       q    Type
REMARK                         _______ _______ _______ _____ _____    ______ ____
ROOT
ATOM      1  C   UNL     1       0.516   9.230  21.205  0.00  0.00    +0.000 A 
ATOM      2  C   UNL     1       0.527  10.047  20.069  0.00  0.00    +0.000 A 
ATOM      3  C   UNL     1       1.208   9.664  18.904  0.00  0.00    +0.000 A 
ATOM      4  C   UNL     1       1.867   8.439  18.941  0.00  0.00    +0.000 A 
ATOM      5  O   UNL     1       2.580   7.887  17.921  0.00  0.00    +0.000 OA
ATOM      6  C   UNL     1       3.071   6.689  18.365  0.00  0.00    +0.000 A 
ATOM      7  C   UNL     1       2.660   6.480  19.669  0.00  0.00    +0.000 A 
ATOM      8  C   UNL     1       1.888   7.605  20.050  0.00  0.00    +0.000 A 
ATOM      9  C   UNL     1       1.209   8.011  21.212  0.00  0.00    +0.000 A 
ENDROOT
BRANCH   6  10
ATOM     10  C   UNL     1       3.895   5.925  17.431  0.00  0.00    +0.000 A 
ATOM     11  C   UNL     1       4.734   6.553  16.502  0.00  0.00    +0.000 A 
ATOM     12  C   UNL     1       5.538   5.799  15.636  0.00  0.00    +0.000 A 
ATOM     13  C   UNL     1       5.553   4.405  15.708  0.00  0.00    +0.000 A 
ATOM     14  C   UNL     1       4.662   3.776  16.576  0.00  0.00    +0.000 A 
ATOM     15  C   UNL     1       3.859   4.525  17.442  0.00  0.00    +0.000 A 
BRANCH  13  16
ATOM     16  N   UNL     1       6.272   3.653  14.773  0.00  0.00    +0.000 N 
ATOM     17  H   UNL     1       5.829   2.770  14.537  0.00  0.00    +0.000 HD
ATOM     18  H   UNL     1       6.538   4.179  13.946  0.00  0.00    +0.000 HD
ENDBRANCH  13  16
ENDBRANCH   6  10
BRANCH   1  20
ATOM     19  C   UNL     1      -0.627  10.855  22.486  0.00  0.00    +0.000 C 
ATOM     20  O   UNL     1      -0.107   9.535  22.386  0.00  0.00    +0.000 OA
ENDBRANCH   1  20
TORSDOF 3
ENDMDL
MODEL 8
REMARK VINA RESULT:      -6.7      5.053      6.583
REMARK  Name = 
REMARK  4 active torsions:
REMARK  status: ('A' for Active; 'I' for Inactive)
REMARK    1  A    between atoms: C_1  and  O_2
REMARK    2  A    between atoms: O_2  and  C_3
REMARK    3  A    between atoms: C_8  and  C_9
REMARK    4  A    between atoms: C_12  and  N_13
REMARK                            x       y       z     vdW  Elec       q    Type
REMARK                         _______ _______ _______ _____ _____    ______ ____
ROOT
ATOM      1  C   UNL     1       1.129  10.699  19.196  0.00  0.00    +0.000 A 
ATOM      2  C   UNL     1       0.850  10.210  20.477  0.00  0.00    +0.000 A 
ATOM      3  C   UNL     1       1.115   8.877  20.820  0.00  0.00    +0.000 A 
ATOM      4  C   UNL     1       1.664   8.073  19.824  0.00  0.00    +0.000 A 
ATOM      5  O   UNL     1       1.993   6.759  19.954  0.00  0.00    +0.000 OA
ATOM      6  C   UNL     1       2.491   6.341  18.748  0.00  0.00    +0.000 A 
ATOM      7  C   UNL     1       2.481   7.398  17.857  0.00  0.00    +0.000 A 
ATOM      8  C   UNL     1       1.944   8.517  18.540  0.00  0.00    +0.000 A 
ATOM      9  C   UNL     1       1.662   9.854  18.211  0.00  0.00    +0.000 A 
ENDROOT
BRANCH   6  10
ATOM     10  C   UNL     1       2.893   4.940  18.649  0.00  0.00    +0.000 A 
ATOM     11  C   UNL     1       2.251   4.047  17.781  0.00  0.00    +0.000 A 
ATOM     12  C   UNL     1       2.674   2.714  17.683  0.00  0.00    +0.000 A 
ATOM     13  C   UNL     1       3.772   2.256  18.413  0.00  0.00    +0.000 A 
ATOM     14  C   UNL     1       4.363   3.120  19.334  0.00  0.00    +0.000 A 
ATOM     15  C   UNL     1       3.944   4.451  19.435  0.00  0.00    +0.000 A 
BRANCH  13  16
ATOM     16  N   UNL     1       4.124   0.902  18.394  0.00  0.00    +0.000 N 
ATOM     17  H   UNL     1       3.340   0.283  18.209  0.00  0.00    +0.000 HD
ATOM     18  H   UNL     1       4.921   0.697  17.800  0.00  0.00    +0.000 HD
ENDBRANCH  13  16
ENDBRANCH   6  10
BRANCH   1  20
ATOM     19  C   UNL     1       1.808  12.964  19.226  0.00  0.00    +0.000 C 
ATOM     20  O   UNL     1       0.886  11.980  18.773  0.00  0.00    +0.000 OA
ENDBRANCH   1  20
TORSDOF 3
ENDMDL
MODEL 9
REMARK VINA RESULT:      -6.7      5.099      7.805
REMARK  Name = 
REMARK  4 active torsions:
REMARK  status: ('A' for Active; 'I' for Inactive)
REMARK    1  A    between atoms: C_1  and  O_2
REMARK    2  A    between atoms: O_2  and  C_3
REMARK    3  A    between atoms: C_8  and  C_9
REMARK    4  A    between atoms: C_12  and  N_13
REMARK                            x       y       z     vdW  Elec       q    Type
REMARK                         _______ _______ _______ _____ _____    ______ ____
ROOT
ATOM      1  C   UNL     1       0.498   9.357  21.127  0.00  0.00    +0.000 A 
ATOM      2  C   UNL     1       0.529  10.139  19.967  0.00  0.00    +0.000 A 
ATOM      3  C   UNL     1       1.218   9.713  18.822  0.00  0.00    +0.000 A 
ATOM      4  C   UNL     1       1.865   8.484  18.904  0.00  0.00    +0.000 A 
ATOM      5  O   UNL     1       2.583   7.894  17.909  0.00  0.00    +0.000 OA
ATOM      6  C   UNL     1       3.058   6.705  18.395  0.00  0.00    +0.000 A 
ATOM      7  C   UNL     1       2.632   6.542  19.701  0.00  0.00    +0.000 A 
ATOM      8  C   UNL     1       1.866   7.685  20.039  0.00  0.00    +0.000 A 
ATOM      9  C   UNL     1       1.179   8.133  21.180  0.00  0.00    +0.000 A 
ENDROOT
BRANCH   6  10
ATOM     10  C   UNL     1       3.885   5.905  17.495  0.00  0.00    +0.000 A 
ATOM     11  C   UNL     1       3.816   4.506  17.477  0.00  0.00    +0.000 A 
ATOM     12  C   UNL     1       4.599   3.762  16.583  0.00  0.00    +0.000 A 
ATOM     13  C   UNL     1       5.430   4.398  15.660  0.00  0.00    +0.000 A 
ATOM     14  C   UNL     1       5.558   5.784  15.728  0.00  0.00    +0.000 A 
ATOM     15  C   UNL     1       4.780   6.531  16.618  0.00  0.00    +0.000 A 
BRANCH  13  16
ATOM     16  N   UNL     1       6.289   3.652  14.845  0.00  0.00    +0.000 N 
ATOM     17  H   UNL     1       7.247   3.988  14.852  0.00  0.00    +0.000 HD
ATOM     18  H   UNL     1       6.234   2.651  15.005  0.00  0.00    +0.000 HD
ENDBRANCH  13  16
ENDBRANCH   6  10
BRANCH   1  20
ATOM     19  C   UNL     1      -0.662  11.026  22.338  0.00  0.00    +0.000 C 
ATOM     20  O   UNL     1      -0.135   9.705  22.292  0.00  0.00    +0.000 OA
ENDBRANCH   1  20
TORSDOF 3
ENDMDL
