MODEL 1
REMARK VINA RESULT:      -7.7      0.000      0.000
REMARK  Name = 
REMARK  3 active torsions:
REMARK  status: ('A' for Active; 'I' for Inactive)
REMARK    1  A    between atoms: C_1  and  C_2
REMARK    2  A    between atoms: C_3  and  N_4
REMARK    3  A    between atoms: C_18  and  O_19
REMARK                            x       y       z     vdW  Elec       q    Type
REMARK                         _______ _______ _______ _____ _____    ______ ____
ROOT
ATOM      1  N   UNL     1       3.120   6.532  19.223  0.00  0.00    +0.000 N 
ATOM      2  C   UNL     1       2.897   6.384  17.747  0.00  0.00    +0.000 C 
ATOM      3  C   UNL     1       2.514   4.965  17.258  0.00  0.00    +0.000 C 
ATOM      4  C   UNL     1       3.170   3.807  18.060  0.00  0.00    +0.000 C 
ATOM      5  C   UNL     1       2.416   2.452  17.868  0.00  0.00    +0.000 C 
ATOM      6  C   UNL     1       1.203   2.331  18.824  0.00  0.00    +0.000 C 
ATOM      7  C   UNL     1       1.615   2.360  20.318  0.00  0.00    +0.000 C 
ATOM      8  C   UNL     1       2.998   3.011  20.512  0.00  0.00    +0.000 C 
ATOM      9  C   UNL     1       3.012   4.193  19.554  0.00  0.00    +0.000 C 
ATOM     10  C   UNL     1       3.851   5.402  19.876  0.00  0.00    +0.000 C 
ATOM     11  C   UNL     1       5.329   5.240  19.489  0.00  0.00    +0.000 C 
ATOM     12  C   UNL     1       5.605   4.557  18.174  0.00  0.00    +0.000 A 
ATOM     13  C   UNL     1       6.861   4.765  17.568  0.00  0.00    +0.000 A 
ATOM     14  C   UNL     1       7.068   4.407  16.242  0.00  0.00    +0.000 A 
ATOM     15  C   UNL     1       6.046   3.771  15.561  0.00  0.00    +0.000 A 
ATOM     16  C   UNL     1       4.874   3.380  16.206  0.00  0.00    +0.000 A 
ATOM     17  C   UNL     1       4.606   3.824  17.519  0.00  0.00    +0.000 A 
ENDROOT
BRANCH   1  20
ATOM     18  C   UNL     1       1.506   9.408  18.558  0.00  0.00    +0.000 C 
ATOM     19  C   UNL     1       1.492   8.432  19.686  0.00  0.00    +0.000 C 
ATOM     20  C   UNL     1       2.154   7.285  19.902  0.00  0.00    +0.000 C 
ENDBRANCH   1  20
BRANCH  15  21
ATOM     21  O   UNL     1       6.130   3.621  14.212  0.00  0.00    +0.000 OA
ATOM     22  H   UNL     1       5.955   2.673  14.009  0.00  0.00    +0.000 HD
ENDBRANCH  15  21
TORSDOF 2
ENDMDL
MODEL 2
REMARK VINA RESULT:      -7.4      2.547      5.194
REMARK  Name = 
REMARK  3 active torsions:
REMARK  status: ('A' for Active; 'I' for Inactive)
REMARK    1  A    between atoms: C_1  and  C_2
REMARK    2  A    between atoms: C_3  and  N_4
REMARK    3  A    between atoms: C_18  and  O_19
REMARK                            x       y       z     vdW  Elec       q    Type
REMARK                         _______ _______ _______ _____ _____    ______ ____
ROOT
ATOM      1  N   UNL     1       5.539   5.398  17.807  0.00  0.00    +0.000 N 
ATOM      2  C   UNL     1       5.441   5.631  19.286  0.00  0.00    +0.000 C 
ATOM      3  C   UNL     1       4.313   4.864  20.019  0.00  0.00    +0.000 C 
ATOM      4  C   UNL     1       3.020   4.662  19.183  0.00  0.00    +0.000 C 
ATOM      5  C   UNL     1       2.124   3.512  19.745  0.00  0.00    +0.000 C 
ATOM      6  C   UNL     1       2.585   2.124  19.234  0.00  0.00    +0.000 C 
ATOM      7  C   UNL     1       2.493   1.995  17.691  0.00  0.00    +0.000 C 
ATOM      8  C   UNL     1       2.482   3.376  17.007  0.00  0.00    +0.000 C 
ATOM      9  C   UNL     1       3.499   4.204  17.780  0.00  0.00    +0.000 C 
ATOM     10  C   UNL     1       4.232   5.321  17.084  0.00  0.00    +0.000 C 
ATOM     11  C   UNL     1       3.424   6.626  17.006  0.00  0.00    +0.000 C 
ATOM     12  C   UNL     1       2.635   6.998  18.235  0.00  0.00    +0.000 A 
ATOM     13  C   UNL     1       2.247   8.344  18.392  0.00  0.00    +0.000 A 
ATOM     14  C   UNL     1       1.779   8.801  19.618  0.00  0.00    +0.000 A 
ATOM     15  C   UNL     1       1.626   7.891  20.648  0.00  0.00    +0.000 A 
ATOM     16  C   UNL     1       1.814   6.524  20.447  0.00  0.00    +0.000 A 
ATOM     17  C   UNL     1       2.385   6.058  19.243  0.00  0.00    +0.000 A 
ENDROOT
BRANCH   1  20
ATOM     18  C   UNL     1       6.912   4.749  14.804  0.00  0.00    +0.000 C 
ATOM     19  C   UNL     1       7.246   4.388  16.213  0.00  0.00    +0.000 C 
ATOM     20  C   UNL     1       6.666   4.682  17.387  0.00  0.00    +0.000 C 
ENDBRANCH   1  20
BRANCH  15  21
ATOM     21  O   UNL     1       1.398   8.340  21.912  0.00  0.00    +0.000 OA
ATOM     22  H   UNL     1       2.200   8.136  22.447  0.00  0.00    +0.000 HD
ENDBRANCH  15  21
TORSDOF 2
ENDMDL
MODEL 3
REMARK VINA RESULT:      -7.4      2.387      5.372
REMARK  Name = 
REMARK  3 active torsions:
REMARK  status: ('A' for Active; 'I' for Inactive)
REMARK    1  A    between atoms: C_1  and  C_2
REMARK    2  A    between atoms: C_3  and  N_4
REMARK    3  A    between atoms: C_18  and  O_19
REMARK                            x       y       z     vdW  Elec       q    Type
REMARK                         _______ _______ _______ _____ _____    ______ ____
ROOT
ATOM      1  N   UNL     1       1.805   3.916  19.477  0.00  0.00    +0.000 N 
ATOM      2  C   UNL     1       1.176   4.603  18.301  0.00  0.00    +0.000 C 
ATOM      3  C   UNL     1       2.144   5.382  17.375  0.00  0.00    +0.000 C 
ATOM      4  C   UNL     1       3.343   6.045  18.106  0.00  0.00    +0.000 C 
ATOM      5  C   UNL     1       4.513   6.392  17.131  0.00  0.00    +0.000 C 
ATOM      6  C   UNL     1       5.433   5.171  16.881  0.00  0.00    +0.000 C 
ATOM      7  C   UNL     1       6.119   4.665  18.176  0.00  0.00    +0.000 C 
ATOM      8  C   UNL     1       5.357   5.121  19.435  0.00  0.00    +0.000 C 
ATOM      9  C   UNL     1       3.885   4.966  19.080  0.00  0.00    +0.000 C 
ATOM     10  C   UNL     1       2.882   4.689  20.169  0.00  0.00    +0.000 C 
ATOM     11  C   UNL     1       2.432   5.951  20.921  0.00  0.00    +0.000 C 
ATOM     12  C   UNL     1       2.196   7.180  20.081  0.00  0.00    +0.000 A 
ATOM     13  C   UNL     1       1.387   8.204  20.614  0.00  0.00    +0.000 A 
ATOM     14  C   UNL     1       0.902   9.215  19.794  0.00  0.00    +0.000 A 
ATOM     15  C   UNL     1       1.296   9.237  18.468  0.00  0.00    +0.000 A 
ATOM     16  C   UNL     1       2.252   8.350  17.978  0.00  0.00    +0.000 A 
ATOM     17  C   UNL     1       2.677   7.260  18.767  0.00  0.00    +0.000 A 
ENDROOT
BRANCH   1  20
ATOM     18  C   UNL     1       3.721   1.648  17.894  0.00  0.00    +0.000 C 
ATOM     19  C   UNL     1       2.540   1.575  18.803  0.00  0.00    +0.000 C 
ATOM     20  C   UNL     1       1.811   2.517  19.420  0.00  0.00    +0.000 C 
ENDBRANCH   1  20
BRANCH  15  21
ATOM     21  O   UNL     1       0.662  10.064  17.594  0.00  0.00    +0.000 OA
ATOM     22  H   UNL     1       1.330  10.367  16.936  0.00  0.00    +0.000 HD
ENDBRANCH  15  21
TORSDOF 2
ENDMDL
MODEL 4
REMARK VINA RESULT:      -7.4      1.276      1.608
REMARK  Name = 
REMARK  3 active torsions:
REMARK  status: ('A' for Active; 'I' for Inactive)
REMARK    1  A    between atoms: C_1  and  C_2
REMARK    2  A    between atoms: C_3  and  N_4
REMARK    3  A    between atoms: C_18  and  O_19
REMARK                            x       y       z     vdW  Elec       q    Type
REMARK                         _______ _______ _______ _____ _____    ______ ____
ROOT
ATOM      1  N   UNL     1       3.634   6.171  18.994  0.00  0.00    +0.000 N 
ATOM      2  C   UNL     1       3.185   5.992  17.574  0.00  0.00    +0.000 C 
ATOM      3  C   UNL     1       3.033   4.529  17.090  0.00  0.00    +0.000 C 
ATOM      4  C   UNL     1       4.055   3.535  17.707  0.00  0.00    +0.000 C 
ATOM      5  C   UNL     1       3.587   2.050  17.584  0.00  0.00    +0.000 C 
ATOM      6  C   UNL     1       2.622   1.656  18.729  0.00  0.00    +0.000 C 
ATOM      7  C   UNL     1       3.282   1.760  20.129  0.00  0.00    +0.000 C 
ATOM      8  C   UNL     1       4.505   2.696  20.109  0.00  0.00    +0.000 C 
ATOM      9  C   UNL     1       4.092   3.862  19.223  0.00  0.00    +0.000 C 
ATOM     10  C   UNL     1       4.696   5.223  19.453  0.00  0.00    +0.000 C 
ATOM     11  C   UNL     1       6.080   5.393  18.806  0.00  0.00    +0.000 C 
ATOM     12  C   UNL     1       6.252   4.800  17.431  0.00  0.00    +0.000 A 
ATOM     13  C   UNL     1       7.304   5.284  16.627  0.00  0.00    +0.000 A 
ATOM     14  C   UNL     1       7.340   4.993  15.269  0.00  0.00    +0.000 A 
ATOM     15  C   UNL     1       6.371   4.156  14.746  0.00  0.00    +0.000 A 
ATOM     16  C   UNL     1       5.446   3.511  15.566  0.00  0.00    +0.000 A 
ATOM     17  C   UNL     1       5.333   3.872  16.926  0.00  0.00    +0.000 A 
ENDROOT
BRANCH   1  20
ATOM     18  C   UNL     1       1.020   4.840  20.642  0.00  0.00    +0.000 C 
ATOM     19  C   UNL     1       1.611   6.206  20.536  0.00  0.00    +0.000 C 
ATOM     20  C   UNL     1       2.669   6.687  19.867  0.00  0.00    +0.000 C 
ENDBRANCH   1  20
BRANCH  15  21
ATOM     21  O   UNL     1       6.240   4.041  13.397  0.00  0.00    +0.000 OA
ATOM     22  H   UNL     1       5.658   3.265  13.222  0.00  0.00    +0.000 HD
ENDBRANCH  15  21
TORSDOF 2
ENDMDL
MODEL 5
REMARK VINA RESULT:      -7.3      2.423      5.006
REMARK  Name = 
REMARK  3 active torsions:
REMARK  status: ('A' for Active; 'I' for Inactive)
REMARK    1  A    between atoms: C_1  and  C_2
REMARK    2  A    between atoms: C_3  and  N_4
REMARK    3  A    between atoms: C_18  and  O_19
REMARK                            x       y       z     vdW  Elec       q    Type
REMARK                         _______ _______ _______ _____ _____    ______ ____
ROOT
ATOM      1  N   UNL     1       6.188   5.818  18.768  0.00  0.00    +0.000 N 
ATOM      2  C   UNL     1       5.979   4.365  19.079  0.00  0.00    +0.000 C 
ATOM      3  C   UNL     1       5.691   3.447  17.866  0.00  0.00    +0.000 C 
ATOM      4  C   UNL     1       4.875   4.117  16.727  0.00  0.00    +0.000 C 
ATOM      5  C   UNL     1       5.016   3.358  15.369  0.00  0.00    +0.000 C 
ATOM      6  C   UNL     1       6.295   3.783  14.605  0.00  0.00    +0.000 C 
ATOM      7  C   UNL     1       6.295   5.288  14.232  0.00  0.00    +0.000 C 
ATOM      8  C   UNL     1       5.332   6.093  15.126  0.00  0.00    +0.000 C 
ATOM      9  C   UNL     1       5.517   5.514  16.521  0.00  0.00    +0.000 C 
ATOM     10  C   UNL     1       5.277   6.386  17.726  0.00  0.00    +0.000 C 
ATOM     11  C   UNL     1       3.795   6.499  18.113  0.00  0.00    +0.000 C 
ATOM     12  C   UNL     1       2.982   5.233  18.022  0.00  0.00    +0.000 A 
ATOM     13  C   UNL     1       1.780   5.161  18.756  0.00  0.00    +0.000 A 
ATOM     14  C   UNL     1       1.144   3.941  18.943  0.00  0.00    +0.000 A 
ATOM     15  C   UNL     1       1.670   2.819  18.327  0.00  0.00    +0.000 A 
ATOM     16  C   UNL     1       2.739   2.911  17.438  0.00  0.00    +0.000 A 
ATOM     17  C   UNL     1       3.457   4.120  17.316  0.00  0.00    +0.000 A 
ENDROOT
BRANCH   1  20
ATOM     18  C   UNL     1       7.882   8.511  17.671  0.00  0.00    +0.000 C 
ATOM     19  C   UNL     1       8.214   7.340  18.534  0.00  0.00    +0.000 C 
ATOM     20  C   UNL     1       7.494   6.288  18.953  0.00  0.00    +0.000 C 
ENDBRANCH   1  20
BRANCH  15  21
ATOM     21  O   UNL     1       1.214   1.586  18.676  0.00  0.00    +0.000 OA
ATOM     22  H   UNL     1       0.266   1.682  18.926  0.00  0.00    +0.000 HD
ENDBRANCH  15  21
TORSDOF 2
ENDMDL
MODEL 6
REMARK VINA RESULT:      -6.8      1.670      3.796
REMARK  Name = 
REMARK  3 active torsions:
REMARK  status: ('A' for Active; 'I' for Inactive)
REMARK    1  A    between atoms: C_1  and  C_2
REMARK    2  A    between atoms: C_3  and  N_4
REMARK    3  A    between atoms: C_18  and  O_19
REMARK                            x       y       z     vdW  Elec       q    Type
REMARK                         _______ _______ _______ _____ _____    ______ ____
ROOT
ATOM      1  N   UNL     1       4.148   3.195  19.345  0.00  0.00    +0.000 N 
ATOM      2  C   UNL     1       5.441   3.951  19.258  0.00  0.00    +0.000 C 
ATOM      3  C   UNL     1       5.333   5.426  18.797  0.00  0.00    +0.000 C 
ATOM      4  C   UNL     1       4.209   5.698  17.760  0.00  0.00    +0.000 C 
ATOM      5  C   UNL     1       3.823   7.210  17.688  0.00  0.00    +0.000 C 
ATOM      6  C   UNL     1       2.802   7.595  18.788  0.00  0.00    +0.000 C 
ATOM      7  C   UNL     1       1.463   6.826  18.656  0.00  0.00    +0.000 C 
ATOM      8  C   UNL     1       1.631   5.532  17.836  0.00  0.00    +0.000 C 
ATOM      9  C   UNL     1       2.960   4.948  18.294  0.00  0.00    +0.000 C 
ATOM     10  C   UNL     1       3.177   3.459  18.238  0.00  0.00    +0.000 C 
ATOM     11  C   UNL     1       3.586   2.953  16.845  0.00  0.00    +0.000 C 
ATOM     12  C   UNL     1       4.567   3.809  16.085  0.00  0.00    +0.000 A 
ATOM     13  C   UNL     1       5.298   3.210  15.040  0.00  0.00    +0.000 A 
ATOM     14  C   UNL     1       6.406   3.853  14.501  0.00  0.00    +0.000 A 
ATOM     15  C   UNL     1       6.721   5.120  14.956  0.00  0.00    +0.000 A 
ATOM     16  C   UNL     1       5.891   5.804  15.842  0.00  0.00    +0.000 A 
ATOM     17  C   UNL     1       4.823   5.130  16.473  0.00  0.00    +0.000 A 
ENDROOT
BRANCH   1  20
ATOM     18  C   UNL     1       1.165   3.171  20.903  0.00  0.00    +0.000 C 
ATOM     19  C   UNL     1       2.566   2.853  21.308  0.00  0.00    +0.000 C 
ATOM     20  C   UNL     1       3.730   2.870  20.641  0.00  0.00    +0.000 C 
ENDBRANCH   1  20
BRANCH  15  21
ATOM     21  O   UNL     1       7.919   5.673  14.624  0.00  0.00    +0.000 OA
ATOM     22  H   UNL     1       7.740   6.411  13.996  0.00  0.00    +0.000 HD
ENDBRANCH  15  21
TORSDOF 2
ENDMDL
MODEL 7
REMARK VINA RESULT:      -6.8      2.591      5.324
REMARK  Name = 
REMARK  3 active torsions:
REMARK  status: ('A' for Active; 'I' for Inactive)
REMARK    1  A    between atoms: C_1  and  C_2
REMARK    2  A    between atoms: C_3  and  N_4
REMARK    3  A    between atoms: C_18  and  O_19
REMARK                            x       y       z     vdW  Elec       q    Type
REMARK                         _______ _______ _______ _____ _____    ______ ____
ROOT
ATOM      1  N   UNL     1       4.621   5.226  17.985  0.00  0.00    +0.000 N 
ATOM      2  C   UNL     1       4.771   5.553  19.441  0.00  0.00    +0.000 C 
ATOM      3  C   UNL     1       3.675   4.989  20.379  0.00  0.00    +0.000 C 
ATOM      4  C   UNL     1       2.258   4.917  19.747  0.00  0.00    +0.000 C 
ATOM      5  C   UNL     1       1.316   3.933  20.511  0.00  0.00    +0.000 C 
ATOM      6  C   UNL     1       1.519   2.469  20.048  0.00  0.00    +0.000 C 
ATOM      7  C   UNL     1       1.186   2.267  18.547  0.00  0.00    +0.000 C 
ATOM      8  C   UNL     1       1.249   3.596  17.769  0.00  0.00    +0.000 C 
ATOM      9  C   UNL     1       2.464   4.321  18.329  0.00  0.00    +0.000 C 
ATOM     10  C   UNL     1       3.223   5.287  17.457  0.00  0.00    +0.000 C 
ATOM     11  C   UNL     1       2.584   6.682  17.393  0.00  0.00    +0.000 C 
ATOM     12  C   UNL     1       2.036   7.227  18.687  0.00  0.00    +0.000 A 
ATOM     13  C   UNL     1       1.849   8.620  18.795  0.00  0.00    +0.000 A 
ATOM     14  C   UNL     1       1.627   9.204  20.036  0.00  0.00    +0.000 A 
ATOM     15  C   UNL     1       1.514   8.383  21.143  0.00  0.00    +0.000 A 
ATOM     16  C   UNL     1       1.496   6.995  21.021  0.00  0.00    +0.000 A 
ATOM     17  C   UNL     1       1.820   6.388  19.789  0.00  0.00    +0.000 A 
ENDROOT
BRANCH   1  20
ATOM     18  C   UNL     1       5.738   4.540  14.886  0.00  0.00    +0.000 C 
ATOM     19  C   UNL     1       6.046   4.025  16.252  0.00  0.00    +0.000 C 
ATOM     20  C   UNL     1       5.575   4.341  17.468  0.00  0.00    +0.000 C 
ENDBRANCH   1  20
BRANCH  15  21
ATOM     21  O   UNL     1       1.532   8.929  22.388  0.00  0.00    +0.000 OA
ATOM     22  H   UNL     1       0.896   8.421  22.943  0.00  0.00    +0.000 HD
ENDBRANCH  15  21
TORSDOF 2
ENDMDL
MODEL 8
REMARK VINA RESULT:      -6.7      7.644      9.524
REMARK  Name = 
REMARK  3 active torsions:
REMARK  status: ('A' for Active; 'I' for Inactive)
REMARK    1  A    between atoms: C_1  and  C_2
REMARK    2  A    between atoms: C_3  and  N_4
REMARK    3  A    between atoms: C_18  and  O_19
REMARK                            x       y       z     vdW  Elec       q    Type
REMARK                         _______ _______ _______ _____ _____    ______ ____
ROOT
ATOM      1  N   UNL     1       0.977  12.290  18.722  0.00  0.00    +0.000 N 
ATOM      2  C   UNL     1      -0.101  13.245  18.301  0.00  0.00    +0.000 C 
ATOM      3  C   UNL     1      -1.330  13.335  19.239  0.00  0.00    +0.000 C 
ATOM      4  C   UNL     1      -1.711  12.001  19.936  0.00  0.00    +0.000 C 
ATOM      5  C   UNL     1      -2.609  12.224  21.195  0.00  0.00    +0.000 C 
ATOM      6  C   UNL     1      -1.764  12.555  22.450  0.00  0.00    +0.000 C 
ATOM      7  C   UNL     1      -0.796  11.408  22.839  0.00  0.00    +0.000 C 
ATOM      8  C   UNL     1      -0.517  10.474  21.645  0.00  0.00    +0.000 C 
ATOM      9  C   UNL     1      -0.374  11.402  20.447  0.00  0.00    +0.000 C 
ATOM     10  C   UNL     1       0.496  10.992  19.287  0.00  0.00    +0.000 C 
ATOM     11  C   UNL     1      -0.206  10.044  18.303  0.00  0.00    +0.000 C 
ATOM     12  C   UNL     1      -1.648  10.353  17.990  0.00  0.00    +0.000 A 
ATOM     13  C   UNL     1      -2.200   9.819  16.808  0.00  0.00    +0.000 A 
ATOM     14  C   UNL     1      -3.412  10.295  16.323  0.00  0.00    +0.000 A 
ATOM     15  C   UNL     1      -4.098  11.238  17.066  0.00  0.00    +0.000 A 
ATOM     16  C   UNL     1      -3.662  11.625  18.332  0.00  0.00    +0.000 A 
ATOM     17  C   UNL     1      -2.388  11.231  18.794  0.00  0.00    +0.000 A 
ENDROOT
BRANCH   1  20
ATOM     18  C   UNL     1       1.846  14.234  21.326  0.00  0.00    +0.000 C 
ATOM     19  C   UNL     1       2.568  13.669  20.150  0.00  0.00    +0.000 C 
ATOM     20  C   UNL     1       2.175  12.885  19.135  0.00  0.00    +0.000 C 
ENDBRANCH   1  20
BRANCH  15  21
ATOM     21  O   UNL     1      -5.156  11.889  16.512  0.00  0.00    +0.000 OA
ATOM     22  H   UNL     1      -5.585  11.269  15.878  0.00  0.00    +0.000 HD
ENDBRANCH  15  21
TORSDOF 2
ENDMDL
MODEL 9
REMARK VINA RESULT:      -6.7      2.338      4.710
REMARK  Name = 
REMARK  3 active torsions:
REMARK  status: ('A' for Active; 'I' for Inactive)
REMARK    1  A    between atoms: C_1  and  C_2
REMARK    2  A    between atoms: C_3  and  N_4
REMARK    3  A    between atoms: C_18  and  O_19
REMARK                            x       y       z     vdW  Elec       q    Type
REMARK                         _______ _______ _______ _____ _____    ______ ____
ROOT
ATOM      1  N   UNL     1       2.226   7.138  18.200  0.00  0.00    +0.000 N 
ATOM      2  C   UNL     1       2.432   6.911  19.669  0.00  0.00    +0.000 C 
ATOM      3  C   UNL     1       3.676   6.075  20.058  0.00  0.00    +0.000 C 
ATOM      4  C   UNL     1       4.044   4.956  19.045  0.00  0.00    +0.000 C 
ATOM      5  C   UNL     1       5.520   4.472  19.207  0.00  0.00    +0.000 C 
ATOM      6  C   UNL     1       6.510   5.388  18.445  0.00  0.00    +0.000 C 
ATOM      7  C   UNL     1       6.252   5.404  16.916  0.00  0.00    +0.000 C 
ATOM      8  C   UNL     1       4.815   4.961  16.580  0.00  0.00    +0.000 C 
ATOM      9  C   UNL     1       3.945   5.613  17.644  0.00  0.00    +0.000 C 
ATOM     10  C   UNL     1       2.514   5.960  17.325  0.00  0.00    +0.000 C 
ATOM     11  C   UNL     1       1.553   4.768  17.457  0.00  0.00    +0.000 C 
ATOM     12  C   UNL     1       1.781   3.853  18.633  0.00  0.00    +0.000 A 
ATOM     13  C   UNL     1       0.714   3.034  19.054  0.00  0.00    +0.000 A 
ATOM     14  C   UNL     1       0.764   2.393  20.286  0.00  0.00    +0.000 A 
ATOM     15  C   UNL     1       1.914   2.512  21.047  0.00  0.00    +0.000 A 
ATOM     16  C   UNL     1       3.050   3.152  20.555  0.00  0.00    +0.000 A 
ATOM     17  C   UNL     1       2.982   3.891  19.354  0.00  0.00    +0.000 A 
ENDROOT
BRANCH   1  20
ATOM     18  C   UNL     1       0.415   9.964  18.428  0.00  0.00    +0.000 C 
ATOM     19  C   UNL     1       1.729   9.604  17.821  0.00  0.00    +0.000 C 
ATOM     20  C   UNL     1       2.418   8.455  17.765  0.00  0.00    +0.000 C 
ENDBRANCH   1  20
BRANCH  15  21
ATOM     21  O   UNL     1       1.906   2.099  22.343  0.00  0.00    +0.000 OA
ATOM     22  H   UNL     1       1.079   1.582  22.483  0.00  0.00    +0.000 HD
ENDBRANCH  15  21
TORSDOF 2
ENDMDL
