MODEL 1
REMARK VINA RESULT:      -8.8      0.000      0.000
REMARK  Name = 
REMARK  5 active torsions:
REMARK  status: ('A' for Active; 'I' for Inactive)
REMARK    1  A    between atoms: C_1  and  O_2
REMARK    2  A    between atoms: O_2  and  C_3
REMARK    3  A    between atoms: C_6  and  C_7
REMARK    4  A    between atoms: C_8  and  O_9
REMARK    5  A    between atoms: C_12  and  C_13
REMARK                            x       y       z     vdW  Elec       q    Type
REMARK                         _______ _______ _______ _____ _____    ______ ____
ROOT
ATOM      1  C   UNL     1       2.933   6.882  18.534  0.00  0.00    +0.000 C 
ATOM      2  C   UNL     1       2.494   6.616  19.776  0.00  0.00    +0.000 C 
ATOM      3  O   UNL     1       1.622   7.557  20.328  0.00  0.00    +0.000 OA
ATOM      4  C   UNL     1       1.496   8.553  19.383  0.00  0.00    +0.000 C 
ATOM      5  C   UNL     1       0.885   9.739  19.544  0.00  0.00    +0.000 C 
ATOM      6  C   UNL     1       2.254   8.159  18.177  0.00  0.00    +0.000 C 
ATOM      7  O   UNL     1       2.365   8.761  17.122  0.00  0.00    +0.000 OA
ENDROOT
BRANCH   5   8
ATOM      8  C   UNL     1       0.339  10.155  20.849  0.00  0.00    +0.000 A 
ATOM      9  C   UNL     1       0.528   9.268  21.920  0.00  0.00    +0.000 A 
ATOM     10  C   UNL     1      -0.080   9.498  23.152  0.00  0.00    +0.000 A 
ATOM     11  C   UNL     1      -0.954  10.569  23.298  0.00  0.00    +0.000 A 
ATOM     12  C   UNL     1      -1.200  11.429  22.223  0.00  0.00    +0.000 A 
ATOM     13  C   UNL     1      -2.263  12.334  22.288  0.00  0.00    +0.000 A 
ATOM     14  C   UNL     1      -2.572  13.126  21.187  0.00  0.00    +0.000 A 
ATOM     15  C   UNL     1      -1.660  13.250  20.150  0.00  0.00    +0.000 A 
ATOM     16  C   UNL     1      -0.627  12.321  20.046  0.00  0.00    +0.000 A 
ATOM     17  C   UNL     1      -0.463  11.307  21.018  0.00  0.00    +0.000 A 
ENDBRANCH   5   8
BRANCH   1  21
ATOM     18  C   UNL     1       5.712   4.682  16.173  0.00  0.00    +0.000 A 
ATOM     19  C   UNL     1       5.966   6.027  16.474  0.00  0.00    +0.000 A 
ATOM     20  C   UNL     1       5.079   6.760  17.267  0.00  0.00    +0.000 A 
ATOM     21  C   UNL     1       3.899   6.154  17.733  0.00  0.00    +0.000 A 
ATOM     22  C   UNL     1       3.638   4.817  17.401  0.00  0.00    +0.000 A 
ATOM     23  C   UNL     1       4.529   4.089  16.618  0.00  0.00    +0.000 A 
BRANCH  18  25
ATOM     24  C   UNL     1       6.422   4.111  13.997  0.00  0.00    +0.000 C 
ATOM     25  O   UNL     1       6.661   4.073  15.400  0.00  0.00    +0.000 OA
ENDBRANCH  18  25
ENDBRANCH   1  21
BRANCH   2  26
ATOM     26  O   UNL     1       2.869   5.520  20.505  0.00  0.00    +0.000 OA
ATOM     27  H   UNL     1       2.736   5.718  21.449  0.00  0.00    +0.000 HD
ENDBRANCH   2  26
TORSDOF 4
ENDMDL
MODEL 2
REMARK VINA RESULT:      -8.7      2.985      9.397
REMARK  Name = 
REMARK  5 active torsions:
REMARK  status: ('A' for Active; 'I' for Inactive)
REMARK    1  A    between atoms: C_1  and  O_2
REMARK    2  A    between atoms: O_2  and  C_3
REMARK    3  A    between atoms: C_6  and  C_7
REMARK    4  A    between atoms: C_8  and  O_9
REMARK    5  A    between atoms: C_12  and  C_13
REMARK                            x       y       z     vdW  Elec       q    Type
REMARK                         _______ _______ _______ _____ _____    ______ ____
ROOT
ATOM      1  C   UNL     1      -0.440  10.808  21.618  0.00  0.00    +0.000 C 
ATOM      2  C   UNL     1      -0.518  10.442  20.327  0.00  0.00    +0.000 C 
ATOM      3  O   UNL     1       0.118   9.244  19.995  0.00  0.00    +0.000 OA
ATOM      4  C   UNL     1       0.699   8.790  21.160  0.00  0.00    +0.000 C 
ATOM      5  C   UNL     1       1.550   7.758  21.283  0.00  0.00    +0.000 C 
ATOM      6  C   UNL     1       0.328   9.705  22.260  0.00  0.00    +0.000 C 
ATOM      7  O   UNL     1       0.624   9.629  23.441  0.00  0.00    +0.000 OA
ENDROOT
BRANCH   5   8
ATOM      8  C   UNL     1       2.049   7.024  20.106  0.00  0.00    +0.000 A 
ATOM      9  C   UNL     1       2.526   7.800  19.039  0.00  0.00    +0.000 A 
ATOM     10  C   UNL     1       2.876   7.209  17.827  0.00  0.00    +0.000 A 
ATOM     11  C   UNL     1       2.666   5.848  17.640  0.00  0.00    +0.000 A 
ATOM     12  C   UNL     1       2.135   5.069  18.673  0.00  0.00    +0.000 A 
ATOM     13  C   UNL     1       1.683   3.774  18.404  0.00  0.00    +0.000 A 
ATOM     14  C   UNL     1       1.068   3.029  19.404  0.00  0.00    +0.000 A 
ATOM     15  C   UNL     1       1.175   3.431  20.727  0.00  0.00    +0.000 A 
ATOM     16  C   UNL     1       1.573   4.737  21.005  0.00  0.00    +0.000 A 
ATOM     17  C   UNL     1       1.933   5.622  19.963  0.00  0.00    +0.000 A 
ENDBRANCH   5   8
BRANCH   1  21
ATOM     18  C   UNL     1      -1.784  14.418  23.434  0.00  0.00    +0.000 A 
ATOM     19  C   UNL     1      -2.518  13.237  23.606  0.00  0.00    +0.000 A 
ATOM     20  C   UNL     1      -2.082  12.037  23.039  0.00  0.00    +0.000 A 
ATOM     21  C   UNL     1      -0.917  12.022  22.252  0.00  0.00    +0.000 A 
ATOM     22  C   UNL     1      -0.206  13.215  22.059  0.00  0.00    +0.000 A 
ATOM     23  C   UNL     1      -0.640  14.406  22.634  0.00  0.00    +0.000 A 
BRANCH  18  25
ATOM     24  C   UNL     1      -2.972  15.274  25.283  0.00  0.00    +0.000 C 
ATOM     25  O   UNL     1      -2.309  15.521  24.048  0.00  0.00    +0.000 OA
ENDBRANCH  18  25
ENDBRANCH   1  21
BRANCH   2  26
ATOM     26  O   UNL     1      -1.147  11.175  19.357  0.00  0.00    +0.000 OA
ATOM     27  H   UNL     1      -0.485  11.740  18.921  0.00  0.00    +0.000 HD
ENDBRANCH   2  26
TORSDOF 4
ENDMDL
MODEL 3
REMARK VINA RESULT:      -8.7      3.125      9.514
REMARK  Name = 
REMARK  5 active torsions:
REMARK  status: ('A' for Active; 'I' for Inactive)
REMARK    1  A    between atoms: C_1  and  O_2
REMARK    2  A    between atoms: O_2  and  C_3
REMARK    3  A    between atoms: C_6  and  C_7
REMARK    4  A    between atoms: C_8  and  O_9
REMARK    5  A    between atoms: C_12  and  C_13
REMARK                            x       y       z     vdW  Elec       q    Type
REMARK                         _______ _______ _______ _____ _____    ______ ____
ROOT
ATOM      1  C   UNL     1      -0.714  11.031  21.803  0.00  0.00    +0.000 C 
ATOM      2  C   UNL     1      -0.726  10.752  20.489  0.00  0.00    +0.000 C 
ATOM      3  O   UNL     1      -0.053   9.590  20.107  0.00  0.00    +0.000 OA
ATOM      4  C   UNL     1       0.483   9.068  21.266  0.00  0.00    +0.000 C 
ATOM      5  C   UNL     1       1.347   8.043  21.359  0.00  0.00    +0.000 C 
ATOM      6  C   UNL     1       0.045   9.900  22.406  0.00  0.00    +0.000 C 
ATOM      7  O   UNL     1       0.288   9.749  23.591  0.00  0.00    +0.000 OA
ENDROOT
BRANCH   5   8
ATOM      8  C   UNL     1       1.914   7.400  20.160  0.00  0.00    +0.000 A 
ATOM      9  C   UNL     1       2.327   8.253  19.125  0.00  0.00    +0.000 A 
ATOM     10  C   UNL     1       2.732   7.739  17.895  0.00  0.00    +0.000 A 
ATOM     11  C   UNL     1       2.642   6.372  17.658  0.00  0.00    +0.000 A 
ATOM     12  C   UNL     1       2.176   5.513  18.658  0.00  0.00    +0.000 A 
ATOM     13  C   UNL     1       1.839   4.194  18.339  0.00  0.00    +0.000 A 
ATOM     14  C   UNL     1       1.287   3.363  19.307  0.00  0.00    +0.000 A 
ATOM     15  C   UNL     1       1.352   3.723  20.644  0.00  0.00    +0.000 A 
ATOM     16  C   UNL     1       1.634   5.048  20.972  0.00  0.00    +0.000 A 
ATOM     17  C   UNL     1       1.920   5.999  19.965  0.00  0.00    +0.000 A 
ENDBRANCH   5   8
BRANCH   1  21
ATOM     18  C   UNL     1      -2.331  14.390  23.864  0.00  0.00    +0.000 A 
ATOM     19  C   UNL     1      -1.061  14.478  23.278  0.00  0.00    +0.000 A 
ATOM     20  C   UNL     1      -0.522  13.396  22.576  0.00  0.00    +0.000 A 
ATOM     21  C   UNL     1      -1.244  12.192  22.494  0.00  0.00    +0.000 A 
ATOM     22  C   UNL     1      -2.500  12.103  23.110  0.00  0.00    +0.000 A 
ATOM     23  C   UNL     1      -3.036  13.187  23.799  0.00  0.00    +0.000 A 
BRANCH  18  25
ATOM     24  C   UNL     1      -4.157  15.738  24.507  0.00  0.00    +0.000 C 
ATOM     25  O   UNL     1      -2.750  15.520  24.510  0.00  0.00    +0.000 OA
ENDBRANCH  18  25
ENDBRANCH   1  21
BRANCH   2  26
ATOM     26  O   UNL     1      -1.325  11.538  19.542  0.00  0.00    +0.000 OA
ATOM     27  H   UNL     1      -2.185  11.143  19.313  0.00  0.00    +0.000 HD
ENDBRANCH   2  26
TORSDOF 4
ENDMDL
MODEL 4
REMARK VINA RESULT:      -8.6      0.763      1.227
REMARK  Name = 
REMARK  5 active torsions:
REMARK  status: ('A' for Active; 'I' for Inactive)
REMARK    1  A    between atoms: C_1  and  O_2
REMARK    2  A    between atoms: O_2  and  C_3
REMARK    3  A    between atoms: C_6  and  C_7
REMARK    4  A    between atoms: C_8  and  O_9
REMARK    5  A    between atoms: C_12  and  C_13
REMARK                            x       y       z     vdW  Elec       q    Type
REMARK                         _______ _______ _______ _____ _____    ______ ____
ROOT
ATOM      1  C   UNL     1       2.930   6.880  18.499  0.00  0.00    +0.000 C 
ATOM      2  C   UNL     1       2.531   6.608  19.754  0.00  0.00    +0.000 C 
ATOM      3  O   UNL     1       1.675   7.544  20.336  0.00  0.00    +0.000 OA
ATOM      4  C   UNL     1       1.515   8.543  19.399  0.00  0.00    +0.000 C 
ATOM      5  C   UNL     1       0.906   9.726  19.584  0.00  0.00    +0.000 C 
ATOM      6  C   UNL     1       2.236   8.156  18.169  0.00  0.00    +0.000 C 
ATOM      7  O   UNL     1       2.312   8.762  17.113  0.00  0.00    +0.000 OA
ENDROOT
BRANCH   5   8
ATOM      8  C   UNL     1       0.400  10.136  20.907  0.00  0.00    +0.000 A 
ATOM      9  C   UNL     1      -0.038   9.109  21.757  0.00  0.00    +0.000 A 
ATOM     10  C   UNL     1      -0.672   9.402  22.963  0.00  0.00    +0.000 A 
ATOM     11  C   UNL     1      -0.954  10.725  23.287  0.00  0.00    +0.000 A 
ATOM     12  C   UNL     1      -0.577  11.757  22.423  0.00  0.00    +0.000 A 
ATOM     13  C   UNL     1      -1.086  13.045  22.617  0.00  0.00    +0.000 A 
ATOM     14  C   UNL     1      -0.791  14.055  21.707  0.00  0.00    +0.000 A 
ATOM     15  C   UNL     1       0.238  13.881  20.794  0.00  0.00    +0.000 A 
ATOM     16  C   UNL     1       0.716  12.594  20.555  0.00  0.00    +0.000 A 
ATOM     17  C   UNL     1       0.214  11.488  21.278  0.00  0.00    +0.000 A 
ENDBRANCH   5   8
BRANCH   1  21
ATOM     18  C   UNL     1       5.753   4.828  16.058  0.00  0.00    +0.000 A 
ATOM     19  C   UNL     1       4.630   4.147  16.547  0.00  0.00    +0.000 A 
ATOM     20  C   UNL     1       3.679   4.807  17.329  0.00  0.00    +0.000 A 
ATOM     21  C   UNL     1       3.873   6.159  17.665  0.00  0.00    +0.000 A 
ATOM     22  C   UNL     1       5.015   6.824  17.197  0.00  0.00    +0.000 A 
ATOM     23  C   UNL     1       5.954   6.164  16.410  0.00  0.00    +0.000 A 
BRANCH  18  25
ATOM     24  C   UNL     1       7.131   4.727  14.146  0.00  0.00    +0.000 C 
ATOM     25  O   UNL     1       6.600   4.074  15.295  0.00  0.00    +0.000 OA
ENDBRANCH  18  25
ENDBRANCH   1  21
BRANCH   2  26
ATOM     26  O   UNL     1       2.933   5.511  20.466  0.00  0.00    +0.000 OA
ATOM     27  H   UNL     1       2.312   5.379  21.205  0.00  0.00    +0.000 HD
ENDBRANCH   2  26
TORSDOF 4
ENDMDL
MODEL 5
REMARK VINA RESULT:      -8.6      2.224      8.752
REMARK  Name = 
REMARK  5 active torsions:
REMARK  status: ('A' for Active; 'I' for Inactive)
REMARK    1  A    between atoms: C_1  and  O_2
REMARK    2  A    between atoms: O_2  and  C_3
REMARK    3  A    between atoms: C_6  and  C_7
REMARK    4  A    between atoms: C_8  and  O_9
REMARK    5  A    between atoms: C_12  and  C_13
REMARK                            x       y       z     vdW  Elec       q    Type
REMARK                         _______ _______ _______ _____ _____    ______ ____
ROOT
ATOM      1  C   UNL     1       0.808   9.647  19.566  0.00  0.00    +0.000 C 
ATOM      2  C   UNL     1       1.178   8.589  20.309  0.00  0.00    +0.000 C 
ATOM      3  O   UNL     1       2.138   7.752  19.738  0.00  0.00    +0.000 OA
ATOM      4  C   UNL     1       2.406   8.279  18.493  0.00  0.00    +0.000 C 
ATOM      5  C   UNL     1       3.147   7.714  17.524  0.00  0.00    +0.000 C 
ATOM      6  C   UNL     1       1.640   9.534  18.336  0.00  0.00    +0.000 C 
ATOM      7  O   UNL     1       1.630  10.301  17.389  0.00  0.00    +0.000 OA
ENDROOT
BRANCH   5   8
ATOM      8  C   UNL     1       3.701   6.356  17.670  0.00  0.00    +0.000 A 
ATOM      9  C   UNL     1       2.782   5.327  17.926  0.00  0.00    +0.000 A 
ATOM     10  C   UNL     1       3.219   4.039  18.229  0.00  0.00    +0.000 A 
ATOM     11  C   UNL     1       4.579   3.790  18.369  0.00  0.00    +0.000 A 
ATOM     12  C   UNL     1       5.507   4.818  18.176  0.00  0.00    +0.000 A 
ATOM     13  C   UNL     1       6.836   4.636  18.569  0.00  0.00    +0.000 A 
ATOM     14  C   UNL     1       7.743   5.686  18.467  0.00  0.00    +0.000 A 
ATOM     15  C   UNL     1       7.425   6.799  17.703  0.00  0.00    +0.000 A 
ATOM     16  C   UNL     1       6.094   7.018  17.352  0.00  0.00    +0.000 A 
ATOM     17  C   UNL     1       5.089   6.088  17.704  0.00  0.00    +0.000 A 
ENDBRANCH   5   8
BRANCH   1  21
ATOM     18  C   UNL     1      -2.242  12.526  20.306  0.00  0.00    +0.000 A 
ATOM     19  C   UNL     1      -1.164  12.409  21.194  0.00  0.00    +0.000 A 
ATOM     20  C   UNL     1      -0.141  11.488  20.957  0.00  0.00    +0.000 A 
ATOM     21  C   UNL     1      -0.214  10.640  19.839  0.00  0.00    +0.000 A 
ATOM     22  C   UNL     1      -1.312  10.742  18.972  0.00  0.00    +0.000 A 
ATOM     23  C   UNL     1      -2.324  11.668  19.207  0.00  0.00    +0.000 A 
BRANCH  18  25
ATOM     24  C   UNL     1      -4.522  13.025  20.651  0.00  0.00    +0.000 C 
ATOM     25  O   UNL     1      -3.170  13.472  20.642  0.00  0.00    +0.000 OA
ENDBRANCH  18  25
ENDBRANCH   1  21
BRANCH   2  26
ATOM     26  O   UNL     1       0.658   8.296  21.540  0.00  0.00    +0.000 OA
ATOM     27  H   UNL     1      -0.139   8.839  21.675  0.00  0.00    +0.000 HD
ENDBRANCH   2  26
TORSDOF 4
ENDMDL
MODEL 6
REMARK VINA RESULT:      -8.4      2.356      8.551
REMARK  Name = 
REMARK  5 active torsions:
REMARK  status: ('A' for Active; 'I' for Inactive)
REMARK    1  A    between atoms: C_1  and  O_2
REMARK    2  A    between atoms: O_2  and  C_3
REMARK    3  A    between atoms: C_6  and  C_7
REMARK    4  A    between atoms: C_8  and  O_9
REMARK    5  A    between atoms: C_12  and  C_13
REMARK                            x       y       z     vdW  Elec       q    Type
REMARK                         _______ _______ _______ _____ _____    ______ ____
ROOT
ATOM      1  C   UNL     1       0.832   9.404  19.675  0.00  0.00    +0.000 C 
ATOM      2  C   UNL     1       1.304   8.579  20.625  0.00  0.00    +0.000 C 
ATOM      3  O   UNL     1       2.259   7.652  20.207  0.00  0.00    +0.000 OA
ATOM      4  C   UNL     1       2.413   7.855  18.852  0.00  0.00    +0.000 C 
ATOM      5  C   UNL     1       3.109   7.085  17.999  0.00  0.00    +0.000 C 
ATOM      6  C   UNL     1       1.580   9.008  18.449  0.00  0.00    +0.000 C 
ATOM      7  O   UNL     1       1.467   9.511  17.344  0.00  0.00    +0.000 OA
ENDROOT
BRANCH   5   8
ATOM      8  C   UNL     1       3.736   5.823  18.434  0.00  0.00    +0.000 A 
ATOM      9  C   UNL     1       5.135   5.821  18.540  0.00  0.00    +0.000 A 
ATOM     10  C   UNL     1       5.830   4.640  18.794  0.00  0.00    +0.000 A 
ATOM     11  C   UNL     1       5.138   3.435  18.855  0.00  0.00    +0.000 A 
ATOM     12  C   UNL     1       3.750   3.411  18.692  0.00  0.00    +0.000 A 
ATOM     13  C   UNL     1       3.096   2.192  18.491  0.00  0.00    +0.000 A 
ATOM     14  C   UNL     1       1.729   2.169  18.234  0.00  0.00    +0.000 A 
ATOM     15  C   UNL     1       0.963   3.299  18.479  0.00  0.00    +0.000 A 
ATOM     16  C   UNL     1       1.602   4.528  18.627  0.00  0.00    +0.000 A 
ATOM     17  C   UNL     1       3.013   4.619  18.601  0.00  0.00    +0.000 A 
ENDBRANCH   5   8
BRANCH   1  21
ATOM     18  C   UNL     1      -2.284  12.299  19.903  0.00  0.00    +0.000 A 
ATOM     19  C   UNL     1      -1.246  12.317  20.845  0.00  0.00    +0.000 A 
ATOM     20  C   UNL     1      -0.202  11.392  20.774  0.00  0.00    +0.000 A 
ATOM     21  C   UNL     1      -0.214  10.405  19.772  0.00  0.00    +0.000 A 
ATOM     22  C   UNL     1      -1.272  10.376  18.852  0.00  0.00    +0.000 A 
ATOM     23  C   UNL     1      -2.305  11.305  18.922  0.00  0.00    +0.000 A 
BRANCH  18  25
ATOM     24  C   UNL     1      -4.544  12.783  20.372  0.00  0.00    +0.000 C 
ATOM     25  O   UNL     1      -3.238  13.263  20.074  0.00  0.00    +0.000 OA
ENDBRANCH  18  25
ENDBRANCH   1  21
BRANCH   2  26
ATOM     26  O   UNL     1       0.886   8.591  21.929  0.00  0.00    +0.000 OA
ATOM     27  H   UNL     1       1.504   8.053  22.455  0.00  0.00    +0.000 HD
ENDBRANCH   2  26
TORSDOF 4
ENDMDL
MODEL 7
REMARK VINA RESULT:      -8.4      2.238      8.814
REMARK  Name = 
REMARK  5 active torsions:
REMARK  status: ('A' for Active; 'I' for Inactive)
REMARK    1  A    between atoms: C_1  and  O_2
REMARK    2  A    between atoms: O_2  and  C_3
REMARK    3  A    between atoms: C_6  and  C_7
REMARK    4  A    between atoms: C_8  and  O_9
REMARK    5  A    between atoms: C_12  and  C_13
REMARK                            x       y       z     vdW  Elec       q    Type
REMARK                         _______ _______ _______ _____ _____    ______ ____
ROOT
ATOM      1  C   UNL     1       0.820   9.697  19.605  0.00  0.00    +0.000 C 
ATOM      2  C   UNL     1       1.184   8.635  20.343  0.00  0.00    +0.000 C 
ATOM      3  O   UNL     1       2.123   7.782  19.760  0.00  0.00    +0.000 OA
ATOM      4  C   UNL     1       2.382   8.305  18.510  0.00  0.00    +0.000 C 
ATOM      5  C   UNL     1       3.101   7.728  17.532  0.00  0.00    +0.000 C 
ATOM      6  C   UNL     1       1.634   9.571  18.364  0.00  0.00    +0.000 C 
ATOM      7  O   UNL     1       1.622  10.338  17.416  0.00  0.00    +0.000 OA
ENDROOT
BRANCH   5   8
ATOM      8  C   UNL     1       3.636   6.361  17.671  0.00  0.00    +0.000 A 
ATOM      9  C   UNL     1       2.706   5.348  17.950  0.00  0.00    +0.000 A 
ATOM     10  C   UNL     1       3.128   4.055  18.249  0.00  0.00    +0.000 A 
ATOM     11  C   UNL     1       4.487   3.784  18.361  0.00  0.00    +0.000 A 
ATOM     12  C   UNL     1       5.427   4.796  18.144  0.00  0.00    +0.000 A 
ATOM     13  C   UNL     1       6.761   4.593  18.509  0.00  0.00    +0.000 A 
ATOM     14  C   UNL     1       7.682   5.628  18.384  0.00  0.00    +0.000 A 
ATOM     15  C   UNL     1       7.366   6.743  17.623  0.00  0.00    +0.000 A 
ATOM     16  C   UNL     1       6.032   6.983  17.299  0.00  0.00    +0.000 A 
ATOM     17  C   UNL     1       5.020   6.071  17.676  0.00  0.00    +0.000 A 
ENDBRANCH   5   8
BRANCH   1  21
ATOM     18  C   UNL     1      -2.070  12.695  20.500  0.00  0.00    +0.000 A 
ATOM     19  C   UNL     1      -2.267  11.843  19.405  0.00  0.00    +0.000 A 
ATOM     20  C   UNL     1      -1.344  10.837  19.109  0.00  0.00    +0.000 A 
ATOM     21  C   UNL     1      -0.183  10.706  19.891  0.00  0.00    +0.000 A 
ATOM     22  C   UNL     1       0.022  11.583  20.965  0.00  0.00    +0.000 A 
ATOM     23  C   UNL     1      -0.906  12.577  21.263  0.00  0.00    +0.000 A 
BRANCH  18  25
ATOM     24  C   UNL     1      -3.579  13.696  22.012  0.00  0.00    +0.000 C 
ATOM     25  O   UNL     1      -3.050  13.628  20.692  0.00  0.00    +0.000 OA
ENDBRANCH  18  25
ENDBRANCH   1  21
BRANCH   2  26
ATOM     26  O   UNL     1       0.676   8.349  21.581  0.00  0.00    +0.000 OA
ATOM     27  H   UNL     1      -0.282   8.199  21.494  0.00  0.00    +0.000 HD
ENDBRANCH   2  26
TORSDOF 4
ENDMDL
MODEL 8
REMARK VINA RESULT:      -8.4      2.737      8.923
REMARK  Name = 
REMARK  5 active torsions:
REMARK  status: ('A' for Active; 'I' for Inactive)
REMARK    1  A    between atoms: C_1  and  O_2
REMARK    2  A    between atoms: O_2  and  C_3
REMARK    3  A    between atoms: C_6  and  C_7
REMARK    4  A    between atoms: C_8  and  O_9
REMARK    5  A    between atoms: C_12  and  C_13
REMARK                            x       y       z     vdW  Elec       q    Type
REMARK                         _______ _______ _______ _____ _____    ______ ____
ROOT
ATOM      1  C   UNL     1       0.682  10.653  20.629  0.00  0.00    +0.000 C 
ATOM      2  C   UNL     1       0.775  10.235  19.355  0.00  0.00    +0.000 C 
ATOM      3  O   UNL     1       1.171   8.908  19.178  0.00  0.00    +0.000 OA
ATOM      4  C   UNL     1       1.393   8.409  20.444  0.00  0.00    +0.000 C 
ATOM      5  C   UNL     1       1.942   7.222  20.754  0.00  0.00    +0.000 C 
ATOM      6  C   UNL     1       1.036   9.449  21.431  0.00  0.00    +0.000 C 
ATOM      7  O   UNL     1       1.070   9.382  22.648  0.00  0.00    +0.000 OA
ENDROOT
BRANCH   5   8
ATOM      8  C   UNL     1       2.479   6.325  19.714  0.00  0.00    +0.000 A 
ATOM      9  C   UNL     1       3.305   6.912  18.744  0.00  0.00    +0.000 A 
ATOM     10  C   UNL     1       3.736   6.183  17.638  0.00  0.00    +0.000 A 
ATOM     11  C   UNL     1       3.271   4.887  17.445  0.00  0.00    +0.000 A 
ATOM     12  C   UNL     1       2.399   4.307  18.372  0.00  0.00    +0.000 A 
ATOM     13  C   UNL     1       1.733   3.121  18.050  0.00  0.00    +0.000 A 
ATOM     14  C   UNL     1       0.794   2.589  18.927  0.00  0.00    +0.000 A 
ATOM     15  C   UNL     1       0.738   3.045  20.236  0.00  0.00    +0.000 A 
ATOM     16  C   UNL     1       1.354   4.253  20.556  0.00  0.00    +0.000 A 
ATOM     17  C   UNL     1       2.087   4.973  19.584  0.00  0.00    +0.000 A 
ENDBRANCH   5   8
BRANCH   1  21
ATOM     18  C   UNL     1      -0.260  14.516  22.157  0.00  0.00    +0.000 A 
ATOM     19  C   UNL     1       0.933  14.319  21.447  0.00  0.00    +0.000 A 
ATOM     20  C   UNL     1       1.249  13.066  20.917  0.00  0.00    +0.000 A 
ATOM     21  C   UNL     1       0.383  11.980  21.134  0.00  0.00    +0.000 A 
ATOM     22  C   UNL     1      -0.793  12.179  21.871  0.00  0.00    +0.000 A 
ATOM     23  C   UNL     1      -1.108  13.431  22.390  0.00  0.00    +0.000 A 
BRANCH  18  25
ATOM     24  C   UNL     1      -1.637  15.981  23.390  0.00  0.00    +0.000 C 
ATOM     25  O   UNL     1      -0.459  15.789  22.613  0.00  0.00    +0.000 OA
ENDBRANCH  18  25
ENDBRANCH   1  21
BRANCH   2  26
ATOM     26  O   UNL     1       0.533  11.028  18.266  0.00  0.00    +0.000 OA
ATOM     27  H   UNL     1       1.286  10.948  17.653  0.00  0.00    +0.000 HD
ENDBRANCH   2  26
TORSDOF 4
ENDMDL
MODEL 9
REMARK VINA RESULT:      -8.4      2.791      9.096
REMARK  Name = 
REMARK  5 active torsions:
REMARK  status: ('A' for Active; 'I' for Inactive)
REMARK    1  A    between atoms: C_1  and  O_2
REMARK    2  A    between atoms: O_2  and  C_3
REMARK    3  A    between atoms: C_6  and  C_7
REMARK    4  A    between atoms: C_8  and  O_9
REMARK    5  A    between atoms: C_12  and  C_13
REMARK                            x       y       z     vdW  Elec       q    Type
REMARK                         _______ _______ _______ _____ _____    ______ ____
ROOT
ATOM      1  C   UNL     1       0.258  10.663  21.135  0.00  0.00    +0.000 C 
ATOM      2  C   UNL     1       0.241  10.276  19.848  0.00  0.00    +0.000 C 
ATOM      3  O   UNL     1       0.740   8.999  19.590  0.00  0.00    +0.000 OA
ATOM      4  C   UNL     1       1.158   8.505  20.808  0.00  0.00    +0.000 C 
ATOM      5  C   UNL     1       1.854   7.375  21.020  0.00  0.00    +0.000 C 
ATOM      6  C   UNL     1       0.820   9.488  21.858  0.00  0.00    +0.000 C 
ATOM      7  O   UNL     1       1.003   9.406  23.060  0.00  0.00    +0.000 OA
ENDROOT
BRANCH   5   8
ATOM      8  C   UNL     1       2.349   6.552  19.901  0.00  0.00    +0.000 A 
ATOM      9  C   UNL     1       3.045   7.226  18.886  0.00  0.00    +0.000 A 
ATOM     10  C   UNL     1       3.419   6.567  17.717  0.00  0.00    +0.000 A 
ATOM     11  C   UNL     1       3.021   5.250  17.514  0.00  0.00    +0.000 A 
ATOM     12  C   UNL     1       2.276   4.581  18.490  0.00  0.00    +0.000 A 
ATOM     13  C   UNL     1       1.659   3.366  18.179  0.00  0.00    +0.000 A 
ATOM     14  C   UNL     1       0.840   2.742  19.114  0.00  0.00    +0.000 A 
ATOM     15  C   UNL     1       0.874   3.147  20.440  0.00  0.00    +0.000 A 
ATOM     16  C   UNL     1       1.439   4.381  20.753  0.00  0.00    +0.000 A 
ATOM     17  C   UNL     1       2.033   5.182  19.751  0.00  0.00    +0.000 A 
ENDBRANCH   5   8
BRANCH   1  21
ATOM     18  C   UNL     1      -0.767  14.467  22.755  0.00  0.00    +0.000 A 
ATOM     19  C   UNL     1      -1.480  13.326  23.150  0.00  0.00    +0.000 A 
ATOM     20  C   UNL     1      -1.144  12.066  22.650  0.00  0.00    +0.000 A 
ATOM     21  C   UNL     1      -0.108  11.946  21.707  0.00  0.00    +0.000 A 
ATOM     22  C   UNL     1       0.579  13.096  21.294  0.00  0.00    +0.000 A 
ATOM     23  C   UNL     1       0.247  14.348  21.803  0.00  0.00    +0.000 A 
BRANCH  18  25
ATOM     24  C   UNL     1      -2.239  16.307  22.644  0.00  0.00    +0.000 C 
ATOM     25  O   UNL     1      -1.184  15.637  23.326  0.00  0.00    +0.000 OA
ENDBRANCH  18  25
ENDBRANCH   1  21
BRANCH   2  26
ATOM     26  O   UNL     1      -0.205  11.058  18.816  0.00  0.00    +0.000 OA
ATOM     27  H   UNL     1       0.131  11.963  18.949  0.00  0.00    +0.000 HD
ENDBRANCH   2  26
TORSDOF 4
ENDMDL
