MODEL 1
REMARK VINA RESULT:      -7.4      0.000      0.000
REMARK  Name = 
REMARK  5 active torsions:
REMARK  status: ('A' for Active; 'I' for Inactive)
REMARK    1  A    between atoms: C_1  and  C_2
REMARK    2  A    between atoms: C_2  and  N_3
REMARK    3  A    between atoms: C_9  and  C_10
REMARK    4  A    between atoms: N_12  and  C_13
REMARK    5  A    between atoms: N_20  and  C_21
REMARK                            x       y       z     vdW  Elec       q    Type
REMARK                         _______ _______ _______ _____ _____    ______ ____
ROOT
ATOM      1  N   UNL     1      -0.567  11.280  22.047  0.00  0.00    +0.000 N 
ATOM      2  C   UNL     1      -0.530  11.744  20.725  0.00  0.00    +0.000 A 
ATOM      3  C   UNL     1       0.063  11.070  19.721  0.00  0.00    +0.000 A 
ATOM      4  C   UNL     1       0.653   9.839  20.078  0.00  0.00    +0.000 A 
ATOM      5  C   UNL     1       0.651   9.328  21.354  0.00  0.00    +0.000 A 
ATOM      6  C   UNL     1       1.354   8.112  21.303  0.00  0.00    +0.000 A 
ATOM      7  C   UNL     1       1.754   7.873  19.988  0.00  0.00    +0.000 A 
ATOM      8  N   UNL     1       1.306   8.966  19.244  0.00  0.00    +0.000 N 
ATOM      9  C   UNL     1       1.455   9.179  17.812  0.00  0.00    +0.000 C 
ATOM     10  C   UNL     1       0.005  10.045  22.444  0.00  0.00    +0.000 A 
ATOM     11  O   UNL     1      -0.038   9.597  23.583  0.00  0.00    +0.000 OA
ENDROOT
BRANCH   7  12
ATOM     12  C   UNL     1       2.510   6.719  19.494  0.00  0.00    +0.000 C 
ATOM     13  O   UNL     1       3.537   6.818  18.830  0.00  0.00    +0.000 OA
ATOM     14  N   UNL     1       1.906   5.503  19.787  0.00  0.00    +0.000 N 
ATOM     15  H   UNL     1       0.919   5.548  19.998  0.00  0.00    +0.000 HD
BRANCH  14  16
ATOM     16  C   UNL     1       2.395   4.252  19.366  0.00  0.00    +0.000 A 
ATOM     17  C   UNL     1       1.839   3.700  18.208  0.00  0.00    +0.000 A 
ATOM     18  C   UNL     1       2.331   2.498  17.697  0.00  0.00    +0.000 A 
ATOM     19  C   UNL     1       3.329   1.809  18.383  0.00  0.00    +0.000 A 
ATOM     20  C   UNL     1       3.831   2.327  19.578  0.00  0.00    +0.000 A 
ATOM     21 CL   UNL     1       5.001   1.425  20.462  0.00  0.00    +0.000 Cl
ATOM     22  C   UNL     1       3.383   3.556  20.064  0.00  0.00    +0.000 A 
ENDBRANCH  14  16
ENDBRANCH   7  12
BRANCH   1  24
ATOM     23  C   UNL     1      -1.071  13.548  22.870  0.00  0.00    +0.000 C 
ATOM     24  C   UNL     1      -1.274  12.053  23.060  0.00  0.00    +0.000 C 
ENDBRANCH   1  24
TORSDOF 3
ENDMDL
MODEL 2
REMARK VINA RESULT:      -7.3      3.941      8.676
REMARK  Name = 
REMARK  5 active torsions:
REMARK  status: ('A' for Active; 'I' for Inactive)
REMARK    1  A    between atoms: C_1  and  C_2
REMARK    2  A    between atoms: C_2  and  N_3
REMARK    3  A    between atoms: C_9  and  C_10
REMARK    4  A    between atoms: N_12  and  C_13
REMARK    5  A    between atoms: N_20  and  C_21
REMARK                            x       y       z     vdW  Elec       q    Type
REMARK                         _______ _______ _______ _____ _____    ______ ____
ROOT
ATOM      1  N   UNL     1       5.622   4.864  16.385  0.00  0.00    +0.000 N 
ATOM      2  C   UNL     1       5.194   3.997  17.400  0.00  0.00    +0.000 A 
ATOM      3  C   UNL     1       4.279   4.340  18.328  0.00  0.00    +0.000 A 
ATOM      4  C   UNL     1       3.759   5.647  18.217  0.00  0.00    +0.000 A 
ATOM      5  C   UNL     1       4.135   6.544  17.246  0.00  0.00    +0.000 A 
ATOM      6  C   UNL     1       3.417   7.728  17.489  0.00  0.00    +0.000 A 
ATOM      7  C   UNL     1       2.583   7.534  18.590  0.00  0.00    +0.000 A 
ATOM      8  N   UNL     1       2.816   6.230  19.028  0.00  0.00    +0.000 N 
ATOM      9  C   UNL     1       2.171   5.541  20.135  0.00  0.00    +0.000 C 
ATOM     10  C   UNL     1       5.116   6.179  16.233  0.00  0.00    +0.000 A 
ATOM     11  O   UNL     1       5.445   6.948  15.339  0.00  0.00    +0.000 OA
ENDROOT
BRANCH   7  12
ATOM     12  C   UNL     1       1.665   8.513  19.180  0.00  0.00    +0.000 C 
ATOM     13  O   UNL     1       1.330   8.498  20.360  0.00  0.00    +0.000 OA
ATOM     14  N   UNL     1       1.151   9.411  18.254  0.00  0.00    +0.000 N 
ATOM     15  H   UNL     1       1.197   9.112  17.289  0.00  0.00    +0.000 HD
BRANCH  14  16
ATOM     16  C   UNL     1       0.199  10.403  18.552  0.00  0.00    +0.000 A 
ATOM     17  C   UNL     1       0.642  11.533  19.245  0.00  0.00    +0.000 A 
ATOM     18  C   UNL     1      -0.235  12.586  19.506  0.00  0.00    +0.000 A 
ATOM     19  C   UNL     1      -1.576  12.478  19.142  0.00  0.00    +0.000 A 
ATOM     20  C   UNL     1      -2.031  11.317  18.516  0.00  0.00    +0.000 A 
ATOM     21 CL   UNL     1      -3.706  11.159  18.149  0.00  0.00    +0.000 Cl
ATOM     22  C   UNL     1      -1.147  10.285  18.201  0.00  0.00    +0.000 A 
ENDBRANCH  14  16
ENDBRANCH   7  12
BRANCH   1  24
ATOM     23  C   UNL     1       5.885   3.881  14.140  0.00  0.00    +0.000 C 
ATOM     24  C   UNL     1       6.579   4.391  15.393  0.00  0.00    +0.000 C 
ENDBRANCH   1  24
TORSDOF 3
ENDMDL
MODEL 3
REMARK VINA RESULT:      -7.2      4.024      8.624
REMARK  Name = 
REMARK  5 active torsions:
REMARK  status: ('A' for Active; 'I' for Inactive)
REMARK    1  A    between atoms: C_1  and  C_2
REMARK    2  A    between atoms: C_2  and  N_3
REMARK    3  A    between atoms: C_9  and  C_10
REMARK    4  A    between atoms: N_12  and  C_13
REMARK    5  A    between atoms: N_20  and  C_21
REMARK                            x       y       z     vdW  Elec       q    Type
REMARK                         _______ _______ _______ _____ _____    ______ ____
ROOT
ATOM      1  N   UNL     1       5.662   4.897  16.654  0.00  0.00    +0.000 N 
ATOM      2  C   UNL     1       5.205   4.071  17.690  0.00  0.00    +0.000 A 
ATOM      3  C   UNL     1       4.254   4.445  18.568  0.00  0.00    +0.000 A 
ATOM      4  C   UNL     1       3.726   5.740  18.380  0.00  0.00    +0.000 A 
ATOM      5  C   UNL     1       4.130   6.597  17.385  0.00  0.00    +0.000 A 
ATOM      6  C   UNL     1       3.394   7.784  17.549  0.00  0.00    +0.000 A 
ATOM      7  C   UNL     1       2.521   7.630  18.627  0.00  0.00    +0.000 A 
ATOM      8  N   UNL     1       2.749   6.348  19.130  0.00  0.00    +0.000 N 
ATOM      9  C   UNL     1       2.070   5.703  20.243  0.00  0.00    +0.000 C 
ATOM     10  C   UNL     1       5.150   6.199  16.425  0.00  0.00    +0.000 A 
ATOM     11  O   UNL     1       5.505   6.931  15.511  0.00  0.00    +0.000 OA
ENDROOT
BRANCH   7  12
ATOM     12  C   UNL     1       1.573   8.624  19.140  0.00  0.00    +0.000 C 
ATOM     13  O   UNL     1       1.256   8.707  20.322  0.00  0.00    +0.000 OA
ATOM     14  N   UNL     1       1.012   9.411  18.143  0.00  0.00    +0.000 N 
ATOM     15  H   UNL     1       1.056   9.025  17.209  0.00  0.00    +0.000 HD
BRANCH  14  16
ATOM     16  C   UNL     1       0.026  10.389  18.365  0.00  0.00    +0.000 A 
ATOM     17  C   UNL     1      -1.296  10.054  18.058  0.00  0.00    +0.000 A 
ATOM     18  C   UNL     1      -2.329  10.953  18.325  0.00  0.00    +0.000 A 
ATOM     19  C   UNL     1      -2.035  12.218  18.829  0.00  0.00    +0.000 A 
ATOM     20  C   UNL     1      -0.708  12.577  19.065  0.00  0.00    +0.000 A 
ATOM     21 CL   UNL     1      -0.348  14.172  19.605  0.00  0.00    +0.000 Cl
ATOM     22  C   UNL     1       0.326  11.662  18.854  0.00  0.00    +0.000 A 
ENDBRANCH  14  16
ENDBRANCH   7  12
BRANCH   1  24
ATOM     23  C   UNL     1       6.016   3.832  14.459  0.00  0.00    +0.000 C 
ATOM     24  C   UNL     1       6.659   4.390  15.719  0.00  0.00    +0.000 C 
ENDBRANCH   1  24
TORSDOF 3
ENDMDL
MODEL 4
REMARK VINA RESULT:      -7.1      3.816      8.434
REMARK  Name = 
REMARK  5 active torsions:
REMARK  status: ('A' for Active; 'I' for Inactive)
REMARK    1  A    between atoms: C_1  and  C_2
REMARK    2  A    between atoms: C_2  and  N_3
REMARK    3  A    between atoms: C_9  and  C_10
REMARK    4  A    between atoms: N_12  and  C_13
REMARK    5  A    between atoms: N_20  and  C_21
REMARK                            x       y       z     vdW  Elec       q    Type
REMARK                         _______ _______ _______ _____ _____    ______ ____
ROOT
ATOM      1  N   UNL     1       5.653   4.907  16.705  0.00  0.00    +0.000 N 
ATOM      2  C   UNL     1       5.198   4.081  17.743  0.00  0.00    +0.000 A 
ATOM      3  C   UNL     1       4.236   4.448  18.611  0.00  0.00    +0.000 A 
ATOM      4  C   UNL     1       3.692   5.734  18.412  0.00  0.00    +0.000 A 
ATOM      5  C   UNL     1       4.093   6.591  17.415  0.00  0.00    +0.000 A 
ATOM      6  C   UNL     1       3.340   7.769  17.567  0.00  0.00    +0.000 A 
ATOM      7  C   UNL     1       2.461   7.609  18.639  0.00  0.00    +0.000 A 
ATOM      8  N   UNL     1       2.702   6.334  19.151  0.00  0.00    +0.000 N 
ATOM      9  C   UNL     1       2.023   5.685  20.262  0.00  0.00    +0.000 C 
ATOM     10  C   UNL     1       5.125   6.201  16.465  0.00  0.00    +0.000 A 
ATOM     11  O   UNL     1       5.478   6.933  15.549  0.00  0.00    +0.000 OA
ENDROOT
BRANCH   7  12
ATOM     12  C   UNL     1       1.496   8.594  19.139  0.00  0.00    +0.000 C 
ATOM     13  O   UNL     1       0.801   9.289  18.405  0.00  0.00    +0.000 OA
ATOM     14  N   UNL     1       1.505   8.716  20.522  0.00  0.00    +0.000 N 
ATOM     15  H   UNL     1       2.342   8.386  20.982  0.00  0.00    +0.000 HD
BRANCH  14  16
ATOM     16  C   UNL     1       0.723   9.638  21.242  0.00  0.00    +0.000 A 
ATOM     17  C   UNL     1      -0.087   9.137  22.265  0.00  0.00    +0.000 A 
ATOM     18  C   UNL     1      -0.829  10.007  23.065  0.00  0.00    +0.000 A 
ATOM     19  C   UNL     1      -0.821  11.374  22.795  0.00  0.00    +0.000 A 
ATOM     20  C   UNL     1      -0.069  11.864  21.726  0.00  0.00    +0.000 A 
ATOM     21 CL   UNL     1      -0.135  13.543  21.348  0.00  0.00    +0.000 Cl
ATOM     22  C   UNL     1       0.720  11.006  20.958  0.00  0.00    +0.000 A 
ENDBRANCH  14  16
ENDBRANCH   7  12
BRANCH   1  24
ATOM     23  C   UNL     1       6.039   3.852  14.512  0.00  0.00    +0.000 C 
ATOM     24  C   UNL     1       6.664   4.409  15.781  0.00  0.00    +0.000 C 
ENDBRANCH   1  24
TORSDOF 3
ENDMDL
MODEL 5
REMARK VINA RESULT:      -7.1      3.816      8.520
REMARK  Name = 
REMARK  5 active torsions:
REMARK  status: ('A' for Active; 'I' for Inactive)
REMARK    1  A    between atoms: C_1  and  C_2
REMARK    2  A    between atoms: C_2  and  N_3
REMARK    3  A    between atoms: C_9  and  C_10
REMARK    4  A    between atoms: N_12  and  C_13
REMARK    5  A    between atoms: N_20  and  C_21
REMARK                            x       y       z     vdW  Elec       q    Type
REMARK                         _______ _______ _______ _____ _____    ______ ____
ROOT
ATOM      1  N   UNL     1       5.703   4.617  15.747  0.00  0.00    +0.000 N 
ATOM      2  C   UNL     1       5.309   3.404  16.327  0.00  0.00    +0.000 A 
ATOM      3  C   UNL     1       4.458   3.324  17.369  0.00  0.00    +0.000 A 
ATOM      4  C   UNL     1       3.968   4.557  17.851  0.00  0.00    +0.000 A 
ATOM      5  C   UNL     1       4.314   5.779  17.327  0.00  0.00    +0.000 A 
ATOM      6  C   UNL     1       3.645   6.751  18.091  0.00  0.00    +0.000 A 
ATOM      7  C   UNL     1       2.868   6.111  19.059  0.00  0.00    +0.000 A 
ATOM      8  N   UNL     1       3.089   4.744  18.890  0.00  0.00    +0.000 N 
ATOM      9  C   UNL     1       2.489   3.653  19.643  0.00  0.00    +0.000 C 
ATOM     10  C   UNL     1       5.225   5.874  16.195  0.00  0.00    +0.000 A 
ATOM     11  O   UNL     1       5.525   6.949  15.690  0.00  0.00    +0.000 OA
ENDROOT
BRANCH   7  12
ATOM     12  C   UNL     1       2.013   6.751  20.062  0.00  0.00    +0.000 C 
ATOM     13  O   UNL     1       1.436   6.132  20.951  0.00  0.00    +0.000 OA
ATOM     14  N   UNL     1       1.858   8.116  19.860  0.00  0.00    +0.000 N 
ATOM     15  H   UNL     1       2.060   8.442  18.925  0.00  0.00    +0.000 HD
BRANCH  14  16
ATOM     16  C   UNL     1       1.033   8.945  20.643  0.00  0.00    +0.000 A 
ATOM     17  C   UNL     1       1.077   8.774  22.030  0.00  0.00    +0.000 A 
ATOM     18  C   UNL     1       0.340   9.614  22.865  0.00  0.00    +0.000 A 
ATOM     19  C   UNL     1      -0.499  10.579  22.313  0.00  0.00    +0.000 A 
ATOM     20  C   UNL     1      -0.597  10.699  20.926  0.00  0.00    +0.000 A 
ATOM     21 CL   UNL     1      -1.702  11.836  20.254  0.00  0.00    +0.000 Cl
ATOM     22  C   UNL     1       0.181   9.900  20.086  0.00  0.00    +0.000 A 
ENDBRANCH  14  16
ENDBRANCH   7  12
BRANCH   1  24
ATOM     23  C   UNL     1       5.994   3.817  13.434  0.00  0.00    +0.000 C 
ATOM     24  C   UNL     1       6.589   4.606  14.590  0.00  0.00    +0.000 C 
ENDBRANCH   1  24
TORSDOF 3
ENDMDL
MODEL 6
REMARK VINA RESULT:      -7.0      3.662      8.500
REMARK  Name = 
REMARK  5 active torsions:
REMARK  status: ('A' for Active; 'I' for Inactive)
REMARK    1  A    between atoms: C_1  and  C_2
REMARK    2  A    between atoms: C_2  and  N_3
REMARK    3  A    between atoms: C_9  and  C_10
REMARK    4  A    between atoms: N_12  and  C_13
REMARK    5  A    between atoms: N_20  and  C_21
REMARK                            x       y       z     vdW  Elec       q    Type
REMARK                         _______ _______ _______ _____ _____    ______ ____
ROOT
ATOM      1  N   UNL     1       5.717   4.652  15.556  0.00  0.00    +0.000 N 
ATOM      2  C   UNL     1       5.337   3.529  16.303  0.00  0.00    +0.000 A 
ATOM      3  C   UNL     1       4.503   3.591  17.360  0.00  0.00    +0.000 A 
ATOM      4  C   UNL     1       4.019   4.877  17.678  0.00  0.00    +0.000 A 
ATOM      5  C   UNL     1       4.352   6.017  16.987  0.00  0.00    +0.000 A 
ATOM      6  C   UNL     1       3.693   7.084  17.623  0.00  0.00    +0.000 A 
ATOM      7  C   UNL     1       2.935   6.581  18.682  0.00  0.00    +0.000 A 
ATOM      8  N   UNL     1       3.157   5.203  18.697  0.00  0.00    +0.000 N 
ATOM      9  C   UNL     1       2.572   4.225  19.601  0.00  0.00    +0.000 C 
ATOM     10  C   UNL     1       5.244   5.958  15.837  0.00  0.00    +0.000 A 
ATOM     11  O   UNL     1       5.532   6.954  15.186  0.00  0.00    +0.000 OA
ENDROOT
BRANCH   7  12
ATOM     12  C   UNL     1       2.094   7.351  19.604  0.00  0.00    +0.000 C 
ATOM     13  O   UNL     1       1.700   6.915  20.680  0.00  0.00    +0.000 OA
ATOM     14  N   UNL     1       1.725   8.592  19.102  0.00  0.00    +0.000 N 
ATOM     15  H   UNL     1       1.789   8.691  18.098  0.00  0.00    +0.000 HD
BRANCH  14  16
ATOM     16  C   UNL     1       0.867   9.491  19.762  0.00  0.00    +0.000 A 
ATOM     17  C   UNL     1       0.356  10.558  19.017  0.00  0.00    +0.000 A 
ATOM     18  C   UNL     1      -0.558  11.442  19.592  0.00  0.00    +0.000 A 
ATOM     19  C   UNL     1      -0.906  11.305  20.934  0.00  0.00    +0.000 A 
ATOM     20  C   UNL     1      -0.337  10.283  21.695  0.00  0.00    +0.000 A 
ATOM     21 CL   UNL     1      -0.706  10.176  23.373  0.00  0.00    +0.000 Cl
ATOM     22  C   UNL     1       0.534   9.361  21.111  0.00  0.00    +0.000 A 
ENDBRANCH  14  16
ENDBRANCH   7  12
BRANCH   1  24
ATOM     23  C   UNL     1       5.872   3.764  13.262  0.00  0.00    +0.000 C 
ATOM     24  C   UNL     1       6.584   4.484  14.397  0.00  0.00    +0.000 C 
ENDBRANCH   1  24
TORSDOF 3
ENDMDL
MODEL 7
REMARK VINA RESULT:      -6.9      3.301      3.857
REMARK  Name = 
REMARK  5 active torsions:
REMARK  status: ('A' for Active; 'I' for Inactive)
REMARK    1  A    between atoms: C_1  and  C_2
REMARK    2  A    between atoms: C_2  and  N_3
REMARK    3  A    between atoms: C_9  and  C_10
REMARK    4  A    between atoms: N_12  and  C_13
REMARK    5  A    between atoms: N_20  and  C_21
REMARK                            x       y       z     vdW  Elec       q    Type
REMARK                         _______ _______ _______ _____ _____    ______ ____
ROOT
ATOM      1  N   UNL     1       0.080  10.950  20.580  0.00  0.00    +0.000 N 
ATOM      2  C   UNL     1      -0.041   9.998  21.601  0.00  0.00    +0.000 A 
ATOM      3  C   UNL     1       0.481   8.758  21.523  0.00  0.00    +0.000 A 
ATOM      4  C   UNL     1       1.178   8.466  20.332  0.00  0.00    +0.000 A 
ATOM      5  C   UNL     1       1.334   9.353  19.294  0.00  0.00    +0.000 A 
ATOM      6  C   UNL     1       2.056   8.682  18.292  0.00  0.00    +0.000 A 
ATOM      7  C   UNL     1       2.365   7.397  18.740  0.00  0.00    +0.000 A 
ATOM      8  N   UNL     1       1.804   7.285  20.013  0.00  0.00    +0.000 N 
ATOM      9  C   UNL     1       1.869   6.141  20.909  0.00  0.00    +0.000 C 
ATOM     10  C   UNL     1       0.781  10.698  19.374  0.00  0.00    +0.000 A 
ATOM     11  O   UNL     1       0.932  11.518  18.477  0.00  0.00    +0.000 OA
ENDROOT
BRANCH   7  12
ATOM     12  C   UNL     1       3.108   6.367  18.009  0.00  0.00    +0.000 C 
ATOM     13  O   UNL     1       2.648   5.260  17.748  0.00  0.00    +0.000 OA
ATOM     14  N   UNL     1       4.412   6.740  17.709  0.00  0.00    +0.000 N 
ATOM     15  H   UNL     1       4.789   7.489  18.274  0.00  0.00    +0.000 HD
BRANCH  14  16
ATOM     16  C   UNL     1       5.350   5.906  17.074  0.00  0.00    +0.000 A 
ATOM     17  C   UNL     1       6.496   5.558  17.797  0.00  0.00    +0.000 A 
ATOM     18  C   UNL     1       7.429   4.675  17.252  0.00  0.00    +0.000 A 
ATOM     19  C   UNL     1       7.256   4.196  15.955  0.00  0.00    +0.000 A 
ATOM     20  C   UNL     1       6.149   4.604  15.209  0.00  0.00    +0.000 A 
ATOM     21 CL   UNL     1       5.991   4.075  13.577  0.00  0.00    +0.000 Cl
ATOM     22  C   UNL     1       5.183   5.441  15.768  0.00  0.00    +0.000 A 
ENDBRANCH  14  16
ENDBRANCH   7  12
BRANCH   1  24
ATOM     23  C   UNL     1      -1.933  12.353  20.346  0.00  0.00    +0.000 C 
ATOM     24  C   UNL     1      -0.475  12.284  20.772  0.00  0.00    +0.000 C 
ENDBRANCH   1  24
TORSDOF 3
ENDMDL
MODEL 8
REMARK VINA RESULT:      -6.9      2.707      2.909
REMARK  Name = 
REMARK  5 active torsions:
REMARK  status: ('A' for Active; 'I' for Inactive)
REMARK    1  A    between atoms: C_1  and  C_2
REMARK    2  A    between atoms: C_2  and  N_3
REMARK    3  A    between atoms: C_9  and  C_10
REMARK    4  A    between atoms: N_12  and  C_13
REMARK    5  A    between atoms: N_20  and  C_21
REMARK                            x       y       z     vdW  Elec       q    Type
REMARK                         _______ _______ _______ _____ _____    ______ ____
ROOT
ATOM      1  N   UNL     1      -0.429  10.643  21.807  0.00  0.00    +0.000 N 
ATOM      2  C   UNL     1      -0.315  11.256  20.551  0.00  0.00    +0.000 A 
ATOM      3  C   UNL     1       0.357  10.709  19.520  0.00  0.00    +0.000 A 
ATOM      4  C   UNL     1       0.947   9.453  19.775  0.00  0.00    +0.000 A 
ATOM      5  C   UNL     1       0.872   8.799  20.981  0.00  0.00    +0.000 A 
ATOM      6  C   UNL     1       1.603   7.606  20.840  0.00  0.00    +0.000 A 
ATOM      7  C   UNL     1       2.093   7.526  19.536  0.00  0.00    +0.000 A 
ATOM      8  N   UNL     1       1.673   8.690  18.893  0.00  0.00    +0.000 N 
ATOM      9  C   UNL     1       1.911   9.069  17.508  0.00  0.00    +0.000 C 
ATOM     10  C   UNL     1       0.140   9.378  22.099  0.00  0.00    +0.000 A 
ATOM     11  O   UNL     1       0.032   8.802  23.174  0.00  0.00    +0.000 OA
ENDROOT
BRANCH   7  12
ATOM     12  C   UNL     1       2.904   6.445  18.968  0.00  0.00    +0.000 C 
ATOM     13  O   UNL     1       2.675   5.256  19.161  0.00  0.00    +0.000 OA
ATOM     14  N   UNL     1       4.003   6.903  18.253  0.00  0.00    +0.000 N 
ATOM     15  H   UNL     1       4.296   7.847  18.464  0.00  0.00    +0.000 HD
BRANCH  14  16
ATOM     16  C   UNL     1       4.973   6.069  17.668  0.00  0.00    +0.000 A 
ATOM     17  C   UNL     1       6.106   5.765  18.429  0.00  0.00    +0.000 A 
ATOM     18  C   UNL     1       7.069   4.884  17.935  0.00  0.00    +0.000 A 
ATOM     19  C   UNL     1       6.938   4.363  16.649  0.00  0.00    +0.000 A 
ATOM     20  C   UNL     1       5.844   4.726  15.864  0.00  0.00    +0.000 A 
ATOM     21 CL   UNL     1       5.737   4.146  14.246  0.00  0.00    +0.000 Cl
ATOM     22  C   UNL     1       4.848   5.562  16.373  0.00  0.00    +0.000 A 
ENDBRANCH  14  16
ENDBRANCH   7  12
BRANCH   1  24
ATOM     23  C   UNL     1      -1.076  12.798  22.812  0.00  0.00    +0.000 C 
ATOM     24  C   UNL     1      -1.218  11.285  22.851  0.00  0.00    +0.000 C 
ENDBRANCH   1  24
TORSDOF 3
ENDMDL
MODEL 9
REMARK VINA RESULT:      -6.9      4.506      6.070
REMARK  Name = 
REMARK  5 active torsions:
REMARK  status: ('A' for Active; 'I' for Inactive)
REMARK    1  A    between atoms: C_1  and  C_2
REMARK    2  A    between atoms: C_2  and  N_3
REMARK    3  A    between atoms: C_9  and  C_10
REMARK    4  A    between atoms: N_12  and  C_13
REMARK    5  A    between atoms: N_20  and  C_21
REMARK                            x       y       z     vdW  Elec       q    Type
REMARK                         _______ _______ _______ _____ _____    ______ ____
ROOT
ATOM      1  N   UNL     1       1.551   7.285  20.389  0.00  0.00    +0.000 N 
ATOM      2  C   UNL     1       1.674   6.029  20.998  0.00  0.00    +0.000 A 
ATOM      3  C   UNL     1       2.477   5.055  20.527  0.00  0.00    +0.000 A 
ATOM      4  C   UNL     1       3.209   5.378  19.365  0.00  0.00    +0.000 A 
ATOM      5  C   UNL     1       3.134   6.589  18.721  0.00  0.00    +0.000 A 
ATOM      6  C   UNL     1       3.983   6.507  17.603  0.00  0.00    +0.000 A 
ATOM      7  C   UNL     1       4.596   5.254  17.591  0.00  0.00    +0.000 A 
ATOM      8  N   UNL     1       4.095   4.567  18.698  0.00  0.00    +0.000 N 
ATOM      9  C   UNL     1       4.444   3.224  19.136  0.00  0.00    +0.000 C 
ATOM     10  C   UNL     1       2.276   7.651  19.228  0.00  0.00    +0.000 A 
ATOM     11  O   UNL     1       2.215   8.750  18.691  0.00  0.00    +0.000 OA
ENDROOT
BRANCH   7  12
ATOM     12  C   UNL     1       5.555   4.754  16.601  0.00  0.00    +0.000 C 
ATOM     13  O   UNL     1       6.684   4.372  16.890  0.00  0.00    +0.000 OA
ATOM     14  N   UNL     1       5.086   4.830  15.297  0.00  0.00    +0.000 N 
ATOM     15  H   UNL     1       4.327   5.481  15.146  0.00  0.00    +0.000 HD
BRANCH  14  16
ATOM     16  C   UNL     1       5.838   4.479  14.161  0.00  0.00    +0.000 A 
ATOM     17  C   UNL     1       6.968   5.249  13.873  0.00  0.00    +0.000 A 
ATOM     18  C   UNL     1       7.798   4.907  12.804  0.00  0.00    +0.000 A 
ATOM     19  C   UNL     1       7.458   3.839  11.976  0.00  0.00    +0.000 A 
ATOM     20  C   UNL     1       6.289   3.118  12.223  0.00  0.00    +0.000 A 
ATOM     21 CL   UNL     1       5.833   1.856  11.142  0.00  0.00    +0.000 Cl
ATOM     22  C   UNL     1       5.485   3.419  13.323  0.00  0.00    +0.000 A 
ENDBRANCH  14  16
ENDBRANCH   7  12
BRANCH   1  24
ATOM     23  C   UNL     1       1.390   8.999  22.154  0.00  0.00    +0.000 C 
ATOM     24  C   UNL     1       0.696   8.297  20.997  0.00  0.00    +0.000 C 
ENDBRANCH   1  24
TORSDOF 3
ENDMDL
