MODEL 1
REMARK VINA RESULT:      -6.3      0.000      0.000
REMARK  Name = 
REMARK  7 active torsions:
REMARK  status: ('A' for Active; 'I' for Inactive)
REMARK    1  A    between atoms: C_1  and  C_2
REMARK    2  A    between atoms: N_4  and  C_16
REMARK    3  A    between atoms: N_6  and  C_7
REMARK    4  A    between atoms: N_9  and  C_10
REMARK    5  A    between atoms: C_16  and  C_17
REMARK    6  A    between atoms: C_16  and  C_18
REMARK    7  A    between atoms: C_16  and  C_19
REMARK                            x       y       z     vdW  Elec       q    Type
REMARK                         _______ _______ _______ _____ _____    ______ ____
ROOT
ATOM      1  C   UNL     1       2.997   7.825  17.855  0.00  0.00    +0.000 C 
ATOM      2  C   UNL     1       2.522   6.842  18.894  0.00  0.00    +0.000 C 
ATOM      3  O   UNL     1       1.876   7.363  19.813  0.00  0.00    +0.000 OA
ATOM      4  N   UNL     1       2.773   5.419  18.806  0.00  0.00    +0.000 N 
ATOM      5  C   UNL     1       3.524   4.797  17.727  0.00  0.00    +0.000 C 
ATOM      6  N   UNL     1       3.802   3.559  17.416  0.00  0.00    +0.000 NA
ATOM      7  N   UNL     1       4.053   5.651  16.758  0.00  0.00    +0.000 N 
ATOM      8  H   UNL     1       3.328   6.080  16.196  0.00  0.00    +0.000 HD
ENDROOT
BRANCH   7   9
ATOM      9  C   UNL     1       5.177   5.362  15.931  0.00  0.00    +0.000 A 
ATOM     10  C   UNL     1       5.093   4.569  14.782  0.00  0.00    +0.000 A 
ATOM     11  C   UNL     1       6.239   4.272  14.043  0.00  0.00    +0.000 A 
ATOM     12  C   UNL     1       7.456   4.759  14.488  0.00  0.00    +0.000 A 
ATOM     13  N   UNL     1       7.593   5.515  15.596  0.00  0.00    +0.000 NA
ATOM     14  C   UNL     1       6.459   5.792  16.285  0.00  0.00    +0.000 A 
ENDBRANCH   7   9
BRANCH   4  15
ATOM     15  C   UNL     1       2.150   4.704  20.034  0.00  0.00    +0.000 C 
ATOM     16  C   UNL     1       3.231   3.899  20.817  0.00  0.00    +0.000 C 
ATOM     17  C   UNL     1       1.493   5.575  21.102  0.00  0.00    +0.000 C 
ATOM     18  C   UNL     1       0.981   3.756  19.615  0.00  0.00    +0.000 C 
ENDBRANCH   4  15
BRANCH   6  19
ATOM     19  C   UNL     1       3.586   2.335  17.853  0.00  0.00    +0.000 C 
ATOM     20  N   UNL     1       3.510   1.257  18.281  0.00  0.00    +0.000 NA
ENDBRANCH   6  19
TORSDOF 3
ENDMDL
MODEL 2
REMARK VINA RESULT:      -6.3      1.915      3.262
REMARK  Name = 
REMARK  7 active torsions:
REMARK  status: ('A' for Active; 'I' for Inactive)
REMARK    1  A    between atoms: C_1  and  C_2
REMARK    2  A    between atoms: N_4  and  C_16
REMARK    3  A    between atoms: N_6  and  C_7
REMARK    4  A    between atoms: N_9  and  C_10
REMARK    5  A    between atoms: C_16  and  C_17
REMARK    6  A    between atoms: C_16  and  C_18
REMARK    7  A    between atoms: C_16  and  C_19
REMARK                            x       y       z     vdW  Elec       q    Type
REMARK                         _______ _______ _______ _____ _____    ______ ____
ROOT
ATOM      1  C   UNL     1       5.146   1.994  19.958  0.00  0.00    +0.000 C 
ATOM      2  C   UNL     1       3.807   2.577  20.331  0.00  0.00    +0.000 C 
ATOM      3  O   UNL     1       3.209   1.930  21.201  0.00  0.00    +0.000 OA
ATOM      4  N   UNL     1       3.288   3.795  19.747  0.00  0.00    +0.000 N 
ATOM      5  C   UNL     1       3.987   4.566  18.731  0.00  0.00    +0.000 C 
ATOM      6  N   UNL     1       3.746   5.702  18.134  0.00  0.00    +0.000 NA
ATOM      7  N   UNL     1       5.207   4.054  18.286  0.00  0.00    +0.000 N 
ATOM      8  H   UNL     1       5.918   4.092  19.006  0.00  0.00    +0.000 HD
ENDROOT
BRANCH   7   9
ATOM      9  C   UNL     1       5.805   4.332  17.023  0.00  0.00    +0.000 A 
ATOM     10  C   UNL     1       5.430   3.681  15.843  0.00  0.00    +0.000 A 
ATOM     11  C   UNL     1       6.093   3.954  14.644  0.00  0.00    +0.000 A 
ATOM     12  C   UNL     1       7.137   4.861  14.660  0.00  0.00    +0.000 A 
ATOM     13  N   UNL     1       7.547   5.506  15.772  0.00  0.00    +0.000 NA
ATOM     14  C   UNL     1       6.877   5.223  16.916  0.00  0.00    +0.000 A 
ENDBRANCH   7   9
BRANCH   4  15
ATOM     15  C   UNL     1       1.893   4.107  20.350  0.00  0.00    +0.000 C 
ATOM     16  C   UNL     1       0.769   3.900  19.291  0.00  0.00    +0.000 C 
ATOM     17  C   UNL     1       1.434   3.271  21.544  0.00  0.00    +0.000 C 
ATOM     18  C   UNL     1       1.825   5.561  20.920  0.00  0.00    +0.000 C 
ENDBRANCH   4  15
BRANCH   6  19
ATOM     19  C   UNL     1       2.846   6.664  18.118  0.00  0.00    +0.000 C 
ATOM     20  N   UNL     1       2.132   7.578  18.037  0.00  0.00    +0.000 NA
ENDBRANCH   6  19
TORSDOF 3
ENDMDL
MODEL 3
REMARK VINA RESULT:      -6.1      1.893      3.136
REMARK  Name = 
REMARK  7 active torsions:
REMARK  status: ('A' for Active; 'I' for Inactive)
REMARK    1  A    between atoms: C_1  and  C_2
REMARK    2  A    between atoms: N_4  and  C_16
REMARK    3  A    between atoms: N_6  and  C_7
REMARK    4  A    between atoms: N_9  and  C_10
REMARK    5  A    between atoms: C_16  and  C_17
REMARK    6  A    between atoms: C_16  and  C_18
REMARK    7  A    between atoms: C_16  and  C_19
REMARK                            x       y       z     vdW  Elec       q    Type
REMARK                         _______ _______ _______ _____ _____    ______ ____
ROOT
ATOM      1  C   UNL     1       5.123   1.958  19.894  0.00  0.00    +0.000 C 
ATOM      2  C   UNL     1       3.815   2.583  20.309  0.00  0.00    +0.000 C 
ATOM      3  O   UNL     1       3.214   1.943  21.182  0.00  0.00    +0.000 OA
ATOM      4  N   UNL     1       3.328   3.829  19.758  0.00  0.00    +0.000 N 
ATOM      5  C   UNL     1       4.030   4.592  18.738  0.00  0.00    +0.000 C 
ATOM      6  N   UNL     1       3.817   5.746  18.165  0.00  0.00    +0.000 NA
ATOM      7  N   UNL     1       5.220   4.043  18.255  0.00  0.00    +0.000 N 
ATOM      8  H   UNL     1       5.948   4.044  18.958  0.00  0.00    +0.000 HD
ENDROOT
BRANCH   7   9
ATOM      9  C   UNL     1       5.797   4.322  16.982  0.00  0.00    +0.000 A 
ATOM     10  C   UNL     1       5.381   3.695  15.804  0.00  0.00    +0.000 A 
ATOM     11  C   UNL     1       6.024   3.965  14.594  0.00  0.00    +0.000 A 
ATOM     12  C   UNL     1       7.092   4.844  14.597  0.00  0.00    +0.000 A 
ATOM     13  N   UNL     1       7.542   5.464  15.707  0.00  0.00    +0.000 NA
ATOM     14  C   UNL     1       6.890   5.186  16.862  0.00  0.00    +0.000 A 
ENDBRANCH   7   9
BRANCH   4  15
ATOM     15  C   UNL     1       1.959   4.182  20.400  0.00  0.00    +0.000 C 
ATOM     16  C   UNL     1       1.744   3.389  21.724  0.00  0.00    +0.000 C 
ATOM     17  C   UNL     1       1.718   5.637  20.797  0.00  0.00    +0.000 C 
ATOM     18  C   UNL     1       0.776   3.908  19.417  0.00  0.00    +0.000 C 
ENDBRANCH   4  15
BRANCH   6  19
ATOM     19  C   UNL     1       2.953   6.740  18.187  0.00  0.00    +0.000 C 
ATOM     20  N   UNL     1       2.230   7.646  18.093  0.00  0.00    +0.000 NA
ENDBRANCH   6  19
TORSDOF 3
ENDMDL
MODEL 4
REMARK VINA RESULT:      -5.9      1.853      3.364
REMARK  Name = 
REMARK  7 active torsions:
REMARK  status: ('A' for Active; 'I' for Inactive)
REMARK    1  A    between atoms: C_1  and  C_2
REMARK    2  A    between atoms: N_4  and  C_16
REMARK    3  A    between atoms: N_6  and  C_7
REMARK    4  A    between atoms: N_9  and  C_10
REMARK    5  A    between atoms: C_16  and  C_17
REMARK    6  A    between atoms: C_16  and  C_18
REMARK    7  A    between atoms: C_16  and  C_19
REMARK                            x       y       z     vdW  Elec       q    Type
REMARK                         _______ _______ _______ _____ _____    ______ ____
ROOT
ATOM      1  C   UNL     1       4.384   1.352  17.750  0.00  0.00    +0.000 C 
ATOM      2  C   UNL     1       3.313   2.220  18.361  0.00  0.00    +0.000 C 
ATOM      3  O   UNL     1       2.496   1.592  19.047  0.00  0.00    +0.000 OA
ATOM      4  N   UNL     1       3.268   3.656  18.186  0.00  0.00    +0.000 N 
ATOM      5  C   UNL     1       4.228   4.404  17.389  0.00  0.00    +0.000 C 
ATOM      6  N   UNL     1       4.415   5.675  17.159  0.00  0.00    +0.000 NA
ATOM      7  N   UNL     1       5.214   3.661  16.737  0.00  0.00    +0.000 N 
ATOM      8  H   UNL     1       5.866   3.244  17.391  0.00  0.00    +0.000 HD
ENDROOT
BRANCH   7   9
ATOM      9  C   UNL     1       5.919   4.074  15.571  0.00  0.00    +0.000 A 
ATOM     10  C   UNL     1       5.610   3.608  14.289  0.00  0.00    +0.000 A 
ATOM     11  C   UNL     1       6.375   4.004  13.189  0.00  0.00    +0.000 A 
ATOM     12  C   UNL     1       7.453   4.844  13.404  0.00  0.00    +0.000 A 
ATOM     13  N   UNL     1       7.802   5.311  14.620  0.00  0.00    +0.000 NA
ATOM     14  C   UNL     1       7.034   4.913  15.664  0.00  0.00    +0.000 A 
ENDBRANCH   7   9
BRANCH   4  15
ATOM     15  C   UNL     1       2.043   4.234  18.943  0.00  0.00    +0.000 C 
ATOM     16  C   UNL     1       1.161   5.102  17.996  0.00  0.00    +0.000 C 
ATOM     17  C   UNL     1       1.057   3.241  19.557  0.00  0.00    +0.000 C 
ATOM     18  C   UNL     1       2.479   5.077  20.184  0.00  0.00    +0.000 C 
ENDBRANCH   4  15
BRANCH   6  19
ATOM     19  C   UNL     1       3.903   6.846  17.478  0.00  0.00    +0.000 C 
ATOM     20  N   UNL     1       3.466   7.848  17.876  0.00  0.00    +0.000 NA
ENDBRANCH   6  19
TORSDOF 3
ENDMDL
MODEL 5
REMARK VINA RESULT:      -5.8      2.814      6.099
REMARK  Name = 
REMARK  7 active torsions:
REMARK  status: ('A' for Active; 'I' for Inactive)
REMARK    1  A    between atoms: C_1  and  C_2
REMARK    2  A    between atoms: N_4  and  C_16
REMARK    3  A    between atoms: N_6  and  C_7
REMARK    4  A    between atoms: N_9  and  C_10
REMARK    5  A    between atoms: C_16  and  C_17
REMARK    6  A    between atoms: C_16  and  C_18
REMARK    7  A    between atoms: C_16  and  C_19
REMARK                            x       y       z     vdW  Elec       q    Type
REMARK                         _______ _______ _______ _____ _____    ______ ____
ROOT
ATOM      1  C   UNL     1       3.659   7.675  17.806  0.00  0.00    +0.000 C 
ATOM      2  C   UNL     1       3.671   6.171  17.694  0.00  0.00    +0.000 C 
ATOM      3  O   UNL     1       4.177   5.755  16.643  0.00  0.00    +0.000 OA
ATOM      4  N   UNL     1       3.167   5.300  18.734  0.00  0.00    +0.000 N 
ATOM      5  C   UNL     1       2.579   5.780  19.975  0.00  0.00    +0.000 C 
ATOM      6  N   UNL     1       2.138   5.189  21.054  0.00  0.00    +0.000 NA
ATOM      7  N   UNL     1       2.473   7.164  20.124  0.00  0.00    +0.000 N 
ATOM      8  H   UNL     1       3.381   7.604  20.218  0.00  0.00    +0.000 HD
ENDROOT
BRANCH   7   9
ATOM      9  C   UNL     1       1.539   7.832  20.968  0.00  0.00    +0.000 A 
ATOM     10  C   UNL     1       0.154   7.696  20.828  0.00  0.00    +0.000 A 
ATOM     11  C   UNL     1      -0.714   8.422  21.646  0.00  0.00    +0.000 A 
ATOM     12  C   UNL     1      -0.170   9.291  22.576  0.00  0.00    +0.000 A 
ATOM     13  N   UNL     1       1.156   9.469  22.742  0.00  0.00    +0.000 NA
ATOM     14  C   UNL     1       1.970   8.743  21.937  0.00  0.00    +0.000 A 
ENDBRANCH   7   9
BRANCH   4  15
ATOM     15  C   UNL     1       3.329   3.820  18.297  0.00  0.00    +0.000 C 
ATOM     16  C   UNL     1       1.946   3.105  18.227  0.00  0.00    +0.000 C 
ATOM     17  C   UNL     1       3.954   3.550  16.930  0.00  0.00    +0.000 C 
ATOM     18  C   UNL     1       4.283   3.039  19.256  0.00  0.00    +0.000 C 
ENDBRANCH   4  15
BRANCH   6  19
ATOM     19  C   UNL     1       1.996   3.981  21.557  0.00  0.00    +0.000 C 
ATOM     20  N   UNL     1       1.986   2.921  22.037  0.00  0.00    +0.000 NA
ENDBRANCH   6  19
TORSDOF 3
ENDMDL
MODEL 6
REMARK VINA RESULT:      -5.7      2.691      5.806
REMARK  Name = 
REMARK  7 active torsions:
REMARK  status: ('A' for Active; 'I' for Inactive)
REMARK    1  A    between atoms: C_1  and  C_2
REMARK    2  A    between atoms: N_4  and  C_16
REMARK    3  A    between atoms: N_6  and  C_7
REMARK    4  A    between atoms: N_9  and  C_10
REMARK    5  A    between atoms: C_16  and  C_17
REMARK    6  A    between atoms: C_16  and  C_18
REMARK    7  A    between atoms: C_16  and  C_19
REMARK                            x       y       z     vdW  Elec       q    Type
REMARK                         _______ _______ _______ _____ _____    ______ ____
ROOT
ATOM      1  C   UNL     1       4.482   7.392  17.293  0.00  0.00    +0.000 C 
ATOM      2  C   UNL     1       4.303   5.895  17.305  0.00  0.00    +0.000 C 
ATOM      3  O   UNL     1       4.968   5.309  16.440  0.00  0.00    +0.000 OA
ATOM      4  N   UNL     1       3.459   5.210  18.259  0.00  0.00    +0.000 N 
ATOM      5  C   UNL     1       2.681   5.889  19.284  0.00  0.00    +0.000 C 
ATOM      6  N   UNL     1       1.929   5.478  20.269  0.00  0.00    +0.000 NA
ATOM      7  N   UNL     1       2.744   7.284  19.295  0.00  0.00    +0.000 N 
ATOM      8  H   UNL     1       3.660   7.618  19.568  0.00  0.00    +0.000 HD
ENDROOT
BRANCH   7   9
ATOM      9  C   UNL     1       1.749   8.148  19.838  0.00  0.00    +0.000 A 
ATOM     10  C   UNL     1       1.280   8.039  21.151  0.00  0.00    +0.000 A 
ATOM     11  C   UNL     1       0.261   8.877  21.610  0.00  0.00    +0.000 A 
ATOM     12  C   UNL     1      -0.284   9.795  20.729  0.00  0.00    +0.000 A 
ATOM     13  N   UNL     1       0.122   9.931  19.450  0.00  0.00    +0.000 NA
ATOM     14  C   UNL     1       1.118   9.107  19.041  0.00  0.00    +0.000 A 
ENDBRANCH   7   9
BRANCH   4  15
ATOM     15  C   UNL     1       3.501   3.682  17.990  0.00  0.00    +0.000 C 
ATOM     16  C   UNL     1       2.074   3.126  17.706  0.00  0.00    +0.000 C 
ATOM     17  C   UNL     1       4.330   3.196  16.802  0.00  0.00    +0.000 C 
ATOM     18  C   UNL     1       4.147   2.906  19.182  0.00  0.00    +0.000 C 
ENDBRANCH   4  15
BRANCH   6  19
ATOM     19  C   UNL     1       1.505   4.357  20.817  0.00  0.00    +0.000 C 
ATOM     20  N   UNL     1       1.217   3.311  21.235  0.00  0.00    +0.000 NA
ENDBRANCH   6  19
TORSDOF 3
ENDMDL
MODEL 7
REMARK VINA RESULT:      -5.7      2.546      5.411
REMARK  Name = 
REMARK  7 active torsions:
REMARK  status: ('A' for Active; 'I' for Inactive)
REMARK    1  A    between atoms: C_1  and  C_2
REMARK    2  A    between atoms: N_4  and  C_16
REMARK    3  A    between atoms: N_6  and  C_7
REMARK    4  A    between atoms: N_9  and  C_10
REMARK    5  A    between atoms: C_16  and  C_17
REMARK    6  A    between atoms: C_16  and  C_18
REMARK    7  A    between atoms: C_16  and  C_19
REMARK                            x       y       z     vdW  Elec       q    Type
REMARK                         _______ _______ _______ _____ _____    ______ ____
ROOT
ATOM      1  C   UNL     1       4.865   6.632  16.693  0.00  0.00    +0.000 C 
ATOM      2  C   UNL     1       4.590   5.179  16.988  0.00  0.00    +0.000 C 
ATOM      3  O   UNL     1       5.250   4.397  16.290  0.00  0.00    +0.000 OA
ATOM      4  N   UNL     1       3.666   4.745  18.013  0.00  0.00    +0.000 N 
ATOM      5  C   UNL     1       2.893   5.656  18.843  0.00  0.00    +0.000 C 
ATOM      6  N   UNL     1       2.077   5.490  19.849  0.00  0.00    +0.000 NA
ATOM      7  N   UNL     1       3.045   7.019  18.584  0.00  0.00    +0.000 N 
ATOM      8  H   UNL     1       3.969   7.351  18.834  0.00  0.00    +0.000 HD
ENDROOT
BRANCH   7   9
ATOM      9  C   UNL     1       2.086   8.027  18.895  0.00  0.00    +0.000 A 
ATOM     10  C   UNL     1       1.532   8.874  17.929  0.00  0.00    +0.000 A 
ATOM     11  C   UNL     1       0.641   9.883  18.302  0.00  0.00    +0.000 A 
ATOM     12  C   UNL     1       0.343  10.037  19.644  0.00  0.00    +0.000 A 
ATOM     13  N   UNL     1       0.860   9.257  20.615  0.00  0.00    +0.000 NA
ATOM     14  C   UNL     1       1.715   8.282  20.218  0.00  0.00    +0.000 A 
ENDBRANCH   7   9
BRANCH   4  15
ATOM     15  C   UNL     1       3.621   3.194  18.050  0.00  0.00    +0.000 C 
ATOM     16  C   UNL     1       2.171   2.673  17.820  0.00  0.00    +0.000 C 
ATOM     17  C   UNL     1       4.454   2.437  17.017  0.00  0.00    +0.000 C 
ATOM     18  C   UNL     1       4.180   2.635  19.398  0.00  0.00    +0.000 C 
ENDBRANCH   4  15
BRANCH   6  19
ATOM     19  C   UNL     1       1.561   4.525  20.583  0.00  0.00    +0.000 C 
ATOM     20  N   UNL     1       1.160   3.596  21.155  0.00  0.00    +0.000 NA
ENDBRANCH   6  19
TORSDOF 3
ENDMDL
MODEL 8
REMARK VINA RESULT:      -5.6      0.681      1.107
REMARK  Name = 
REMARK  7 active torsions:
REMARK  status: ('A' for Active; 'I' for Inactive)
REMARK    1  A    between atoms: C_1  and  C_2
REMARK    2  A    between atoms: N_4  and  C_16
REMARK    3  A    between atoms: N_6  and  C_7
REMARK    4  A    between atoms: N_9  and  C_10
REMARK    5  A    between atoms: C_16  and  C_17
REMARK    6  A    between atoms: C_16  and  C_18
REMARK    7  A    between atoms: C_16  and  C_19
REMARK                            x       y       z     vdW  Elec       q    Type
REMARK                         _______ _______ _______ _____ _____    ______ ____
ROOT
ATOM      1  C   UNL     1       3.133   7.764  17.737  0.00  0.00    +0.000 C 
ATOM      2  C   UNL     1       2.615   6.837  18.807  0.00  0.00    +0.000 C 
ATOM      3  O   UNL     1       1.973   7.413  19.695  0.00  0.00    +0.000 OA
ATOM      4  N   UNL     1       2.823   5.405  18.777  0.00  0.00    +0.000 N 
ATOM      5  C   UNL     1       3.569   4.719  17.734  0.00  0.00    +0.000 C 
ATOM      6  N   UNL     1       3.813   3.462  17.476  0.00  0.00    +0.000 NA
ATOM      7  N   UNL     1       4.136   5.519  16.741  0.00  0.00    +0.000 N 
ATOM      8  H   UNL     1       3.432   5.947  16.152  0.00  0.00    +0.000 HD
ENDROOT
BRANCH   7   9
ATOM      9  C   UNL     1       5.261   5.164  15.941  0.00  0.00    +0.000 A 
ATOM     10  C   UNL     1       6.577   5.475  16.298  0.00  0.00    +0.000 A 
ATOM     11  C   UNL     1       7.636   5.153  15.445  0.00  0.00    +0.000 A 
ATOM     12  C   UNL     1       7.347   4.545  14.236  0.00  0.00    +0.000 A 
ATOM     13  N   UNL     1       6.096   4.236  13.839  0.00  0.00    +0.000 NA
ATOM     14  C   UNL     1       5.093   4.555  14.694  0.00  0.00    +0.000 A 
ENDBRANCH   7   9
BRANCH   4  15
ATOM     15  C   UNL     1       2.163   4.757  20.023  0.00  0.00    +0.000 C 
ATOM     16  C   UNL     1       3.217   3.987  20.874  0.00  0.00    +0.000 C 
ATOM     17  C   UNL     1       1.485   5.687  21.029  0.00  0.00    +0.000 C 
ATOM     18  C   UNL     1       0.998   3.797  19.623  0.00  0.00    +0.000 C 
ENDBRANCH   4  15
BRANCH   6  19
ATOM     19  C   UNL     1       3.554   2.263  17.956  0.00  0.00    +0.000 C 
ATOM     20  N   UNL     1       3.417   1.223  18.458  0.00  0.00    +0.000 NA
ENDBRANCH   6  19
TORSDOF 3
ENDMDL
MODEL 9
REMARK VINA RESULT:      -5.5      2.566      5.414
REMARK  Name = 
REMARK  7 active torsions:
REMARK  status: ('A' for Active; 'I' for Inactive)
REMARK    1  A    between atoms: C_1  and  C_2
REMARK    2  A    between atoms: N_4  and  C_16
REMARK    3  A    between atoms: N_6  and  C_7
REMARK    4  A    between atoms: N_9  and  C_10
REMARK    5  A    between atoms: C_16  and  C_17
REMARK    6  A    between atoms: C_16  and  C_18
REMARK    7  A    between atoms: C_16  and  C_19
REMARK                            x       y       z     vdW  Elec       q    Type
REMARK                         _______ _______ _______ _____ _____    ______ ____
ROOT
ATOM      1  C   UNL     1       5.056   7.003  16.976  0.00  0.00    +0.000 C 
ATOM      2  C   UNL     1       4.793   5.526  17.121  0.00  0.00    +0.000 C 
ATOM      3  O   UNL     1       5.548   4.818  16.440  0.00  0.00    +0.000 OA
ATOM      4  N   UNL     1       3.775   4.989  17.998  0.00  0.00    +0.000 N 
ATOM      5  C   UNL     1       2.890   5.812  18.808  0.00  0.00    +0.000 C 
ATOM      6  N   UNL     1       1.975   5.546  19.700  0.00  0.00    +0.000 NA
ATOM      7  N   UNL     1       3.029   7.195  18.679  0.00  0.00    +0.000 N 
ATOM      8  H   UNL     1       3.910   7.523  19.055  0.00  0.00    +0.000 HD
ENDROOT
BRANCH   7   9
ATOM      9  C   UNL     1       2.014   8.154  18.961  0.00  0.00    +0.000 A 
ATOM     10  C   UNL     1       1.432   8.959  17.976  0.00  0.00    +0.000 A 
ATOM     11  C   UNL     1       0.483   9.923  18.321  0.00  0.00    +0.000 A 
ATOM     12  C   UNL     1       0.153  10.076  19.656  0.00  0.00    +0.000 A 
ATOM     13  N   UNL     1       0.694   9.335  20.645  0.00  0.00    +0.000 NA
ATOM     14  C   UNL     1       1.606   8.404  20.274  0.00  0.00    +0.000 A 
ENDBRANCH   7   9
BRANCH   4  15
ATOM     15  C   UNL     1       3.772   3.440  17.905  0.00  0.00    +0.000 C 
ATOM     16  C   UNL     1       4.248   2.800  19.245  0.00  0.00    +0.000 C 
ATOM     17  C   UNL     1       2.439   2.751  17.620  0.00  0.00    +0.000 C 
ATOM     18  C   UNL     1       4.666   2.933  16.728  0.00  0.00    +0.000 C 
ENDBRANCH   4  15
BRANCH   6  19
ATOM     19  C   UNL     1       1.409   4.513  20.292  0.00  0.00    +0.000 C 
ATOM     20  N   UNL     1       1.004   3.536  20.773  0.00  0.00    +0.000 NA
ENDBRANCH   6  19
TORSDOF 3
ENDMDL
