MODEL 1
REMARK VINA RESULT:      -8.1      0.000      0.000
REMARK  Name = 
REMARK  4 active torsions:
REMARK  status: ('A' for Active; 'I' for Inactive)
REMARK    1  A    between atoms: C_2  and  C_3
REMARK    2  A    between atoms: C_3  and  N_4
REMARK    3  A    between atoms: C_6  and  C_7
REMARK    4  A    between atoms: C_14  and  C_15
REMARK                            x       y       z     vdW  Elec       q    Type
REMARK                         _______ _______ _______ _____ _____    ______ ____
ROOT
ATOM      1  N   UNL     1       6.040   4.098  14.306  0.00  0.00    +0.000 N 
ATOM      2  N   UNL     1       4.998   3.638  15.132  0.00  0.00    +0.000 NA
ATOM      3  C   UNL     1       4.860   4.065  16.361  0.00  0.00    +0.000 A 
ATOM      4  C   UNL     1       5.833   4.994  16.890  0.00  0.00    +0.000 A 
ATOM      5  C   UNL     1       6.118   5.539  18.122  0.00  0.00    +0.000 A 
ATOM      6  C   UNL     1       5.601   5.443  19.503  0.00  0.00    +0.000 C 
ATOM      7  O   UNL     1       7.186   6.382  17.991  0.00  0.00    +0.000 OA
ATOM      8  N   UNL     1       7.649   6.356  16.689  0.00  0.00    +0.000 NA
ATOM      9  C   UNL     1       6.846   5.498  16.049  0.00  0.00    +0.000 A 
ATOM     10  C   UNL     1       6.992   5.071  14.670  0.00  0.00    +0.000 A 
ATOM     11  O   UNL     1       7.875   5.485  13.926  0.00  0.00    +0.000 OA
ENDROOT
BRANCH   3  12
ATOM     12  C   UNL     1       3.708   3.583  17.164  0.00  0.00    +0.000 A 
ATOM     13  C   UNL     1       2.621   4.441  17.385  0.00  0.00    +0.000 A 
ATOM     14  C   UNL     1       1.528   4.005  18.140  0.00  0.00    +0.000 A 
ATOM     15  C   UNL     1       1.511   2.713  18.665  0.00  0.00    +0.000 A 
ATOM     16  C   UNL     1       2.602   1.868  18.473  0.00  0.00    +0.000 A 
ATOM     17  C   UNL     1       3.712   2.316  17.752  0.00  0.00    +0.000 A 
ENDBRANCH   3  12
BRANCH   1  18
ATOM     18  C   UNL     1       6.115   3.518  12.973  0.00  0.00    +0.000 C 
BRANCH  18  20
ATOM     19  C   UNL     1       4.371   2.964  11.245  0.00  0.00    +0.000 C 
ATOM     20  C   UNL     1       4.822   3.741  12.241  0.00  0.00    +0.000 C 
ENDBRANCH  18  20
ENDBRANCH   1  18
TORSDOF 3
ENDMDL
MODEL 2
REMARK VINA RESULT:      -8.1      0.048      1.081
REMARK  Name = 
REMARK  4 active torsions:
REMARK  status: ('A' for Active; 'I' for Inactive)
REMARK    1  A    between atoms: C_2  and  C_3
REMARK    2  A    between atoms: C_3  and  N_4
REMARK    3  A    between atoms: C_6  and  C_7
REMARK    4  A    between atoms: C_14  and  C_15
REMARK                            x       y       z     vdW  Elec       q    Type
REMARK                         _______ _______ _______ _____ _____    ______ ____
ROOT
ATOM      1  N   UNL     1       6.036   4.091  14.306  0.00  0.00    +0.000 N 
ATOM      2  N   UNL     1       4.995   3.631  15.132  0.00  0.00    +0.000 NA
ATOM      3  C   UNL     1       4.851   4.066  16.358  0.00  0.00    +0.000 A 
ATOM      4  C   UNL     1       5.817   5.005  16.882  0.00  0.00    +0.000 A 
ATOM      5  C   UNL     1       6.096   5.562  18.111  0.00  0.00    +0.000 A 
ATOM      6  C   UNL     1       5.576   5.474  19.490  0.00  0.00    +0.000 C 
ATOM      7  O   UNL     1       7.159   6.411  17.975  0.00  0.00    +0.000 OA
ATOM      8  N   UNL     1       7.625   6.377  16.674  0.00  0.00    +0.000 NA
ATOM      9  C   UNL     1       6.830   5.509  16.040  0.00  0.00    +0.000 A 
ATOM     10  C   UNL     1       6.982   5.073  14.665  0.00  0.00    +0.000 A 
ATOM     11  O   UNL     1       7.864   5.486  13.920  0.00  0.00    +0.000 OA
ENDROOT
BRANCH   3  12
ATOM     12  C   UNL     1       3.699   3.585  17.161  0.00  0.00    +0.000 A 
ATOM     13  C   UNL     1       3.728   2.287  17.690  0.00  0.00    +0.000 A 
ATOM     14  C   UNL     1       2.651   1.816  18.447  0.00  0.00    +0.000 A 
ATOM     15  C   UNL     1       1.551   2.640  18.687  0.00  0.00    +0.000 A 
ATOM     16  C   UNL     1       1.505   3.919  18.138  0.00  0.00    +0.000 A 
ATOM     17  C   UNL     1       2.564   4.376  17.348  0.00  0.00    +0.000 A 
ENDBRANCH   3  12
BRANCH   1  18
ATOM     18  C   UNL     1       6.118   3.501  12.978  0.00  0.00    +0.000 C 
BRANCH  18  20
ATOM     19  C   UNL     1       4.352   2.955  11.270  0.00  0.00    +0.000 C 
ATOM     20  C   UNL     1       4.849   3.763  12.218  0.00  0.00    +0.000 C 
ENDBRANCH  18  20
ENDBRANCH   1  18
TORSDOF 3
ENDMDL
MODEL 3
REMARK VINA RESULT:      -7.0      2.758      3.863
REMARK  Name = 
REMARK  4 active torsions:
REMARK  status: ('A' for Active; 'I' for Inactive)
REMARK    1  A    between atoms: C_2  and  C_3
REMARK    2  A    between atoms: C_3  and  N_4
REMARK    3  A    between atoms: C_6  and  C_7
REMARK    4  A    between atoms: C_14  and  C_15
REMARK                            x       y       z     vdW  Elec       q    Type
REMARK                         _______ _______ _______ _____ _____    ______ ____
ROOT
ATOM      1  N   UNL     1       4.942   4.985  16.678  0.00  0.00    +0.000 N 
ATOM      2  N   UNL     1       4.262   4.291  17.694  0.00  0.00    +0.000 NA
ATOM      3  C   UNL     1       3.398   4.892  18.473  0.00  0.00    +0.000 A 
ATOM      4  C   UNL     1       3.181   6.311  18.308  0.00  0.00    +0.000 A 
ATOM      5  C   UNL     1       2.504   7.299  18.990  0.00  0.00    +0.000 A 
ATOM      6  C   UNL     1       1.689   7.413  20.217  0.00  0.00    +0.000 C 
ATOM      7  O   UNL     1       2.668   8.481  18.324  0.00  0.00    +0.000 OA
ATOM      8  N   UNL     1       3.499   8.297  17.235  0.00  0.00    +0.000 NA
ATOM      9  C   UNL     1       3.820   6.998  17.256  0.00  0.00    +0.000 A 
ATOM     10  C   UNL     1       4.749   6.343  16.354  0.00  0.00    +0.000 A 
ATOM     11  O   UNL     1       5.327   6.924  15.443  0.00  0.00    +0.000 OA
ENDROOT
BRANCH   3  12
ATOM     12  C   UNL     1       2.671   4.093  19.491  0.00  0.00    +0.000 A 
ATOM     13  C   UNL     1       3.389   3.503  20.541  0.00  0.00    +0.000 A 
ATOM     14  C   UNL     1       2.721   2.746  21.507  0.00  0.00    +0.000 A 
ATOM     15  C   UNL     1       1.337   2.584  21.435  0.00  0.00    +0.000 A 
ATOM     16  C   UNL     1       0.623   3.143  20.377  0.00  0.00    +0.000 A 
ATOM     17  C   UNL     1       1.296   3.867  19.390  0.00  0.00    +0.000 A 
ENDBRANCH   3  12
BRANCH   1  18
ATOM     18  C   UNL     1       5.909   4.218  15.906  0.00  0.00    +0.000 C 
BRANCH  18  20
ATOM     19  C   UNL     1       7.556   4.719  17.741  0.00  0.00    +0.000 C 
ATOM     20  C   UNL     1       7.290   4.423  16.460  0.00  0.00    +0.000 C 
ENDBRANCH  18  20
ENDBRANCH   1  18
TORSDOF 3
ENDMDL
MODEL 4
REMARK VINA RESULT:      -7.0      3.176      5.142
REMARK  Name = 
REMARK  4 active torsions:
REMARK  status: ('A' for Active; 'I' for Inactive)
REMARK    1  A    between atoms: C_2  and  C_3
REMARK    2  A    between atoms: C_3  and  N_4
REMARK    3  A    between atoms: C_6  and  C_7
REMARK    4  A    between atoms: C_14  and  C_15
REMARK                            x       y       z     vdW  Elec       q    Type
REMARK                         _______ _______ _______ _____ _____    ______ ____
ROOT
ATOM      1  N   UNL     1       6.199   6.290  17.120  0.00  0.00    +0.000 N 
ATOM      2  N   UNL     1       5.144   7.090  17.595  0.00  0.00    +0.000 NA
ATOM      3  C   UNL     1       3.969   6.583  17.866  0.00  0.00    +0.000 A 
ATOM      4  C   UNL     1       3.744   5.176  17.621  0.00  0.00    +0.000 A 
ATOM      5  C   UNL     1       2.658   4.327  17.630  0.00  0.00    +0.000 A 
ATOM      6  C   UNL     1       1.204   4.421  17.869  0.00  0.00    +0.000 C 
ATOM      7  O   UNL     1       3.085   3.068  17.312  0.00  0.00    +0.000 OA
ATOM      8  N   UNL     1       4.439   3.086  17.035  0.00  0.00    +0.000 NA
ATOM      9  C   UNL     1       4.812   4.361  17.196  0.00  0.00    +0.000 A 
ATOM     10  C   UNL     1       6.136   4.894  16.932  0.00  0.00    +0.000 A 
ATOM     11  O   UNL     1       7.075   4.206  16.547  0.00  0.00    +0.000 OA
ENDROOT
BRANCH   3  12
ATOM     12  C   UNL     1       2.914   7.469  18.418  0.00  0.00    +0.000 A 
ATOM     13  C   UNL     1       2.460   7.261  19.728  0.00  0.00    +0.000 A 
ATOM     14  C   UNL     1       1.465   8.084  20.263  0.00  0.00    +0.000 A 
ATOM     15  C   UNL     1       0.931   9.122  19.500  0.00  0.00    +0.000 A 
ATOM     16  C   UNL     1       1.357   9.314  18.188  0.00  0.00    +0.000 A 
ATOM     17  C   UNL     1       2.323   8.466  17.639  0.00  0.00    +0.000 A 
ENDBRANCH   3  12
BRANCH   1  18
ATOM     18  C   UNL     1       7.446   6.975  16.814  0.00  0.00    +0.000 C 
BRANCH  18  20
ATOM     19  C   UNL     1       8.208   9.061  17.998  0.00  0.00    +0.000 C 
ATOM     20  C   UNL     1       7.913   7.753  18.011  0.00  0.00    +0.000 C 
ENDBRANCH  18  20
ENDBRANCH   1  18
TORSDOF 3
ENDMDL
MODEL 5
REMARK VINA RESULT:      -7.0      3.179      5.077
REMARK  Name = 
REMARK  4 active torsions:
REMARK  status: ('A' for Active; 'I' for Inactive)
REMARK    1  A    between atoms: C_2  and  C_3
REMARK    2  A    between atoms: C_3  and  N_4
REMARK    3  A    between atoms: C_6  and  C_7
REMARK    4  A    between atoms: C_14  and  C_15
REMARK                            x       y       z     vdW  Elec       q    Type
REMARK                         _______ _______ _______ _____ _____    ______ ____
ROOT
ATOM      1  N   UNL     1       6.148   6.249  17.112  0.00  0.00    +0.000 N 
ATOM      2  N   UNL     1       5.098   7.051  17.594  0.00  0.00    +0.000 NA
ATOM      3  C   UNL     1       3.925   6.545  17.876  0.00  0.00    +0.000 A 
ATOM      4  C   UNL     1       3.698   5.138  17.638  0.00  0.00    +0.000 A 
ATOM      5  C   UNL     1       2.612   4.289  17.658  0.00  0.00    +0.000 A 
ATOM      6  C   UNL     1       1.160   4.384  17.909  0.00  0.00    +0.000 C 
ATOM      7  O   UNL     1       3.036   3.029  17.340  0.00  0.00    +0.000 OA
ATOM      8  N   UNL     1       4.388   3.046  17.051  0.00  0.00    +0.000 NA
ATOM      9  C   UNL     1       4.762   4.321  17.206  0.00  0.00    +0.000 A 
ATOM     10  C   UNL     1       6.083   4.853  16.929  0.00  0.00    +0.000 A 
ATOM     11  O   UNL     1       7.019   4.164  16.538  0.00  0.00    +0.000 OA
ENDROOT
BRANCH   3  12
ATOM     12  C   UNL     1       2.875   7.433  18.435  0.00  0.00    +0.000 A 
ATOM     13  C   UNL     1       2.348   8.459  17.637  0.00  0.00    +0.000 A 
ATOM     14  C   UNL     1       1.361   9.306  18.147  0.00  0.00    +0.000 A 
ATOM     15  C   UNL     1       0.888   9.126  19.447  0.00  0.00    +0.000 A 
ATOM     16  C   UNL     1       1.429   8.127  20.254  0.00  0.00    +0.000 A 
ATOM     17  C   UNL     1       2.445   7.305  19.758  0.00  0.00    +0.000 A 
ENDBRANCH   3  12
BRANCH   1  18
ATOM     18  C   UNL     1       7.393   6.934  16.794  0.00  0.00    +0.000 C 
BRANCH  18  20
ATOM     19  C   UNL     1       8.208   9.001  17.975  0.00  0.00    +0.000 C 
ATOM     20  C   UNL     1       7.879   7.701  17.990  0.00  0.00    +0.000 C 
ENDBRANCH  18  20
ENDBRANCH   1  18
TORSDOF 3
ENDMDL
MODEL 6
REMARK VINA RESULT:      -7.0      2.721      3.388
REMARK  Name = 
REMARK  4 active torsions:
REMARK  status: ('A' for Active; 'I' for Inactive)
REMARK    1  A    between atoms: C_2  and  C_3
REMARK    2  A    between atoms: C_3  and  N_4
REMARK    3  A    between atoms: C_6  and  C_7
REMARK    4  A    between atoms: C_14  and  C_15
REMARK                            x       y       z     vdW  Elec       q    Type
REMARK                         _______ _______ _______ _____ _____    ______ ____
ROOT
ATOM      1  N   UNL     1       5.098   5.015  16.732  0.00  0.00    +0.000 N 
ATOM      2  N   UNL     1       4.389   4.316  17.724  0.00  0.00    +0.000 NA
ATOM      3  C   UNL     1       3.483   4.906  18.461  0.00  0.00    +0.000 A 
ATOM      4  C   UNL     1       3.246   6.319  18.277  0.00  0.00    +0.000 A 
ATOM      5  C   UNL     1       2.523   7.298  18.922  0.00  0.00    +0.000 A 
ATOM      6  C   UNL     1       1.655   7.405  20.113  0.00  0.00    +0.000 C 
ATOM      7  O   UNL     1       2.692   8.479  18.255  0.00  0.00    +0.000 OA
ATOM      8  N   UNL     1       3.571   8.303  17.203  0.00  0.00    +0.000 NA
ATOM      9  C   UNL     1       3.916   7.011  17.247  0.00  0.00    +0.000 A 
ATOM     10  C   UNL     1       4.893   6.367  16.390  0.00  0.00    +0.000 A 
ATOM     11  O   UNL     1       5.499   6.954  15.499  0.00  0.00    +0.000 OA
ENDROOT
BRANCH   3  12
ATOM     12  C   UNL     1       2.728   4.100  19.454  0.00  0.00    +0.000 A 
ATOM     13  C   UNL     1       3.406   3.561  20.557  0.00  0.00    +0.000 A 
ATOM     14  C   UNL     1       2.712   2.798  21.500  0.00  0.00    +0.000 A 
ATOM     15  C   UNL     1       1.342   2.580  21.353  0.00  0.00    +0.000 A 
ATOM     16  C   UNL     1       0.670   3.088  20.243  0.00  0.00    +0.000 A 
ATOM     17  C   UNL     1       1.371   3.818  19.279  0.00  0.00    +0.000 A 
ENDBRANCH   3  12
BRANCH   1  18
ATOM     18  C   UNL     1       6.111   4.262  16.006  0.00  0.00    +0.000 C 
BRANCH  18  20
ATOM     19  C   UNL     1       6.236   3.896  13.520  0.00  0.00    +0.000 C 
ATOM     20  C   UNL     1       5.568   3.813  14.680  0.00  0.00    +0.000 C 
ENDBRANCH  18  20
ENDBRANCH   1  18
TORSDOF 3
ENDMDL
MODEL 7
REMARK VINA RESULT:      -6.9      2.699      3.312
REMARK  Name = 
REMARK  4 active torsions:
REMARK  status: ('A' for Active; 'I' for Inactive)
REMARK    1  A    between atoms: C_2  and  C_3
REMARK    2  A    between atoms: C_3  and  N_4
REMARK    3  A    between atoms: C_6  and  C_7
REMARK    4  A    between atoms: C_14  and  C_15
REMARK                            x       y       z     vdW  Elec       q    Type
REMARK                         _______ _______ _______ _____ _____    ______ ____
ROOT
ATOM      1  N   UNL     1       5.197   5.000  16.827  0.00  0.00    +0.000 N 
ATOM      2  N   UNL     1       4.457   4.307  17.802  0.00  0.00    +0.000 NA
ATOM      3  C   UNL     1       3.520   4.899  18.498  0.00  0.00    +0.000 A 
ATOM      4  C   UNL     1       3.280   6.309  18.287  0.00  0.00    +0.000 A 
ATOM      5  C   UNL     1       2.526   7.290  18.894  0.00  0.00    +0.000 A 
ATOM      6  C   UNL     1       1.616   7.405  20.051  0.00  0.00    +0.000 C 
ATOM      7  O   UNL     1       2.711   8.463  18.218  0.00  0.00    +0.000 OA
ATOM      8  N   UNL     1       3.629   8.281  17.200  0.00  0.00    +0.000 NA
ATOM      9  C   UNL     1       3.981   6.993  17.274  0.00  0.00    +0.000 A 
ATOM     10  C   UNL     1       4.994   6.346  16.460  0.00  0.00    +0.000 A 
ATOM     11  O   UNL     1       5.627   6.926  15.585  0.00  0.00    +0.000 OA
ENDROOT
BRANCH   3  12
ATOM     12  C   UNL     1       2.737   4.100  19.473  0.00  0.00    +0.000 A 
ATOM     13  C   UNL     1       1.422   3.729  19.157  0.00  0.00    +0.000 A 
ATOM     14  C   UNL     1       0.669   2.979  20.064  0.00  0.00    +0.000 A 
ATOM     15  C   UNL     1       1.227   2.586  21.281  0.00  0.00    +0.000 A 
ATOM     16  C   UNL     1       2.523   2.977  21.612  0.00  0.00    +0.000 A 
ATOM     17  C   UNL     1       3.262   3.761  20.723  0.00  0.00    +0.000 A 
ENDBRANCH   3  12
BRANCH   1  18
ATOM     18  C   UNL     1       6.241   4.246  16.148  0.00  0.00    +0.000 C 
BRANCH  18  20
ATOM     19  C   UNL     1       6.193   3.939  13.651  0.00  0.00    +0.000 C 
ATOM     20  C   UNL     1       5.708   3.663  14.870  0.00  0.00    +0.000 C 
ENDBRANCH  18  20
ENDBRANCH   1  18
TORSDOF 3
ENDMDL
MODEL 8
REMARK VINA RESULT:      -6.9      2.771      3.833
REMARK  Name = 
REMARK  4 active torsions:
REMARK  status: ('A' for Active; 'I' for Inactive)
REMARK    1  A    between atoms: C_2  and  C_3
REMARK    2  A    between atoms: C_3  and  N_4
REMARK    3  A    between atoms: C_6  and  C_7
REMARK    4  A    between atoms: C_14  and  C_15
REMARK                            x       y       z     vdW  Elec       q    Type
REMARK                         _______ _______ _______ _____ _____    ______ ____
ROOT
ATOM      1  N   UNL     1       4.937   5.068  16.684  0.00  0.00    +0.000 N 
ATOM      2  N   UNL     1       4.227   4.383  17.686  0.00  0.00    +0.000 NA
ATOM      3  C   UNL     1       3.353   4.995  18.445  0.00  0.00    +0.000 A 
ATOM      4  C   UNL     1       3.156   6.417  18.274  0.00  0.00    +0.000 A 
ATOM      5  C   UNL     1       2.476   7.412  18.940  0.00  0.00    +0.000 A 
ATOM      6  C   UNL     1       1.636   7.537  20.149  0.00  0.00    +0.000 C 
ATOM      7  O   UNL     1       2.668   8.592  18.278  0.00  0.00    +0.000 OA
ATOM      8  N   UNL     1       3.521   8.397  17.207  0.00  0.00    +0.000 NA
ATOM      9  C   UNL     1       3.827   7.095  17.237  0.00  0.00    +0.000 A 
ATOM     10  C   UNL     1       4.767   6.428  16.356  0.00  0.00    +0.000 A 
ATOM     11  O   UNL     1       5.372   7.002  15.457  0.00  0.00    +0.000 OA
ENDROOT
BRANCH   3  12
ATOM     12  C   UNL     1       2.594   4.205  19.447  0.00  0.00    +0.000 A 
ATOM     13  C   UNL     1       1.431   3.531  19.050  0.00  0.00    +0.000 A 
ATOM     14  C   UNL     1       0.703   2.785  19.981  0.00  0.00    +0.000 A 
ATOM     15  C   UNL     1       1.138   2.699  21.304  0.00  0.00    +0.000 A 
ATOM     16  C   UNL     1       2.276   3.392  21.710  0.00  0.00    +0.000 A 
ATOM     17  C   UNL     1       2.983   4.170  20.788  0.00  0.00    +0.000 A 
ENDBRANCH   3  12
BRANCH   1  18
ATOM     18  C   UNL     1       5.912   4.290  15.934  0.00  0.00    +0.000 C 
BRANCH  18  20
ATOM     19  C   UNL     1       7.510   4.797  17.812  0.00  0.00    +0.000 C 
ATOM     20  C   UNL     1       7.279   4.461  16.534  0.00  0.00    +0.000 C 
ENDBRANCH  18  20
ENDBRANCH   1  18
TORSDOF 3
ENDMDL
MODEL 9
REMARK VINA RESULT:      -6.9      3.467      5.787
REMARK  Name = 
REMARK  4 active torsions:
REMARK  status: ('A' for Active; 'I' for Inactive)
REMARK    1  A    between atoms: C_2  and  C_3
REMARK    2  A    between atoms: C_3  and  N_4
REMARK    3  A    between atoms: C_6  and  C_7
REMARK    4  A    between atoms: C_14  and  C_15
REMARK                            x       y       z     vdW  Elec       q    Type
REMARK                         _______ _______ _______ _____ _____    ______ ____
ROOT
ATOM      1  N   UNL     1       2.220   3.341  18.762  0.00  0.00    +0.000 N 
ATOM      2  N   UNL     1       1.920   4.699  18.972  0.00  0.00    +0.000 NA
ATOM      3  C   UNL     1       2.651   5.650  18.448  0.00  0.00    +0.000 A 
ATOM      4  C   UNL     1       3.819   5.287  17.677  0.00  0.00    +0.000 A 
ATOM      5  C   UNL     1       4.883   5.955  17.112  0.00  0.00    +0.000 A 
ATOM      6  C   UNL     1       5.374   7.345  17.024  0.00  0.00    +0.000 C 
ATOM      7  O   UNL     1       5.688   5.045  16.486  0.00  0.00    +0.000 OA
ATOM      8  N   UNL     1       5.194   3.768  16.679  0.00  0.00    +0.000 NA
ATOM      9  C   UNL     1       4.091   3.928  17.419  0.00  0.00    +0.000 A 
ATOM     10  C   UNL     1       3.270   2.858  17.954  0.00  0.00    +0.000 A 
ATOM     11  O   UNL     1       3.498   1.670  17.756  0.00  0.00    +0.000 OA
ENDROOT
BRANCH   3  12
ATOM     12  C   UNL     1       2.250   7.063  18.661  0.00  0.00    +0.000 A 
ATOM     13  C   UNL     1       1.954   7.504  19.958  0.00  0.00    +0.000 A 
ATOM     14  C   UNL     1       1.573   8.831  20.176  0.00  0.00    +0.000 A 
ATOM     15  C   UNL     1       1.498   9.723  19.106  0.00  0.00    +0.000 A 
ATOM     16  C   UNL     1       1.762   9.282  17.811  0.00  0.00    +0.000 A 
ATOM     17  C   UNL     1       2.105   7.945  17.587  0.00  0.00    +0.000 A 
ENDBRANCH   3  12
BRANCH   1  18
ATOM     18  C   UNL     1       1.360   2.376  19.432  0.00  0.00    +0.000 C 
BRANCH  18  20
ATOM     19  C   UNL     1       2.090   2.688  21.820  0.00  0.00    +0.000 C 
ATOM     20  C   UNL     1       1.153   2.778  20.864  0.00  0.00    +0.000 C 
ENDBRANCH  18  20
ENDBRANCH   1  18
TORSDOF 3
ENDMDL
