MODEL 1
REMARK VINA RESULT:      -7.8      0.000      0.000
REMARK  Name = 
REMARK  5 active torsions:
REMARK  status: ('A' for Active; 'I' for Inactive)
REMARK    1  A    between atoms: C_1  and  N_2
REMARK    2  A    between atoms: C_3  and  C_5
REMARK    3  A    between atoms: N_15  and  C_16
REMARK    4  A    between atoms: C_16  and  C_17
REMARK    5  A    between atoms: C_21  and  C_22
REMARK                            x       y       z     vdW  Elec       q    Type
REMARK                         _______ _______ _______ _____ _____    ______ ____
ROOT
ATOM      1  C   UNL     1       2.405   6.582  20.102  0.00  0.00    +0.000 C 
ATOM      2  C   UNL     1       1.455   5.472  20.556  0.00  0.00    +0.000 C 
ATOM      3  N   UNL     1       1.709   4.228  19.865  0.00  0.00    +0.000 N 
ATOM      4  C   UNL     1       1.398   2.972  20.284  0.00  0.00    +0.000 A 
ATOM      5  C   UNL     1       1.878   2.148  19.294  0.00  0.00    +0.000 A 
ATOM      6  N   UNL     1       2.493   2.878  18.308  0.00  0.00    +0.000 NA
ATOM      7  C   UNL     1       2.448   4.133  18.714  0.00  0.00    +0.000 A 
ATOM      8  C   UNL     1       3.349   5.265  18.285  0.00  0.00    +0.000 C 
ATOM      9  C   UNL     1       4.706   5.000  18.953  0.00  0.00    +0.000 C 
ATOM     10  C   UNL     1       5.766   6.017  18.566  0.00  0.00    +0.000 C 
ATOM     11  N   UNL     1       5.992   6.193  17.123  0.00  0.00    +0.000 NA
ATOM     12  C   UNL     1       4.736   6.246  16.361  0.00  0.00    +0.000 C 
ATOM     13  C   UNL     1       3.581   5.307  16.768  0.00  0.00    +0.000 C 
ATOM     14  O   UNL     1       2.734   6.513  18.703  0.00  0.00    +0.000 OA
ENDROOT
BRANCH   1  17
ATOM     15  C   UNL     1       0.967   9.261  22.399  0.00  0.00    +0.000 C 
ATOM     16  N   UNL     1       1.624   8.103  21.848  0.00  0.00    +0.000 N 
ATOM     17  C   UNL     1       1.778   7.932  20.492  0.00  0.00    +0.000 C 
ATOM     18  O   UNL     1       1.371   8.738  19.660  0.00  0.00    +0.000 OA
ATOM     19  H   UNL     1       2.039   7.408  22.461  0.00  0.00    +0.000 HD
ENDBRANCH   1  17
BRANCH  11  20
ATOM     20  C   UNL     1       7.009   5.223  16.669  0.00  0.00    +0.000 C 
BRANCH  20  21
ATOM     21  C   UNL     1       7.029   4.695  15.245  0.00  0.00    +0.000 A 
ATOM     22  C   UNL     1       6.177   3.711  14.757  0.00  0.00    +0.000 A 
ATOM     23  C   UNL     1       6.156   3.468  13.379  0.00  0.00    +0.000 A 
ATOM     24  C   UNL     1       6.952   4.224  12.524  0.00  0.00    +0.000 A 
ATOM     25  C   UNL     1       7.765   5.206  13.073  0.00  0.00    +0.000 A 
ATOM     26  C   UNL     1       8.574   6.135  12.234  0.00  0.00    +0.000 C 
ATOM     27  N   UNL     1       7.823   5.416  14.405  0.00  0.00    +0.000 NA
ENDBRANCH  20  21
ENDBRANCH  11  20
TORSDOF 3
ENDMDL
MODEL 2
REMARK VINA RESULT:      -7.3      3.752      6.432
REMARK  Name = 
REMARK  5 active torsions:
REMARK  status: ('A' for Active; 'I' for Inactive)
REMARK    1  A    between atoms: C_1  and  N_2
REMARK    2  A    between atoms: C_3  and  C_5
REMARK    3  A    between atoms: N_15  and  C_16
REMARK    4  A    between atoms: C_16  and  C_17
REMARK    5  A    between atoms: C_21  and  C_22
REMARK                            x       y       z     vdW  Elec       q    Type
REMARK                         _______ _______ _______ _____ _____    ______ ____
ROOT
ATOM      1  C   UNL     1       0.903  12.115  20.180  0.00  0.00    +0.000 C 
ATOM      2  C   UNL     1      -0.415  12.733  19.708  0.00  0.00    +0.000 C 
ATOM      3  N   UNL     1      -1.221  11.787  18.969  0.00  0.00    +0.000 N 
ATOM      4  C   UNL     1      -2.568  11.817  18.785  0.00  0.00    +0.000 A 
ATOM      5  C   UNL     1      -2.841  10.687  18.050  0.00  0.00    +0.000 A 
ATOM      6  N   UNL     1      -1.695   9.969  17.815  0.00  0.00    +0.000 NA
ATOM      7  C   UNL     1      -0.735  10.615  18.450  0.00  0.00    +0.000 A 
ATOM      8  C   UNL     1       0.586  10.056  18.921  0.00  0.00    +0.000 C 
ATOM      9  C   UNL     1       0.259   9.165  20.128  0.00  0.00    +0.000 C 
ATOM     10  C   UNL     1       1.481   8.457  20.689  0.00  0.00    +0.000 C 
ATOM     11  N   UNL     1       2.260   7.661  19.728  0.00  0.00    +0.000 NA
ATOM     12  C   UNL     1       2.447   8.354  18.446  0.00  0.00    +0.000 C 
ATOM     13  C   UNL     1       1.275   9.175  17.869  0.00  0.00    +0.000 C 
ATOM     14  O   UNL     1       1.456  11.172  19.245  0.00  0.00    +0.000 OA
ENDROOT
BRANCH   1  17
ATOM     15  C   UNL     1       3.747  14.585  19.605  0.00  0.00    +0.000 C 
ATOM     16  N   UNL     1       2.705  13.600  19.461  0.00  0.00    +0.000 N 
ATOM     17  C   UNL     1       1.875  13.262  20.504  0.00  0.00    +0.000 C 
ATOM     18  O   UNL     1       1.959  13.764  21.622  0.00  0.00    +0.000 OA
ATOM     19  H   UNL     1       2.526  13.170  18.559  0.00  0.00    +0.000 HD
ENDBRANCH   1  17
BRANCH  11  20
ATOM     20  C   UNL     1       1.710   6.291  19.674  0.00  0.00    +0.000 C 
BRANCH  20  21
ATOM     21  C   UNL     1       2.413   5.177  18.918  0.00  0.00    +0.000 A 
ATOM     22  C   UNL     1       1.797   4.346  17.989  0.00  0.00    +0.000 A 
ATOM     23  C   UNL     1       2.600   3.504  17.210  0.00  0.00    +0.000 A 
ATOM     24  C   UNL     1       3.984   3.534  17.349  0.00  0.00    +0.000 A 
ATOM     25  C   UNL     1       4.537   4.402  18.281  0.00  0.00    +0.000 A 
ATOM     26  C   UNL     1       6.008   4.581  18.431  0.00  0.00    +0.000 C 
ATOM     27  N   UNL     1       3.766   5.184  19.066  0.00  0.00    +0.000 NA
ENDBRANCH  20  21
ENDBRANCH  11  20
TORSDOF 3
ENDMDL
MODEL 3
REMARK VINA RESULT:      -7.3      2.880      4.716
REMARK  Name = 
REMARK  5 active torsions:
REMARK  status: ('A' for Active; 'I' for Inactive)
REMARK    1  A    between atoms: C_1  and  N_2
REMARK    2  A    between atoms: C_3  and  C_5
REMARK    3  A    between atoms: N_15  and  C_16
REMARK    4  A    between atoms: C_16  and  C_17
REMARK    5  A    between atoms: C_21  and  C_22
REMARK                            x       y       z     vdW  Elec       q    Type
REMARK                         _______ _______ _______ _____ _____    ______ ____
ROOT
ATOM      1  C   UNL     1       4.624   1.747  20.325  0.00  0.00    +0.000 C 
ATOM      2  C   UNL     1       3.363   2.006  21.151  0.00  0.00    +0.000 C 
ATOM      3  N   UNL     1       2.710   3.237  20.768  0.00  0.00    +0.000 N 
ATOM      4  C   UNL     1       1.402   3.568  20.943  0.00  0.00    +0.000 A 
ATOM      5  C   UNL     1       1.283   4.817  20.380  0.00  0.00    +0.000 A 
ATOM      6  N   UNL     1       2.479   5.228  19.848  0.00  0.00    +0.000 NA
ATOM      7  C   UNL     1       3.312   4.220  20.025  0.00  0.00    +0.000 A 
ATOM      8  C   UNL     1       4.574   3.930  19.250  0.00  0.00    +0.000 C 
ATOM      9  C   UNL     1       4.117   3.433  17.871  0.00  0.00    +0.000 C 
ATOM     10  C   UNL     1       5.275   3.160  16.926  0.00  0.00    +0.000 C 
ATOM     11  N   UNL     1       6.215   4.274  16.723  0.00  0.00    +0.000 NA
ATOM     12  C   UNL     1       6.553   4.958  17.978  0.00  0.00    +0.000 C 
ATOM     13  C   UNL     1       5.442   5.178  19.026  0.00  0.00    +0.000 C 
ATOM     14  O   UNL     1       5.344   2.949  19.993  0.00  0.00    +0.000 OA
ENDROOT
BRANCH   1  17
ATOM     15  C   UNL     1       6.446  -1.533  20.989  0.00  0.00    +0.000 C 
ATOM     16  N   UNL     1       5.735  -0.429  20.398  0.00  0.00    +0.000 N 
ATOM     17  C   UNL     1       5.493   0.734  21.091  0.00  0.00    +0.000 C 
ATOM     18  O   UNL     1       5.857   0.917  22.249  0.00  0.00    +0.000 OA
ATOM     19  H   UNL     1       5.440  -0.469  19.427  0.00  0.00    +0.000 HD
ENDBRANCH   1  17
BRANCH  11  20
ATOM     20  C   UNL     1       5.734   5.117  15.609  0.00  0.00    +0.000 C 
BRANCH  20  21
ATOM     21  C   UNL     1       6.247   4.936  14.191  0.00  0.00    +0.000 A 
ATOM     22  C   UNL     1       7.431   5.481  13.706  0.00  0.00    +0.000 A 
ATOM     23  C   UNL     1       7.893   5.064  12.452  0.00  0.00    +0.000 A 
ATOM     24  C   UNL     1       7.192   4.101  11.733  0.00  0.00    +0.000 A 
ATOM     25  C   UNL     1       6.028   3.582  12.284  0.00  0.00    +0.000 A 
ATOM     26  C   UNL     1       5.264   2.476  11.640  0.00  0.00    +0.000 C 
ATOM     27  N   UNL     1       5.553   4.012  13.472  0.00  0.00    +0.000 NA
ENDBRANCH  20  21
ENDBRANCH  11  20
TORSDOF 3
ENDMDL
MODEL 4
REMARK VINA RESULT:      -7.2      3.026      7.182
REMARK  Name = 
REMARK  5 active torsions:
REMARK  status: ('A' for Active; 'I' for Inactive)
REMARK    1  A    between atoms: C_1  and  N_2
REMARK    2  A    between atoms: C_3  and  C_5
REMARK    3  A    between atoms: N_15  and  C_16
REMARK    4  A    between atoms: C_16  and  C_17
REMARK    5  A    between atoms: C_21  and  C_22
REMARK                            x       y       z     vdW  Elec       q    Type
REMARK                         _______ _______ _______ _____ _____    ______ ____
ROOT
ATOM      1  C   UNL     1       4.644   4.889  18.665  0.00  0.00    +0.000 C 
ATOM      2  C   UNL     1       4.247   3.413  18.597  0.00  0.00    +0.000 C 
ATOM      3  N   UNL     1       2.832   3.223  18.820  0.00  0.00    +0.000 N 
ATOM      4  C   UNL     1       2.065   2.173  18.418  0.00  0.00    +0.000 A 
ATOM      5  C   UNL     1       0.797   2.488  18.844  0.00  0.00    +0.000 A 
ATOM      6  N   UNL     1       0.780   3.713  19.464  0.00  0.00    +0.000 NA
ATOM      7  C   UNL     1       2.012   4.176  19.368  0.00  0.00    +0.000 A 
ATOM      8  C   UNL     1       2.456   5.616  19.445  0.00  0.00    +0.000 C 
ATOM      9  C   UNL     1       2.010   6.265  18.126  0.00  0.00    +0.000 C 
ATOM     10  C   UNL     1       2.316   7.751  18.064  0.00  0.00    +0.000 C 
ATOM     11  N   UNL     1       1.792   8.563  19.174  0.00  0.00    +0.000 NA
ATOM     12  C   UNL     1       1.984   7.917  20.480  0.00  0.00    +0.000 C 
ATOM     13  C   UNL     1       1.786   6.391  20.590  0.00  0.00    +0.000 C 
ATOM     14  O   UNL     1       3.894   5.635  19.641  0.00  0.00    +0.000 OA
ENDROOT
BRANCH   1  17
ATOM     15  C   UNL     1       8.348   4.322  17.976  0.00  0.00    +0.000 C 
ATOM     16  N   UNL     1       6.914   4.432  17.887  0.00  0.00    +0.000 N 
ATOM     17  C   UNL     1       6.161   4.961  18.907  0.00  0.00    +0.000 C 
ATOM     18  O   UNL     1       6.644   5.373  19.959  0.00  0.00    +0.000 OA
ATOM     19  H   UNL     1       6.431   4.165  17.034  0.00  0.00    +0.000 HD
ENDBRANCH   1  17
BRANCH  11  20
ATOM     20  C   UNL     1       0.423   9.010  18.844  0.00  0.00    +0.000 C 
BRANCH  20  21
ATOM     21  C   UNL     1       0.106  10.468  18.562  0.00  0.00    +0.000 A 
ATOM     22  C   UNL     1      -1.178  10.979  18.407  0.00  0.00    +0.000 A 
ATOM     23  C   UNL     1      -1.342  12.369  18.363  0.00  0.00    +0.000 A 
ATOM     24  C   UNL     1      -0.242  13.208  18.505  0.00  0.00    +0.000 A 
ATOM     25  C   UNL     1       1.010  12.634  18.677  0.00  0.00    +0.000 A 
ATOM     26  C   UNL     1       2.232  13.445  18.941  0.00  0.00    +0.000 C 
ATOM     27  N   UNL     1       1.182  11.294  18.676  0.00  0.00    +0.000 NA
ENDBRANCH  20  21
ENDBRANCH  11  20
TORSDOF 3
ENDMDL
MODEL 5
REMARK VINA RESULT:      -7.1      3.728      7.020
REMARK  Name = 
REMARK  5 active torsions:
REMARK  status: ('A' for Active; 'I' for Inactive)
REMARK    1  A    between atoms: C_1  and  N_2
REMARK    2  A    between atoms: C_3  and  C_5
REMARK    3  A    between atoms: N_15  and  C_16
REMARK    4  A    between atoms: C_16  and  C_17
REMARK    5  A    between atoms: C_21  and  C_22
REMARK                            x       y       z     vdW  Elec       q    Type
REMARK                         _______ _______ _______ _____ _____    ______ ____
ROOT
ATOM      1  C   UNL     1       0.724  12.202  20.325  0.00  0.00    +0.000 C 
ATOM      2  C   UNL     1      -0.544  12.819  19.733  0.00  0.00    +0.000 C 
ATOM      3  N   UNL     1      -1.342  11.843  19.027  0.00  0.00    +0.000 N 
ATOM      4  C   UNL     1      -2.676  11.899  18.766  0.00  0.00    +0.000 A 
ATOM      5  C   UNL     1      -2.949  10.723  18.109  0.00  0.00    +0.000 A 
ATOM      6  N   UNL     1      -1.818   9.953  17.995  0.00  0.00    +0.000 NA
ATOM      7  C   UNL     1      -0.871  10.618  18.630  0.00  0.00    +0.000 A 
ATOM      8  C   UNL     1       0.402  10.059  19.216  0.00  0.00    +0.000 C 
ATOM      9  C   UNL     1      -0.019   9.278  20.469  0.00  0.00    +0.000 C 
ATOM     10  C   UNL     1       1.146   8.581  21.151  0.00  0.00    +0.000 C 
ATOM     11  N   UNL     1       1.947   7.686  20.301  0.00  0.00    +0.000 NA
ATOM     12  C   UNL     1       2.225   8.268  18.981  0.00  0.00    +0.000 C 
ATOM     13  C   UNL     1       1.115   9.075  18.276  0.00  0.00    +0.000 C 
ATOM     14  O   UNL     1       1.293  11.170  19.499  0.00  0.00    +0.000 OA
ENDROOT
BRANCH   1  17
ATOM     15  C   UNL     1       3.671  14.538  19.710  0.00  0.00    +0.000 C 
ATOM     16  N   UNL     1       2.604  13.577  19.588  0.00  0.00    +0.000 N 
ATOM     17  C   UNL     1       1.717  13.341  20.611  0.00  0.00    +0.000 C 
ATOM     18  O   UNL     1       1.766  13.921  21.693  0.00  0.00    +0.000 OA
ATOM     19  H   UNL     1       2.453  13.087  18.711  0.00  0.00    +0.000 HD
ENDBRANCH   1  17
BRANCH  11  20
ATOM     20  C   UNL     1       1.352   6.334  20.324  0.00  0.00    +0.000 C 
BRANCH  20  21
ATOM     21  C   UNL     1       2.209   5.087  20.456  0.00  0.00    +0.000 A 
ATOM     22  C   UNL     1       1.841   3.950  21.168  0.00  0.00    +0.000 A 
ATOM     23  C   UNL     1       2.624   2.797  21.034  0.00  0.00    +0.000 A 
ATOM     24  C   UNL     1       3.722   2.792  20.181  0.00  0.00    +0.000 A 
ATOM     25  C   UNL     1       4.023   3.955  19.484  0.00  0.00    +0.000 A 
ATOM     26  C   UNL     1       5.114   4.019  18.471  0.00  0.00    +0.000 C 
ATOM     27  N   UNL     1       3.300   5.084  19.641  0.00  0.00    +0.000 NA
ENDBRANCH  20  21
ENDBRANCH  11  20
TORSDOF 3
ENDMDL
MODEL 6
REMARK VINA RESULT:      -7.1      3.149      7.413
REMARK  Name = 
REMARK  5 active torsions:
REMARK  status: ('A' for Active; 'I' for Inactive)
REMARK    1  A    between atoms: C_1  and  N_2
REMARK    2  A    between atoms: C_3  and  C_5
REMARK    3  A    between atoms: N_15  and  C_16
REMARK    4  A    between atoms: C_16  and  C_17
REMARK    5  A    between atoms: C_21  and  C_22
REMARK                            x       y       z     vdW  Elec       q    Type
REMARK                         _______ _______ _______ _____ _____    ______ ____
ROOT
ATOM      1  C   UNL     1       4.722   4.777  18.243  0.00  0.00    +0.000 C 
ATOM      2  C   UNL     1       4.305   3.305  18.217  0.00  0.00    +0.000 C 
ATOM      3  N   UNL     1       2.910   3.133  18.554  0.00  0.00    +0.000 N 
ATOM      4  C   UNL     1       2.103   2.090  18.222  0.00  0.00    +0.000 A 
ATOM      5  C   UNL     1       0.876   2.422  18.746  0.00  0.00    +0.000 A 
ATOM      6  N   UNL     1       0.923   3.650  19.358  0.00  0.00    +0.000 NA
ATOM      7  C   UNL     1       2.148   4.098  19.161  0.00  0.00    +0.000 A 
ATOM      8  C   UNL     1       2.612   5.534  19.192  0.00  0.00    +0.000 C 
ATOM      9  C   UNL     1       2.069   6.180  17.909  0.00  0.00    +0.000 C 
ATOM     10  C   UNL     1       2.385   7.663  17.814  0.00  0.00    +0.000 C 
ATOM     11  N   UNL     1       1.961   8.486  18.957  0.00  0.00    +0.000 NA
ATOM     12  C   UNL     1       2.250   7.846  20.247  0.00  0.00    +0.000 C 
ATOM     13  C   UNL     1       2.045   6.323  20.382  0.00  0.00    +0.000 C 
ATOM     14  O   UNL     1       4.062   5.537  19.272  0.00  0.00    +0.000 OA
ENDROOT
BRANCH   1  17
ATOM     15  C   UNL     1       8.102   5.616  19.790  0.00  0.00    +0.000 C 
ATOM     16  N   UNL     1       6.702   5.389  19.539  0.00  0.00    +0.000 N 
ATOM     17  C   UNL     1       6.255   4.834  18.363  0.00  0.00    +0.000 C 
ATOM     18  O   UNL     1       7.003   4.496  17.449  0.00  0.00    +0.000 OA
ATOM     19  H   UNL     1       6.012   5.589  20.257  0.00  0.00    +0.000 HD
ENDBRANCH   1  17
BRANCH  11  20
ATOM     20  C   UNL     1       0.575   8.947  18.735  0.00  0.00    +0.000 C 
BRANCH  20  21
ATOM     21  C   UNL     1       0.181  10.404  18.905  0.00  0.00    +0.000 A 
ATOM     22  C   UNL     1       1.057  11.476  18.776  0.00  0.00    +0.000 A 
ATOM     23  C   UNL     1       0.526  12.772  18.747  0.00  0.00    +0.000 A 
ATOM     24  C   UNL     1      -0.850  12.965  18.814  0.00  0.00    +0.000 A 
ATOM     25  C   UNL     1      -1.670  11.851  18.921  0.00  0.00    +0.000 A 
ATOM     26  C   UNL     1      -3.156  11.947  18.895  0.00  0.00    +0.000 C 
ATOM     27  N   UNL     1      -1.163  10.601  18.994  0.00  0.00    +0.000 NA
ENDBRANCH  20  21
ENDBRANCH  11  20
TORSDOF 3
ENDMDL
MODEL 7
REMARK VINA RESULT:      -7.1      3.111      7.677
REMARK  Name = 
REMARK  5 active torsions:
REMARK  status: ('A' for Active; 'I' for Inactive)
REMARK    1  A    between atoms: C_1  and  N_2
REMARK    2  A    between atoms: C_3  and  C_5
REMARK    3  A    between atoms: N_15  and  C_16
REMARK    4  A    between atoms: C_16  and  C_17
REMARK    5  A    between atoms: C_21  and  C_22
REMARK                            x       y       z     vdW  Elec       q    Type
REMARK                         _______ _______ _______ _____ _____    ______ ____
ROOT
ATOM      1  C   UNL     1       4.642   4.837  18.215  0.00  0.00    +0.000 C 
ATOM      2  C   UNL     1       4.224   3.367  18.152  0.00  0.00    +0.000 C 
ATOM      3  N   UNL     1       2.837   3.183  18.515  0.00  0.00    +0.000 N 
ATOM      4  C   UNL     1       2.022   2.151  18.169  0.00  0.00    +0.000 A 
ATOM      5  C   UNL     1       0.808   2.467  18.732  0.00  0.00    +0.000 A 
ATOM      6  N   UNL     1       0.869   3.674  19.381  0.00  0.00    +0.000 NA
ATOM      7  C   UNL     1       2.090   4.129  19.170  0.00  0.00    +0.000 A 
ATOM      8  C   UNL     1       2.555   5.563  19.236  0.00  0.00    +0.000 C 
ATOM      9  C   UNL     1       1.983   6.250  17.988  0.00  0.00    +0.000 C 
ATOM     10  C   UNL     1       2.298   7.735  17.932  0.00  0.00    +0.000 C 
ATOM     11  N   UNL     1       1.901   8.521  19.110  0.00  0.00    +0.000 NA
ATOM     12  C   UNL     1       2.220   7.840  20.372  0.00  0.00    +0.000 C 
ATOM     13  C   UNL     1       2.017   6.313  20.464  0.00  0.00    +0.000 C 
ATOM     14  O   UNL     1       4.006   5.564  19.282  0.00  0.00    +0.000 OA
ENDROOT
BRANCH   1  17
ATOM     15  C   UNL     1       8.058   5.637  19.702  0.00  0.00    +0.000 C 
ATOM     16  N   UNL     1       6.652   5.417  19.478  0.00  0.00    +0.000 N 
ATOM     17  C   UNL     1       6.177   4.890  18.300  0.00  0.00    +0.000 C 
ATOM     18  O   UNL     1       6.904   4.574  17.362  0.00  0.00    +0.000 OA
ATOM     19  H   UNL     1       5.980   5.600  20.217  0.00  0.00    +0.000 HD
ENDBRANCH   1  17
BRANCH  11  20
ATOM     20  C   UNL     1       0.510   8.989  18.935  0.00  0.00    +0.000 C 
BRANCH  20  21
ATOM     21  C   UNL     1       0.030  10.304  19.525  0.00  0.00    +0.000 A 
ATOM     22  C   UNL     1      -0.347  11.412  18.774  0.00  0.00    +0.000 A 
ATOM     23  C   UNL     1      -0.969  12.481  19.429  0.00  0.00    +0.000 A 
ATOM     24  C   UNL     1      -1.227  12.410  20.795  0.00  0.00    +0.000 A 
ATOM     25  C   UNL     1      -0.843  11.267  21.482  0.00  0.00    +0.000 A 
ATOM     26  C   UNL     1      -1.165  11.053  22.920  0.00  0.00    +0.000 C 
ATOM     27  N   UNL     1      -0.203  10.250  20.865  0.00  0.00    +0.000 NA
ENDBRANCH  20  21
ENDBRANCH  11  20
TORSDOF 3
ENDMDL
MODEL 8
REMARK VINA RESULT:      -7.0      4.017      6.704
REMARK  Name = 
REMARK  5 active torsions:
REMARK  status: ('A' for Active; 'I' for Inactive)
REMARK    1  A    between atoms: C_1  and  N_2
REMARK    2  A    between atoms: C_3  and  C_5
REMARK    3  A    between atoms: N_15  and  C_16
REMARK    4  A    between atoms: C_16  and  C_17
REMARK    5  A    between atoms: C_21  and  C_22
REMARK                            x       y       z     vdW  Elec       q    Type
REMARK                         _______ _______ _______ _____ _____    ______ ____
ROOT
ATOM      1  C   UNL     1       1.318  12.061  19.554  0.00  0.00    +0.000 C 
ATOM      2  C   UNL     1       0.046  12.698  18.991  0.00  0.00    +0.000 C 
ATOM      3  N   UNL     1      -0.848  11.713  18.426  0.00  0.00    +0.000 N 
ATOM      4  C   UNL     1      -2.192  11.823  18.247  0.00  0.00    +0.000 A 
ATOM      5  C   UNL     1      -2.569  10.613  17.714  0.00  0.00    +0.000 A 
ATOM      6  N   UNL     1      -1.490   9.773  17.597  0.00  0.00    +0.000 NA
ATOM      7  C   UNL     1      -0.469  10.434  18.109  0.00  0.00    +0.000 A 
ATOM      8  C   UNL     1       0.811   9.854  18.660  0.00  0.00    +0.000 C 
ATOM      9  C   UNL     1       0.437   9.207  20.001  0.00  0.00    +0.000 C 
ATOM     10  C   UNL     1       1.608   8.504  20.666  0.00  0.00    +0.000 C 
ATOM     11  N   UNL     1       2.302   7.496  19.849  0.00  0.00    +0.000 NA
ATOM     12  C   UNL     1       2.519   7.948  18.468  0.00  0.00    +0.000 C 
ATOM     13  C   UNL     1       1.406   8.755  17.767  0.00  0.00    +0.000 C 
ATOM     14  O   UNL     1       1.775  10.932  18.787  0.00  0.00    +0.000 OA
ENDROOT
BRANCH   1  17
ATOM     15  C   UNL     1       4.032  14.473  18.397  0.00  0.00    +0.000 C 
ATOM     16  N   UNL     1       2.947  13.528  18.474  0.00  0.00    +0.000 N 
ATOM     17  C   UNL     1       2.386  13.161  19.675  0.00  0.00    +0.000 C 
ATOM     18  O   UNL     1       2.763  13.602  20.757  0.00  0.00    +0.000 OA
ATOM     19  H   UNL     1       2.535  13.150  17.627  0.00  0.00    +0.000 HD
ENDBRANCH   1  17
BRANCH  11  20
ATOM     20  C   UNL     1       1.641   6.187  20.029  0.00  0.00    +0.000 C 
BRANCH  20  21
ATOM     21  C   UNL     1       2.082   4.958  19.254  0.00  0.00    +0.000 A 
ATOM     22  C   UNL     1       1.900   4.781  17.887  0.00  0.00    +0.000 A 
ATOM     23  C   UNL     1       2.539   3.704  17.262  0.00  0.00    +0.000 A 
ATOM     24  C   UNL     1       3.361   2.856  17.998  0.00  0.00    +0.000 A 
ATOM     25  C   UNL     1       3.517   3.100  19.355  0.00  0.00    +0.000 A 
ATOM     26  C   UNL     1       4.454   2.314  20.206  0.00  0.00    +0.000 C 
ATOM     27  N   UNL     1       2.869   4.111  19.973  0.00  0.00    +0.000 NA
ENDBRANCH  20  21
ENDBRANCH  11  20
TORSDOF 3
ENDMDL
MODEL 9
REMARK VINA RESULT:      -7.0      3.906      6.624
REMARK  Name = 
REMARK  5 active torsions:
REMARK  status: ('A' for Active; 'I' for Inactive)
REMARK    1  A    between atoms: C_1  and  N_2
REMARK    2  A    between atoms: C_3  and  C_5
REMARK    3  A    between atoms: N_15  and  C_16
REMARK    4  A    between atoms: C_16  and  C_17
REMARK    5  A    between atoms: C_21  and  C_22
REMARK                            x       y       z     vdW  Elec       q    Type
REMARK                         _______ _______ _______ _____ _____    ______ ____
ROOT
ATOM      1  C   UNL     1       0.255  12.384  19.809  0.00  0.00    +0.000 C 
ATOM      2  C   UNL     1      -1.094  12.801  19.220  0.00  0.00    +0.000 C 
ATOM      3  N   UNL     1      -1.759  11.701  18.560  0.00  0.00    +0.000 N 
ATOM      4  C   UNL     1      -3.091  11.564  18.322  0.00  0.00    +0.000 A 
ATOM      5  C   UNL     1      -3.208  10.339  17.707  0.00  0.00    +0.000 A 
ATOM      6  N   UNL     1      -1.984   9.729  17.599  0.00  0.00    +0.000 NA
ATOM      7  C   UNL     1      -1.129  10.539  18.194  0.00  0.00    +0.000 A 
ATOM      8  C   UNL     1       0.217  10.181  18.775  0.00  0.00    +0.000 C 
ATOM      9  C   UNL     1      -0.075   9.393  20.061  0.00  0.00    +0.000 C 
ATOM     10  C   UNL     1       1.183   8.886  20.743  0.00  0.00    +0.000 C 
ATOM     11  N   UNL     1       2.088   8.081  19.909  0.00  0.00    +0.000 NA
ATOM     12  C   UNL     1       2.266   8.650  18.566  0.00  0.00    +0.000 C 
ATOM     13  C   UNL     1       1.046   9.272  17.855  0.00  0.00    +0.000 C 
ATOM     14  O   UNL     1       0.950  11.413  19.006  0.00  0.00    +0.000 OA
ENDROOT
BRANCH   1  17
ATOM     15  C   UNL     1       1.881  15.216  21.773  0.00  0.00    +0.000 C 
ATOM     16  N   UNL     1       1.220  14.003  21.365  0.00  0.00    +0.000 N 
ATOM     17  C   UNL     1       1.085  13.658  20.041  0.00  0.00    +0.000 C 
ATOM     18  O   UNL     1       1.509  14.349  19.118  0.00  0.00    +0.000 OA
ATOM     19  H   UNL     1       0.884  13.343  22.060  0.00  0.00    +0.000 HD
ENDBRANCH   1  17
BRANCH  11  20
ATOM     20  C   UNL     1       1.686   6.661  19.986  0.00  0.00    +0.000 C 
BRANCH  20  21
ATOM     21  C   UNL     1       2.458   5.572  19.262  0.00  0.00    +0.000 A 
ATOM     22  C   UNL     1       1.924   4.753  18.273  0.00  0.00    +0.000 A 
ATOM     23  C   UNL     1       2.794   3.938  17.540  0.00  0.00    +0.000 A 
ATOM     24  C   UNL     1       4.163   3.981  17.782  0.00  0.00    +0.000 A 
ATOM     25  C   UNL     1       4.634   4.836  18.769  0.00  0.00    +0.000 A 
ATOM     26  C   UNL     1       6.088   5.029  19.032  0.00  0.00    +0.000 C 
ATOM     27  N   UNL     1       3.796   5.592  19.511  0.00  0.00    +0.000 NA
ENDBRANCH  20  21
ENDBRANCH  11  20
TORSDOF 3
ENDMDL
