MODEL 1
REMARK VINA RESULT:      -6.9      0.000      0.000
REMARK  Name = 
REMARK  17 active torsions:
REMARK  status: ('A' for Active; 'I' for Inactive)
REMARK    1  A    between atoms: C_1  and  N_2
REMARK    2  A    between atoms: C_3  and  C_5
REMARK    3  A    between atoms: N_7  and  C_8
REMARK    4  A    between atoms: C_8  and  C_9
REMARK    5  A    between atoms: C_9  and  C_10
REMARK    6  A    between atoms: C_10  and  C_11
REMARK    7  A    between atoms: C_11  and  C_12
REMARK    8  A    between atoms: C_13  and  C_14
REMARK    9  A    between atoms: C_14  and  C_15
REMARK   10  A    between atoms: C_15  and  C_16
REMARK   11  A    between atoms: C_16  and  C_17
REMARK   12  A    between atoms: C_17  and  C_18
REMARK   13  A    between atoms: C_18  and  C_19
REMARK   14  A    between atoms: C_19  and  C_20
REMARK   15  A    between atoms: C_20  and  C_21
REMARK   16  A    between atoms: C_21  and  C_22
REMARK   17  A    between atoms: C_22  and  C_23
REMARK                            x       y       z     vdW  Elec       q    Type
REMARK                         _______ _______ _______ _____ _____    ______ ____
ROOT
ATOM      1  C   UNL     1       1.796   5.235  18.011  0.00  0.00    +0.000 C 
ENDROOT
BRANCH   1   3
ATOM      2  C   UNL     1       2.404   7.430  19.115  0.00  0.00    +0.000 C 
ATOM      3  C   UNL     1       2.296   6.094  19.142  0.00  0.00    +0.000 C 
BRANCH   2   4
ATOM      4  C   UNL     1       2.008   8.263  17.935  0.00  0.00    +0.000 C 
BRANCH   4   5
ATOM      5  C   UNL     1       1.523   9.648  18.336  0.00  0.00    +0.000 C 
BRANCH   5   6
ATOM      6  C   UNL     1       0.909   9.605  19.733  0.00  0.00    +0.000 C 
BRANCH   6   7
ATOM      7  C   UNL     1      -0.111  10.719  19.903  0.00  0.00    +0.000 C 
BRANCH   7  10
ATOM      8  C   UNL     1      -1.517  11.645  18.089  0.00  0.00    +0.000 C 
ATOM      9  O   UNL     1      -1.031  12.759  17.991  0.00  0.00    +0.000 OA
ATOM     10  N   UNL     1      -1.165  10.625  18.922  0.00  0.00    +0.000 N 
ATOM     11  H   UNL     1      -1.691   9.759  18.822  0.00  0.00    +0.000 HD
BRANCH   8  14
ATOM     12  C   UNL     1      -3.149  10.459  14.942  0.00  0.00    +0.000 C 
ATOM     13  N   UNL     1      -2.242  10.818  15.994  0.00  0.00    +0.000 N 
ATOM     14  C   UNL     1      -2.681  11.328  17.178  0.00  0.00    +0.000 C 
ATOM     15  O   UNL     1      -3.826  11.543  17.530  0.00  0.00    +0.000 OA
ATOM     16  H   UNL     1      -1.234  10.724  15.878  0.00  0.00    +0.000 HD
ENDBRANCH   8  14
ENDBRANCH   7  10
ENDBRANCH   6   7
ENDBRANCH   5   6
ENDBRANCH   4   5
ENDBRANCH   2   4
ENDBRANCH   1   3
BRANCH   1  17
ATOM     17  C   UNL     1       1.272   3.882  18.491  0.00  0.00    +0.000 C 
BRANCH  17  18
ATOM     18  C   UNL     1       1.071   3.853  20.003  0.00  0.00    +0.000 C 
BRANCH  18  19
ATOM     19  C   UNL     1       2.316   3.354  20.720  0.00  0.00    +0.000 C 
BRANCH  19  20
ATOM     20  C   UNL     1       3.103   2.426  19.801  0.00  0.00    +0.000 C 
BRANCH  20  21
ATOM     21  C   UNL     1       4.554   2.870  19.709  0.00  0.00    +0.000 C 
BRANCH  21  22
ATOM     22  C   UNL     1       4.839   3.521  18.361  0.00  0.00    +0.000 C 
BRANCH  22  23
ATOM     23  C   UNL     1       5.768   4.715  18.544  0.00  0.00    +0.000 C 
BRANCH  23  24
ATOM     24  C   UNL     1       5.514   5.787  17.493  0.00  0.00    +0.000 C 
BRANCH  24  25
ATOM     25  C   UNL     1       6.257   5.431  16.250  0.00  0.00    +0.000 A 
ATOM     26  N   UNL     1       7.439   5.856  15.957  0.00  0.00    +0.000 NA
ATOM     27  O   UNL     1       7.707   5.311  14.662  0.00  0.00    +0.000 OA
ATOM     28  C   UNL     1       6.594   4.588  14.316  0.00  0.00    +0.000 A 
ATOM     29  O   UNL     1       6.439   3.975  13.272  0.00  0.00    +0.000 OA
ATOM     30  N   UNL     1       5.701   4.673  15.313  0.00  0.00    +0.000 N 
ATOM     31  H   UNL     1       4.799   4.235  15.299  0.00  0.00    +0.000 HD
ENDBRANCH  24  25
ENDBRANCH  23  24
ENDBRANCH  22  23
ENDBRANCH  21  22
ENDBRANCH  20  21
ENDBRANCH  19  20
ENDBRANCH  18  19
ENDBRANCH  17  18
ENDBRANCH   1  17
TORSDOF 16
ENDMDL
MODEL 2
REMARK VINA RESULT:      -6.4      1.899      2.584
REMARK  Name = 
REMARK  17 active torsions:
REMARK  status: ('A' for Active; 'I' for Inactive)
REMARK    1  A    between atoms: C_1  and  N_2
REMARK    2  A    between atoms: C_3  and  C_5
REMARK    3  A    between atoms: N_7  and  C_8
REMARK    4  A    between atoms: C_8  and  C_9
REMARK    5  A    between atoms: C_9  and  C_10
REMARK    6  A    between atoms: C_10  and  C_11
REMARK    7  A    between atoms: C_11  and  C_12
REMARK    8  A    between atoms: C_13  and  C_14
REMARK    9  A    between atoms: C_14  and  C_15
REMARK   10  A    between atoms: C_15  and  C_16
REMARK   11  A    between atoms: C_16  and  C_17
REMARK   12  A    between atoms: C_17  and  C_18
REMARK   13  A    between atoms: C_18  and  C_19
REMARK   14  A    between atoms: C_19  and  C_20
REMARK   15  A    between atoms: C_20  and  C_21
REMARK   16  A    between atoms: C_21  and  C_22
REMARK   17  A    between atoms: C_22  and  C_23
REMARK                            x       y       z     vdW  Elec       q    Type
REMARK                         _______ _______ _______ _____ _____    ______ ____
ROOT
ATOM      1  C   UNL     1       1.012   4.229  19.740  0.00  0.00    +0.000 C 
ENDROOT
BRANCH   1   3
ATOM      2  C   UNL     1       2.331   6.383  19.910  0.00  0.00    +0.000 C 
ATOM      3  C   UNL     1       1.799   5.286  20.469  0.00  0.00    +0.000 C 
BRANCH   2   4
ATOM      4  C   UNL     1       2.186   6.718  18.457  0.00  0.00    +0.000 C 
BRANCH   4   5
ATOM      5  C   UNL     1       3.054   7.898  18.043  0.00  0.00    +0.000 C 
BRANCH   5   6
ATOM      6  C   UNL     1       2.175   9.058  17.581  0.00  0.00    +0.000 C 
BRANCH   6   7
ATOM      7  C   UNL     1       1.166   9.424  18.657  0.00  0.00    +0.000 C 
BRANCH   7  10
ATOM      8  C   UNL     1       0.827  11.852  18.992  0.00  0.00    +0.000 C 
ATOM      9  O   UNL     1       1.673  12.069  19.843  0.00  0.00    +0.000 OA
ATOM     10  N   UNL     1       0.517  10.680  18.369  0.00  0.00    +0.000 N 
ATOM     11  H   UNL     1      -0.215  10.724  17.663  0.00  0.00    +0.000 HD
BRANCH   8  14
ATOM     12  C   UNL     1      -0.219  15.440  18.898  0.00  0.00    +0.000 C 
ATOM     13  N   UNL     1       0.429  14.181  19.129  0.00  0.00    +0.000 N 
ATOM     14  C   UNL     1      -0.018  13.028  18.557  0.00  0.00    +0.000 C 
ATOM     15  O   UNL     1      -0.961  12.874  17.805  0.00  0.00    +0.000 OA
ATOM     16  H   UNL     1       1.234  14.106  19.750  0.00  0.00    +0.000 HD
ENDBRANCH   8  14
ENDBRANCH   7  10
ENDBRANCH   6   7
ENDBRANCH   5   6
ENDBRANCH   4   5
ENDBRANCH   2   4
ENDBRANCH   1   3
BRANCH   1  17
ATOM     17  C   UNL     1       1.306   2.821  20.256  0.00  0.00    +0.000 C 
BRANCH  17  18
ATOM     18  C   UNL     1       1.794   1.898  19.143  0.00  0.00    +0.000 C 
BRANCH  18  19
ATOM     19  C   UNL     1       2.485   2.678  18.034  0.00  0.00    +0.000 C 
BRANCH  19  20
ATOM     20  C   UNL     1       3.991   2.460  18.114  0.00  0.00    +0.000 C 
BRANCH  20  21
ATOM     21  C   UNL     1       4.624   3.447  19.081  0.00  0.00    +0.000 C 
BRANCH  21  22
ATOM     22  C   UNL     1       5.173   4.660  18.337  0.00  0.00    +0.000 C 
BRANCH  22  23
ATOM     23  C   UNL     1       6.289   5.307  19.146  0.00  0.00    +0.000 C 
BRANCH  23  24
ATOM     24  C   UNL     1       7.469   5.691  18.263  0.00  0.00    +0.000 C 
BRANCH  24  25
ATOM     25  C   UNL     1       7.037   5.655  16.837  0.00  0.00    +0.000 A 
ATOM     26  N   UNL     1       6.328   6.567  16.264  0.00  0.00    +0.000 NA
ATOM     27  O   UNL     1       6.113   6.076  14.938  0.00  0.00    +0.000 OA
ATOM     28  C   UNL     1       6.752   4.864  14.872  0.00  0.00    +0.000 A 
ATOM     29  O   UNL     1       6.791   4.131  13.897  0.00  0.00    +0.000 OA
ATOM     30  N   UNL     1       7.321   4.616  16.061  0.00  0.00    +0.000 N 
ATOM     31  H   UNL     1       7.843   3.785  16.272  0.00  0.00    +0.000 HD
ENDBRANCH  24  25
ENDBRANCH  23  24
ENDBRANCH  22  23
ENDBRANCH  21  22
ENDBRANCH  20  21
ENDBRANCH  19  20
ENDBRANCH  18  19
ENDBRANCH  17  18
ENDBRANCH   1  17
TORSDOF 16
ENDMDL
MODEL 3
REMARK VINA RESULT:      -6.4      2.745      8.435
REMARK  Name = 
REMARK  17 active torsions:
REMARK  status: ('A' for Active; 'I' for Inactive)
REMARK    1  A    between atoms: C_1  and  N_2
REMARK    2  A    between atoms: C_3  and  C_5
REMARK    3  A    between atoms: N_7  and  C_8
REMARK    4  A    between atoms: C_8  and  C_9
REMARK    5  A    between atoms: C_9  and  C_10
REMARK    6  A    between atoms: C_10  and  C_11
REMARK    7  A    between atoms: C_11  and  C_12
REMARK    8  A    between atoms: C_13  and  C_14
REMARK    9  A    between atoms: C_14  and  C_15
REMARK   10  A    between atoms: C_15  and  C_16
REMARK   11  A    between atoms: C_16  and  C_17
REMARK   12  A    between atoms: C_17  and  C_18
REMARK   13  A    between atoms: C_18  and  C_19
REMARK   14  A    between atoms: C_19  and  C_20
REMARK   15  A    between atoms: C_20  and  C_21
REMARK   16  A    between atoms: C_21  and  C_22
REMARK   17  A    between atoms: C_22  and  C_23
REMARK                            x       y       z     vdW  Elec       q    Type
REMARK                         _______ _______ _______ _____ _____    ______ ____
ROOT
ATOM      1  C   UNL     1       3.880   3.391  18.377  0.00  0.00    +0.000 C 
ENDROOT
BRANCH   1   3
ATOM      2  C   UNL     1       5.925   4.799  18.873  0.00  0.00    +0.000 C 
ATOM      3  C   UNL     1       4.793   4.196  19.264  0.00  0.00    +0.000 C 
BRANCH   2   4
ATOM      4  C   UNL     1       6.426   4.768  17.462  0.00  0.00    +0.000 C 
BRANCH   4   5
ATOM      5  C   UNL     1       6.071   6.031  16.690  0.00  0.00    +0.000 C 
BRANCH   5   6
ATOM      6  C   UNL     1       5.967   5.722  15.199  0.00  0.00    +0.000 C 
BRANCH   6   7
ATOM      7  C   UNL     1       6.937   4.617  14.814  0.00  0.00    +0.000 C 
BRANCH   7  10
ATOM      8  C   UNL     1       6.495   3.715  12.552  0.00  0.00    +0.000 C 
ATOM      9  O   UNL     1       7.160   4.486  11.883  0.00  0.00    +0.000 OA
ATOM     10  N   UNL     1       6.330   3.674  13.905  0.00  0.00    +0.000 N 
ATOM     11  H   UNL     1       5.745   2.924  14.266  0.00  0.00    +0.000 HD
BRANCH   8  14
ATOM     12  C   UNL     1       5.971   0.359  10.990  0.00  0.00    +0.000 C 
ATOM     13  N   UNL     1       6.465   1.513  11.686  0.00  0.00    +0.000 N 
ATOM     14  C   UNL     1       5.725   2.651  11.802  0.00  0.00    +0.000 C 
ATOM     15  O   UNL     1       4.605   2.871  11.382  0.00  0.00    +0.000 OA
ATOM     16  H   UNL     1       7.398   1.525  12.096  0.00  0.00    +0.000 HD
ENDBRANCH   8  14
ENDBRANCH   7  10
ENDBRANCH   6   7
ENDBRANCH   5   6
ENDBRANCH   4   5
ENDBRANCH   2   4
ENDBRANCH   1   3
BRANCH   1  17
ATOM     17  C   UNL     1       3.617   1.990  18.926  0.00  0.00    +0.000 C 
BRANCH  17  18
ATOM     18  C   UNL     1       2.178   1.544  18.686  0.00  0.00    +0.000 C 
BRANCH  18  19
ATOM     19  C   UNL     1       1.183   2.530  19.279  0.00  0.00    +0.000 C 
BRANCH  19  20
ATOM     20  C   UNL     1       1.310   2.537  20.798  0.00  0.00    +0.000 C 
BRANCH  20  21
ATOM     21  C   UNL     1       1.814   3.885  21.286  0.00  0.00    +0.000 C 
BRANCH  21  22
ATOM     22  C   UNL     1       1.149   5.024  20.520  0.00  0.00    +0.000 C 
BRANCH  22  23
ATOM     23  C   UNL     1       2.018   6.274  20.585  0.00  0.00    +0.000 C 
BRANCH  23  24
ATOM     24  C   UNL     1       1.257   7.454  21.174  0.00  0.00    +0.000 C 
BRANCH  24  25
ATOM     25  C   UNL     1       1.329   8.599  20.223  0.00  0.00    +0.000 A 
ATOM     26  N   UNL     1       0.857   9.776  20.457  0.00  0.00    +0.000 NA
ATOM     27  O   UNL     1       1.098  10.508  19.252  0.00  0.00    +0.000 OA
ATOM     28  C   UNL     1       1.717   9.634  18.394  0.00  0.00    +0.000 A 
ATOM     29  O   UNL     1       2.078   9.890  17.256  0.00  0.00    +0.000 OA
ATOM     30  N   UNL     1       1.853   8.452  19.012  0.00  0.00    +0.000 N 
ATOM     31  H   UNL     1       2.270   7.642  18.591  0.00  0.00    +0.000 HD
ENDBRANCH  24  25
ENDBRANCH  23  24
ENDBRANCH  22  23
ENDBRANCH  21  22
ENDBRANCH  20  21
ENDBRANCH  19  20
ENDBRANCH  18  19
ENDBRANCH  17  18
ENDBRANCH   1  17
TORSDOF 16
ENDMDL
MODEL 4
REMARK VINA RESULT:      -6.4      1.975      8.848
REMARK  Name = 
REMARK  17 active torsions:
REMARK  status: ('A' for Active; 'I' for Inactive)
REMARK    1  A    between atoms: C_1  and  N_2
REMARK    2  A    between atoms: C_3  and  C_5
REMARK    3  A    between atoms: N_7  and  C_8
REMARK    4  A    between atoms: C_8  and  C_9
REMARK    5  A    between atoms: C_9  and  C_10
REMARK    6  A    between atoms: C_10  and  C_11
REMARK    7  A    between atoms: C_11  and  C_12
REMARK    8  A    between atoms: C_13  and  C_14
REMARK    9  A    between atoms: C_14  and  C_15
REMARK   10  A    between atoms: C_15  and  C_16
REMARK   11  A    between atoms: C_16  and  C_17
REMARK   12  A    between atoms: C_17  and  C_18
REMARK   13  A    between atoms: C_18  and  C_19
REMARK   14  A    between atoms: C_19  and  C_20
REMARK   15  A    between atoms: C_20  and  C_21
REMARK   16  A    between atoms: C_21  and  C_22
REMARK   17  A    between atoms: C_22  and  C_23
REMARK                            x       y       z     vdW  Elec       q    Type
REMARK                         _______ _______ _______ _____ _____    ______ ____
ROOT
ATOM      1  C   UNL     1       2.323   5.147  20.613  0.00  0.00    +0.000 C 
ENDROOT
BRANCH   1   3
ATOM      2  C   UNL     1       1.222   3.257  19.339  0.00  0.00    +0.000 C 
ATOM      3  C   UNL     1       1.670   3.797  20.482  0.00  0.00    +0.000 C 
BRANCH   2   4
ATOM      4  C   UNL     1       1.339   3.936  18.009  0.00  0.00    +0.000 C 
BRANCH   4   5
ATOM      5  C   UNL     1       2.685   3.687  17.344  0.00  0.00    +0.000 C 
BRANCH   5   6
ATOM      6  C   UNL     1       3.369   2.479  17.980  0.00  0.00    +0.000 C 
BRANCH   6   7
ATOM      7  C   UNL     1       4.762   2.848  18.463  0.00  0.00    +0.000 C 
BRANCH   7  10
ATOM      8  C   UNL     1       5.955   5.012  18.604  0.00  0.00    +0.000 C 
ATOM      9  O   UNL     1       6.416   4.927  19.730  0.00  0.00    +0.000 OA
ATOM     10  N   UNL     1       5.193   4.114  17.918  0.00  0.00    +0.000 N 
ATOM     11  H   UNL     1       4.932   4.375  16.970  0.00  0.00    +0.000 HD
BRANCH   8  14
ATOM     12  C   UNL     1       7.951   8.025  17.648  0.00  0.00    +0.000 C 
ATOM     13  N   UNL     1       7.453   6.800  18.206  0.00  0.00    +0.000 N 
ATOM     14  C   UNL     1       6.243   6.287  17.845  0.00  0.00    +0.000 C 
ATOM     15  O   UNL     1       5.442   6.733  17.046  0.00  0.00    +0.000 OA
ATOM     16  H   UNL     1       7.981   6.285  18.910  0.00  0.00    +0.000 HD
ENDBRANCH   8  14
ENDBRANCH   7  10
ENDBRANCH   6   7
ENDBRANCH   5   6
ENDBRANCH   4   5
ENDBRANCH   2   4
ENDBRANCH   1   3
BRANCH   1  17
ATOM     17  C   UNL     1       1.306   6.274  20.791  0.00  0.00    +0.000 C 
BRANCH  17  18
ATOM     18  C   UNL     1       1.889   7.632  20.414  0.00  0.00    +0.000 C 
BRANCH  18  19
ATOM     19  C   UNL     1       2.535   7.599  19.037  0.00  0.00    +0.000 C 
BRANCH  19  20
ATOM     20  C   UNL     1       1.550   8.117  17.995  0.00  0.00    +0.000 C 
BRANCH  20  21
ATOM     21  C   UNL     1       1.697   9.620  17.821  0.00  0.00    +0.000 C 
BRANCH  21  22
ATOM     22  C   UNL     1       0.933  10.370  18.907  0.00  0.00    +0.000 C 
BRANCH  22  23
ATOM     23  C   UNL     1      -0.567  10.200  18.701  0.00  0.00    +0.000 C 
BRANCH  23  24
ATOM     24  C   UNL     1      -1.256  11.539  18.477  0.00  0.00    +0.000 C 
BRANCH  24  25
ATOM     25  C   UNL     1      -2.350  11.360  17.481  0.00  0.00    +0.000 A 
ATOM     26  N   UNL     1      -3.598  11.587  17.714  0.00  0.00    +0.000 NA
ATOM     27  O   UNL     1      -4.264  11.218  16.504  0.00  0.00    +0.000 OA
ATOM     28  C   UNL     1      -3.284  10.790  15.645  0.00  0.00    +0.000 A 
ATOM     29  O   UNL     1      -3.461  10.386  14.507  0.00  0.00    +0.000 OA
ATOM     30  N   UNL     1      -2.100  10.883  16.267  0.00  0.00    +0.000 N 
ATOM     31  H   UNL     1      -1.224  10.622  15.852  0.00  0.00    +0.000 HD
ENDBRANCH  24  25
ENDBRANCH  23  24
ENDBRANCH  22  23
ENDBRANCH  21  22
ENDBRANCH  20  21
ENDBRANCH  19  20
ENDBRANCH  18  19
ENDBRANCH  17  18
ENDBRANCH   1  17
TORSDOF 16
ENDMDL
MODEL 5
REMARK VINA RESULT:      -6.3      2.261      3.068
REMARK  Name = 
REMARK  17 active torsions:
REMARK  status: ('A' for Active; 'I' for Inactive)
REMARK    1  A    between atoms: C_1  and  N_2
REMARK    2  A    between atoms: C_3  and  C_5
REMARK    3  A    between atoms: N_7  and  C_8
REMARK    4  A    between atoms: C_8  and  C_9
REMARK    5  A    between atoms: C_9  and  C_10
REMARK    6  A    between atoms: C_10  and  C_11
REMARK    7  A    between atoms: C_11  and  C_12
REMARK    8  A    between atoms: C_13  and  C_14
REMARK    9  A    between atoms: C_14  and  C_15
REMARK   10  A    between atoms: C_15  and  C_16
REMARK   11  A    between atoms: C_16  and  C_17
REMARK   12  A    between atoms: C_17  and  C_18
REMARK   13  A    between atoms: C_18  and  C_19
REMARK   14  A    between atoms: C_19  and  C_20
REMARK   15  A    between atoms: C_20  and  C_21
REMARK   16  A    between atoms: C_21  and  C_22
REMARK   17  A    between atoms: C_22  and  C_23
REMARK                            x       y       z     vdW  Elec       q    Type
REMARK                         _______ _______ _______ _____ _____    ______ ____
ROOT
ATOM      1  C   UNL     1       2.114   3.305  21.821  0.00  0.00    +0.000 C 
ENDROOT
BRANCH   1   3
ATOM      2  C   UNL     1       1.038   5.146  20.457  0.00  0.00    +0.000 C 
ATOM      3  C   UNL     1       1.163   3.853  20.790  0.00  0.00    +0.000 C 
BRANCH   2   4
ATOM      4  C   UNL     1       1.867   6.235  21.065  0.00  0.00    +0.000 C 
BRANCH   4   5
ATOM      5  C   UNL     1       1.549   7.604  20.480  0.00  0.00    +0.000 C 
BRANCH   5   6
ATOM      6  C   UNL     1       0.602   8.363  21.406  0.00  0.00    +0.000 C 
BRANCH   6   7
ATOM      7  C   UNL     1       0.834   9.862  21.294  0.00  0.00    +0.000 C 
BRANCH   7  10
ATOM      8  C   UNL     1      -0.268  11.107  19.461  0.00  0.00    +0.000 C 
ATOM      9  O   UNL     1       0.647  11.154  18.657  0.00  0.00    +0.000 OA
ATOM     10  N   UNL     1      -0.298  10.528  20.695  0.00  0.00    +0.000 N 
ATOM     11  H   UNL     1      -1.181  10.582  21.198  0.00  0.00    +0.000 HD
BRANCH   8  14
ATOM     12  C   UNL     1      -3.578  12.738  20.060  0.00  0.00    +0.000 C 
ATOM     13  N   UNL     1      -2.294  12.108  20.166  0.00  0.00    +0.000 N 
ATOM     14  C   UNL     1      -1.560  11.785  19.064  0.00  0.00    +0.000 C 
ATOM     15  O   UNL     1      -1.835  11.967  17.893  0.00  0.00    +0.000 OA
ATOM     16  H   UNL     1      -1.899  11.859  21.072  0.00  0.00    +0.000 HD
ENDBRANCH   8  14
ENDBRANCH   7  10
ENDBRANCH   6   7
ENDBRANCH   5   6
ENDBRANCH   4   5
ENDBRANCH   2   4
ENDBRANCH   1   3
BRANCH   1  17
ATOM     17  C   UNL     1       2.971   2.163  21.278  0.00  0.00    +0.000 C 
BRANCH  17  18
ATOM     18  C   UNL     1       3.689   2.554  19.990  0.00  0.00    +0.000 C 
BRANCH  18  19
ATOM     19  C   UNL     1       3.377   1.583  18.861  0.00  0.00    +0.000 C 
BRANCH  19  20
ATOM     20  C   UNL     1       2.536   2.283  17.799  0.00  0.00    +0.000 C 
BRANCH  20  21
ATOM     21  C   UNL     1       3.276   3.487  17.239  0.00  0.00    +0.000 C 
BRANCH  21  22
ATOM     22  C   UNL     1       2.467   4.764  17.441  0.00  0.00    +0.000 C 
BRANCH  22  23
ATOM     23  C   UNL     1       3.403   5.940  17.688  0.00  0.00    +0.000 C 
BRANCH  23  24
ATOM     24  C   UNL     1       4.405   5.635  18.793  0.00  0.00    +0.000 C 
BRANCH  24  25
ATOM     25  C   UNL     1       5.767   5.532  18.195  0.00  0.00    +0.000 A 
ATOM     26  N   UNL     1       6.251   6.358  17.331  0.00  0.00    +0.000 NA
ATOM     27  O   UNL     1       7.539   5.826  17.006  0.00  0.00    +0.000 OA
ATOM     28  C   UNL     1       7.679   4.685  17.754  0.00  0.00    +0.000 A 
ATOM     29  O   UNL     1       8.649   3.944  17.748  0.00  0.00    +0.000 OA
ATOM     30  N   UNL     1       6.569   4.515  18.487  0.00  0.00    +0.000 N 
ATOM     31  H   UNL     1       6.421   3.746  19.114  0.00  0.00    +0.000 HD
ENDBRANCH  24  25
ENDBRANCH  23  24
ENDBRANCH  22  23
ENDBRANCH  21  22
ENDBRANCH  20  21
ENDBRANCH  19  20
ENDBRANCH  18  19
ENDBRANCH  17  18
ENDBRANCH   1  17
TORSDOF 16
ENDMDL
MODEL 6
REMARK VINA RESULT:      -6.3      2.243      9.069
REMARK  Name = 
REMARK  17 active torsions:
REMARK  status: ('A' for Active; 'I' for Inactive)
REMARK    1  A    between atoms: C_1  and  N_2
REMARK    2  A    between atoms: C_3  and  C_5
REMARK    3  A    between atoms: N_7  and  C_8
REMARK    4  A    between atoms: C_8  and  C_9
REMARK    5  A    between atoms: C_9  and  C_10
REMARK    6  A    between atoms: C_10  and  C_11
REMARK    7  A    between atoms: C_11  and  C_12
REMARK    8  A    between atoms: C_13  and  C_14
REMARK    9  A    between atoms: C_14  and  C_15
REMARK   10  A    between atoms: C_15  and  C_16
REMARK   11  A    between atoms: C_16  and  C_17
REMARK   12  A    between atoms: C_17  and  C_18
REMARK   13  A    between atoms: C_18  and  C_19
REMARK   14  A    between atoms: C_19  and  C_20
REMARK   15  A    between atoms: C_20  and  C_21
REMARK   16  A    between atoms: C_21  and  C_22
REMARK   17  A    between atoms: C_22  and  C_23
REMARK                            x       y       z     vdW  Elec       q    Type
REMARK                         _______ _______ _______ _____ _____    ______ ____
ROOT
ATOM      1  C   UNL     1       2.532   2.463  19.536  0.00  0.00    +0.000 C 
ENDROOT
BRANCH   1   3
ATOM      2  C   UNL     1       2.566   3.500  17.227  0.00  0.00    +0.000 C 
ATOM      3  C   UNL     1       1.935   2.834  18.204  0.00  0.00    +0.000 C 
BRANCH   2   4
ATOM      4  C   UNL     1       3.991   3.952  17.328  0.00  0.00    +0.000 C 
BRANCH   4   5
ATOM      5  C   UNL     1       4.738   3.824  16.008  0.00  0.00    +0.000 C 
BRANCH   5   6
ATOM      6  C   UNL     1       5.888   4.826  15.957  0.00  0.00    +0.000 C 
BRANCH   6   7
ATOM      7  C   UNL     1       6.897   4.425  14.893  0.00  0.00    +0.000 C 
BRANCH   7  10
ATOM      8  C   UNL     1       6.429   3.656  12.588  0.00  0.00    +0.000 C 
ATOM      9  O   UNL     1       7.010   4.520  11.954  0.00  0.00    +0.000 OA
ATOM     10  N   UNL     1       6.324   3.506  13.939  0.00  0.00    +0.000 N 
ATOM     11  H   UNL     1       5.809   2.691  14.264  0.00  0.00    +0.000 HD
BRANCH   8  14
ATOM     12  C   UNL     1       6.046   0.342  10.900  0.00  0.00    +0.000 C 
ATOM     13  N   UNL     1       6.489   1.487  11.643  0.00  0.00    +0.000 N 
ATOM     14  C   UNL     1       5.708   2.593  11.789  0.00  0.00    +0.000 C 
ATOM     15  O   UNL     1       4.586   2.789  11.361  0.00  0.00    +0.000 OA
ATOM     16  H   UNL     1       7.416   1.517  12.067  0.00  0.00    +0.000 HD
ENDBRANCH   8  14
ENDBRANCH   7  10
ENDBRANCH   6   7
ENDBRANCH   5   6
ENDBRANCH   4   5
ENDBRANCH   2   4
ENDBRANCH   1   3
BRANCH   1  17
ATOM     17  C   UNL     1       2.095   3.407  20.656  0.00  0.00    +0.000 C 
BRANCH  17  18
ATOM     18  C   UNL     1       1.257   4.567  20.128  0.00  0.00    +0.000 C 
BRANCH  18  19
ATOM     19  C   UNL     1       1.562   5.859  20.873  0.00  0.00    +0.000 C 
BRANCH  19  20
ATOM     20  C   UNL     1       2.516   6.715  20.049  0.00  0.00    +0.000 C 
BRANCH  20  21
ATOM     21  C   UNL     1       2.088   6.739  18.590  0.00  0.00    +0.000 C 
BRANCH  21  22
ATOM     22  C   UNL     1       2.927   7.733  17.794  0.00  0.00    +0.000 C 
BRANCH  22  23
ATOM     23  C   UNL     1       2.383   9.143  17.983  0.00  0.00    +0.000 C 
BRANCH  23  24
ATOM     24  C   UNL     1       0.876   9.194  17.772  0.00  0.00    +0.000 C 
BRANCH  24  25
ATOM     25  C   UNL     1       0.254   9.939  18.904  0.00  0.00    +0.000 A 
ATOM     26  N   UNL     1      -0.957  10.381  18.912  0.00  0.00    +0.000 NA
ATOM     27  O   UNL     1      -1.080  11.073  20.157  0.00  0.00    +0.000 OA
ATOM     28  C   UNL     1       0.138  10.958  20.779  0.00  0.00    +0.000 A 
ATOM     29  O   UNL     1       0.428  11.426  21.868  0.00  0.00    +0.000 OA
ATOM     30  N   UNL     1       0.957  10.251  19.986  0.00  0.00    +0.000 N 
ATOM     31  H   UNL     1       1.910  10.035  20.213  0.00  0.00    +0.000 HD
ENDBRANCH  24  25
ENDBRANCH  23  24
ENDBRANCH  22  23
ENDBRANCH  21  22
ENDBRANCH  20  21
ENDBRANCH  19  20
ENDBRANCH  18  19
ENDBRANCH  17  18
ENDBRANCH   1  17
TORSDOF 16
ENDMDL
MODEL 7
REMARK VINA RESULT:      -6.2      2.155      3.268
REMARK  Name = 
REMARK  17 active torsions:
REMARK  status: ('A' for Active; 'I' for Inactive)
REMARK    1  A    between atoms: C_1  and  N_2
REMARK    2  A    between atoms: C_3  and  C_5
REMARK    3  A    between atoms: N_7  and  C_8
REMARK    4  A    between atoms: C_8  and  C_9
REMARK    5  A    between atoms: C_9  and  C_10
REMARK    6  A    between atoms: C_10  and  C_11
REMARK    7  A    between atoms: C_11  and  C_12
REMARK    8  A    between atoms: C_13  and  C_14
REMARK    9  A    between atoms: C_14  and  C_15
REMARK   10  A    between atoms: C_15  and  C_16
REMARK   11  A    between atoms: C_16  and  C_17
REMARK   12  A    between atoms: C_17  and  C_18
REMARK   13  A    between atoms: C_18  and  C_19
REMARK   14  A    between atoms: C_19  and  C_20
REMARK   15  A    between atoms: C_20  and  C_21
REMARK   16  A    between atoms: C_21  and  C_22
REMARK   17  A    between atoms: C_22  and  C_23
REMARK                            x       y       z     vdW  Elec       q    Type
REMARK                         _______ _______ _______ _____ _____    ______ ____
ROOT
ATOM      1  C   UNL     1       2.167   2.683  20.025  0.00  0.00    +0.000 C 
ENDROOT
BRANCH   1   3
ATOM      2  C   UNL     1       1.580   5.041  20.735  0.00  0.00    +0.000 C 
ATOM      3  C   UNL     1       1.412   3.714  20.822  0.00  0.00    +0.000 C 
BRANCH   2   4
ATOM      4  C   UNL     1       2.549   5.686  19.792  0.00  0.00    +0.000 C 
BRANCH   4   5
ATOM      5  C   UNL     1       2.265   7.168  19.587  0.00  0.00    +0.000 C 
BRANCH   5   6
ATOM      6  C   UNL     1       2.295   7.508  18.100  0.00  0.00    +0.000 C 
BRANCH   6   7
ATOM      7  C   UNL     1       2.278   9.014  17.896  0.00  0.00    +0.000 C 
BRANCH   7  10
ATOM      8  C   UNL     1       0.443  10.474  18.688  0.00  0.00    +0.000 C 
ATOM      9  O   UNL     1       1.015  11.062  19.589  0.00  0.00    +0.000 OA
ATOM     10  N   UNL     1       0.929   9.525  17.838  0.00  0.00    +0.000 N 
ATOM     11  H   UNL     1       0.284   9.177  17.133  0.00  0.00    +0.000 HD
BRANCH   8  14
ATOM     12  C   UNL     1      -2.654  11.013  16.665  0.00  0.00    +0.000 C 
ATOM     13  N   UNL     1      -1.335  10.713  17.145  0.00  0.00    +0.000 N 
ATOM     14  C   UNL     1      -1.012  10.818  18.465  0.00  0.00    +0.000 C 
ATOM     15  O   UNL     1      -1.725  11.147  19.394  0.00  0.00    +0.000 OA
ATOM     16  H   UNL     1      -0.590  10.433  16.508  0.00  0.00    +0.000 HD
ENDBRANCH   8  14
ENDBRANCH   7  10
ENDBRANCH   6   7
ENDBRANCH   5   6
ENDBRANCH   4   5
ENDBRANCH   2   4
ENDBRANCH   1   3
BRANCH   1  17
ATOM     17  C   UNL     1       1.476   2.342  18.706  0.00  0.00    +0.000 C 
BRANCH  17  18
ATOM     18  C   UNL     1       2.291   2.800  17.501  0.00  0.00    +0.000 C 
BRANCH  18  19
ATOM     19  C   UNL     1       3.777   2.859  17.823  0.00  0.00    +0.000 C 
BRANCH  19  20
ATOM     20  C   UNL     1       4.587   2.514  16.578  0.00  0.00    +0.000 C 
BRANCH  20  21
ATOM     21  C   UNL     1       5.583   3.619  16.266  0.00  0.00    +0.000 C 
BRANCH  21  22
ATOM     22  C   UNL     1       5.073   4.507  15.136  0.00  0.00    +0.000 C 
BRANCH  22  23
ATOM     23  C   UNL     1       5.735   5.876  15.210  0.00  0.00    +0.000 C 
BRANCH  23  24
ATOM     24  C   UNL     1       5.275   6.656  16.434  0.00  0.00    +0.000 C 
BRANCH  24  25
ATOM     25  C   UNL     1       6.363   6.642  17.453  0.00  0.00    +0.000 A 
ATOM     26  N   UNL     1       7.432   7.359  17.392  0.00  0.00    +0.000 NA
ATOM     27  O   UNL     1       8.196   6.967  18.535  0.00  0.00    +0.000 OA
ATOM     28  C   UNL     1       7.454   6.009  19.178  0.00  0.00    +0.000 A 
ATOM     29  O   UNL     1       7.778   5.424  20.200  0.00  0.00    +0.000 OA
ATOM     30  N   UNL     1       6.318   5.817  18.493  0.00  0.00    +0.000 N 
ATOM     31  H   UNL     1       5.607   5.159  18.755  0.00  0.00    +0.000 HD
ENDBRANCH  24  25
ENDBRANCH  23  24
ENDBRANCH  22  23
ENDBRANCH  21  22
ENDBRANCH  20  21
ENDBRANCH  19  20
ENDBRANCH  18  19
ENDBRANCH  17  18
ENDBRANCH   1  17
TORSDOF 16
ENDMDL
MODEL 8
REMARK VINA RESULT:      -6.2      2.693      3.369
REMARK  Name = 
REMARK  17 active torsions:
REMARK  status: ('A' for Active; 'I' for Inactive)
REMARK    1  A    between atoms: C_1  and  N_2
REMARK    2  A    between atoms: C_3  and  C_5
REMARK    3  A    between atoms: N_7  and  C_8
REMARK    4  A    between atoms: C_8  and  C_9
REMARK    5  A    between atoms: C_9  and  C_10
REMARK    6  A    between atoms: C_10  and  C_11
REMARK    7  A    between atoms: C_11  and  C_12
REMARK    8  A    between atoms: C_13  and  C_14
REMARK    9  A    between atoms: C_14  and  C_15
REMARK   10  A    between atoms: C_15  and  C_16
REMARK   11  A    between atoms: C_16  and  C_17
REMARK   12  A    between atoms: C_17  and  C_18
REMARK   13  A    between atoms: C_18  and  C_19
REMARK   14  A    between atoms: C_19  and  C_20
REMARK   15  A    between atoms: C_20  and  C_21
REMARK   16  A    between atoms: C_21  and  C_22
REMARK   17  A    between atoms: C_22  and  C_23
REMARK                            x       y       z     vdW  Elec       q    Type
REMARK                         _______ _______ _______ _____ _____    ______ ____
ROOT
ATOM      1  C   UNL     1       1.979   5.950  20.456  0.00  0.00    +0.000 C 
ENDROOT
BRANCH   1   3
ATOM      2  C   UNL     1       2.363   7.271  18.331  0.00  0.00    +0.000 C 
ATOM      3  C   UNL     1       2.326   6.109  18.999  0.00  0.00    +0.000 C 
BRANCH   2   4
ATOM      4  C   UNL     1       2.081   8.596  18.970  0.00  0.00    +0.000 C 
BRANCH   4   5
ATOM      5  C   UNL     1       1.556   9.622  17.976  0.00  0.00    +0.000 C 
BRANCH   5   6
ATOM      6  C   UNL     1       1.346  10.965  18.671  0.00  0.00    +0.000 C 
BRANCH   6   7
ATOM      7  C   UNL     1       2.260  12.023  18.073  0.00  0.00    +0.000 C 
BRANCH   7  10
ATOM      8  C   UNL     1       1.815  14.257  19.041  0.00  0.00    +0.000 C 
ATOM      9  O   UNL     1       2.517  14.200  20.036  0.00  0.00    +0.000 OA
ATOM     10  N   UNL     1       1.632  13.322  18.065  0.00  0.00    +0.000 N 
ATOM     11  H   UNL     1       1.014  13.584  17.300  0.00  0.00    +0.000 HD
BRANCH   8  14
ATOM     12  C   UNL     1       1.282  17.954  18.900  0.00  0.00    +0.000 C 
ATOM     13  N   UNL     1       1.806  16.623  19.009  0.00  0.00    +0.000 N 
ATOM     14  C   UNL     1       1.016  15.525  18.842  0.00  0.00    +0.000 C 
ATOM     15  O   UNL     1      -0.171  15.481  18.582  0.00  0.00    +0.000 OA
ATOM     16  H   UNL     1       2.785  16.456  19.240  0.00  0.00    +0.000 HD
ENDBRANCH   8  14
ENDBRANCH   7  10
ENDBRANCH   6   7
ENDBRANCH   5   6
ENDBRANCH   4   5
ENDBRANCH   2   4
ENDBRANCH   1   3
BRANCH   1  17
ATOM     17  C   UNL     1       2.162   4.515  20.947  0.00  0.00    +0.000 C 
BRANCH  17  18
ATOM     18  C   UNL     1       1.048   3.597  20.451  0.00  0.00    +0.000 C 
BRANCH  18  19
ATOM     19  C   UNL     1       1.591   2.241  20.025  0.00  0.00    +0.000 C 
BRANCH  19  20
ATOM     20  C   UNL     1       2.910   2.426  19.283  0.00  0.00    +0.000 C 
BRANCH  20  21
ATOM     21  C   UNL     1       2.711   2.246  17.786  0.00  0.00    +0.000 C 
BRANCH  21  22
ATOM     22  C   UNL     1       3.252   3.447  17.018  0.00  0.00    +0.000 C 
BRANCH  22  23
ATOM     23  C   UNL     1       4.671   3.762  17.474  0.00  0.00    +0.000 C 
BRANCH  23  24
ATOM     24  C   UNL     1       5.100   5.158  17.042  0.00  0.00    +0.000 C 
BRANCH  24  25
ATOM     25  C   UNL     1       6.018   5.042  15.873  0.00  0.00    +0.000 A 
ATOM     26  N   UNL     1       7.152   5.646  15.770  0.00  0.00    +0.000 NA
ATOM     27  O   UNL     1       7.635   5.288  14.473  0.00  0.00    +0.000 OA
ATOM     28  C   UNL     1       6.680   4.470  13.924  0.00  0.00    +0.000 A 
ATOM     29  O   UNL     1       6.730   3.962  12.815  0.00  0.00    +0.000 OA
ATOM     30  N   UNL     1       5.681   4.327  14.806  0.00  0.00    +0.000 N 
ATOM     31  H   UNL     1       4.857   3.780  14.639  0.00  0.00    +0.000 HD
ENDBRANCH  24  25
ENDBRANCH  23  24
ENDBRANCH  22  23
ENDBRANCH  21  22
ENDBRANCH  20  21
ENDBRANCH  19  20
ENDBRANCH  18  19
ENDBRANCH  17  18
ENDBRANCH   1  17
TORSDOF 16
ENDMDL
MODEL 9
REMARK VINA RESULT:      -6.2      2.196      3.152
REMARK  Name = 
REMARK  17 active torsions:
REMARK  status: ('A' for Active; 'I' for Inactive)
REMARK    1  A    between atoms: C_1  and  N_2
REMARK    2  A    between atoms: C_3  and  C_5
REMARK    3  A    between atoms: N_7  and  C_8
REMARK    4  A    between atoms: C_8  and  C_9
REMARK    5  A    between atoms: C_9  and  C_10
REMARK    6  A    between atoms: C_10  and  C_11
REMARK    7  A    between atoms: C_11  and  C_12
REMARK    8  A    between atoms: C_13  and  C_14
REMARK    9  A    between atoms: C_14  and  C_15
REMARK   10  A    between atoms: C_15  and  C_16
REMARK   11  A    between atoms: C_16  and  C_17
REMARK   12  A    between atoms: C_17  and  C_18
REMARK   13  A    between atoms: C_18  and  C_19
REMARK   14  A    between atoms: C_19  and  C_20
REMARK   15  A    between atoms: C_20  and  C_21
REMARK   16  A    between atoms: C_21  and  C_22
REMARK   17  A    between atoms: C_22  and  C_23
REMARK                            x       y       z     vdW  Elec       q    Type
REMARK                         _______ _______ _______ _____ _____    ______ ____
ROOT
ATOM      1  C   UNL     1       2.815   7.278  19.253  0.00  0.00    +0.000 C 
ENDROOT
BRANCH   1   3
ATOM      2  C   UNL     1       1.545   8.825  17.704  0.00  0.00    +0.000 C 
ATOM      3  C   UNL     1       2.117   7.642  17.970  0.00  0.00    +0.000 C 
BRANCH   2   4
ATOM      4  C   UNL     1       1.549   9.974  18.665  0.00  0.00    +0.000 C 
BRANCH   4   5
ATOM      5  C   UNL     1       0.190  10.197  19.312  0.00  0.00    +0.000 C 
BRANCH   5   6
ATOM      6  C   UNL     1      -0.903  10.210  18.246  0.00  0.00    +0.000 C 
BRANCH   6   7
ATOM      7  C   UNL     1      -1.307  11.637  17.912  0.00  0.00    +0.000 C 
BRANCH   7  10
ATOM      8  C   UNL     1      -3.766  11.511  18.156  0.00  0.00    +0.000 C 
ATOM      9  O   UNL     1      -4.026  10.712  17.272  0.00  0.00    +0.000 OA
ATOM     10  N   UNL     1      -2.554  11.995  18.546  0.00  0.00    +0.000 N 
ATOM     11  H   UNL     1      -2.557  12.642  19.332  0.00  0.00    +0.000 HD
BRANCH   8  14
ATOM     12  C   UNL     1      -7.378  12.130  18.894  0.00  0.00    +0.000 C 
ATOM     13  N   UNL     1      -6.116  11.707  18.359  0.00  0.00    +0.000 N 
ATOM     14  C   UNL     1      -4.936  12.064  18.938  0.00  0.00    +0.000 C 
ATOM     15  O   UNL     1      -4.756  12.740  19.933  0.00  0.00    +0.000 OA
ATOM     16  H   UNL     1      -6.062  11.143  17.512  0.00  0.00    +0.000 HD
ENDBRANCH   8  14
ENDBRANCH   7  10
ENDBRANCH   6   7
ENDBRANCH   5   6
ENDBRANCH   4   5
ENDBRANCH   2   4
ENDBRANCH   1   3
BRANCH   1  17
ATOM     17  C   UNL     1       1.838   6.870  20.355  0.00  0.00    +0.000 C 
BRANCH  17  18
ATOM     18  C   UNL     1       1.434   5.403  20.244  0.00  0.00    +0.000 C 
BRANCH  18  19
ATOM     19  C   UNL     1       2.186   4.540  21.246  0.00  0.00    +0.000 C 
BRANCH  19  20
ATOM     20  C   UNL     1       2.147   3.083  20.801  0.00  0.00    +0.000 C 
BRANCH  20  21
ATOM     21  C   UNL     1       1.345   2.938  19.518  0.00  0.00    +0.000 C 
BRANCH  21  22
ATOM     22  C   UNL     1       1.826   1.738  18.709  0.00  0.00    +0.000 C 
BRANCH  22  23
ATOM     23  C   UNL     1       3.075   2.109  17.919  0.00  0.00    +0.000 C 
BRANCH  23  24
ATOM     24  C   UNL     1       2.940   3.482  17.273  0.00  0.00    +0.000 C 
BRANCH  24  25
ATOM     25  C   UNL     1       4.245   4.196  17.379  0.00  0.00    +0.000 A 
ATOM     26  N   UNL     1       4.598   5.190  16.639  0.00  0.00    +0.000 NA
ATOM     27  O   UNL     1       5.931   5.496  17.055  0.00  0.00    +0.000 OA
ATOM     28  C   UNL     1       6.235   4.599  18.048  0.00  0.00    +0.000 A 
ATOM     29  O   UNL     1       7.293   4.537  18.653  0.00  0.00    +0.000 OA
ATOM     30  N   UNL     1       5.176   3.797  18.237  0.00  0.00    +0.000 N 
ATOM     31  H   UNL     1       5.150   3.049  18.906  0.00  0.00    +0.000 HD
ENDBRANCH  24  25
ENDBRANCH  23  24
ENDBRANCH  22  23
ENDBRANCH  21  22
ENDBRANCH  20  21
ENDBRANCH  19  20
ENDBRANCH  18  19
ENDBRANCH  17  18
ENDBRANCH   1  17
TORSDOF 16
ENDMDL
