MODEL 1
REMARK VINA RESULT:      -7.0      0.000      0.000
REMARK  Name = 
REMARK  9 active torsions:
REMARK  status: ('A' for Active; 'I' for Inactive)
REMARK    1  A    between atoms: C_1  and  C_2
REMARK    2  A    between atoms: C_2  and  C_3
REMARK    3  A    between atoms: C_2  and  C_4
REMARK    4  A    between atoms: C_4  and  C_5
REMARK    5  A    between atoms: C_5  and  O_6
REMARK    6  A    between atoms: C_5  and  C_7
REMARK    7  A    between atoms: N_12  and  C_13
REMARK    8  A    between atoms: C_13  and  C_14
REMARK    9  A    between atoms: C_14  and  C_15
REMARK                            x       y       z     vdW  Elec       q    Type
REMARK                         _______ _______ _______ _____ _____    ______ ____
ROOT
ATOM      1  C   UNL     1       3.459   3.336  17.841  0.00  0.00    +0.000 C 
ATOM      2  O   UNL     1       3.789   2.171  17.623  0.00  0.00    +0.000 OA
ATOM      3  N   UNL     1       4.327   4.401  17.618  0.00  0.00    +0.000 N 
ATOM      4  C   UNL     1       4.031   5.803  17.888  0.00  0.00    +0.000 C 
ATOM      5  C   UNL     1       5.261   6.482  18.490  0.00  0.00    +0.000 C 
ATOM      6  N   UNL     1       6.473   6.318  17.691  0.00  0.00    +0.000 N 
ATOM      7  C   UNL     1       6.733   5.048  17.145  0.00  0.00    +0.000 C 
ATOM      8  O   UNL     1       7.862   4.696  16.796  0.00  0.00    +0.000 OA
ATOM      9  C   UNL     1       5.514   4.178  16.798  0.00  0.00    +0.000 C 
ENDROOT
BRANCH   1  10
ATOM     10  C   UNL     1       2.029   3.698  18.303  0.00  0.00    +0.000 C 
BRANCH  10  11
ATOM     11  O   UNL     1       1.199   3.733  17.127  0.00  0.00    +0.000 OA
ATOM     12  H   UNL     1       1.479   2.977  16.576  0.00  0.00    +0.000 HD
ENDBRANCH  10  11
BRANCH  10  13
ATOM     13  C   UNL     1       1.382   2.703  19.270  0.00  0.00    +0.000 C 
BRANCH  13  15
ATOM     14  C   UNL     1       1.895   2.561  21.776  0.00  0.00    +0.000 C 
ATOM     15  C   UNL     1       1.052   3.218  20.684  0.00  0.00    +0.000 C 
ATOM     16  C   UNL     1       1.265   4.736  20.718  0.00  0.00    +0.000 C 
ENDBRANCH  13  15
ENDBRANCH  10  13
ENDBRANCH   1  10
BRANCH   6  17
ATOM     17  C   UNL     1       7.605   7.177  18.054  0.00  0.00    +0.000 C 
BRANCH  17  18
ATOM     18  C   UNL     1       7.731   8.460  17.221  0.00  0.00    +0.000 C 
BRANCH  18  19
ATOM     19  C   UNL     1       8.382   9.577  18.001  0.00  0.00    +0.000 A 
ATOM     20  C   UNL     1       9.046   9.300  19.208  0.00  0.00    +0.000 A 
ATOM     21  C   UNL     1       9.659  10.321  19.930  0.00  0.00    +0.000 A 
ATOM     22  C   UNL     1       9.614  11.632  19.459  0.00  0.00    +0.000 A 
ATOM     23  C   UNL     1       8.947  11.920  18.271  0.00  0.00    +0.000 A 
ATOM     24  C   UNL     1       8.331  10.899  17.544  0.00  0.00    +0.000 A 
ENDBRANCH  18  19
ENDBRANCH  17  18
ENDBRANCH   6  17
TORSDOF 7
ENDMDL
MODEL 2
REMARK VINA RESULT:      -6.8      3.655      5.500
REMARK  Name = 
REMARK  9 active torsions:
REMARK  status: ('A' for Active; 'I' for Inactive)
REMARK    1  A    between atoms: C_1  and  C_2
REMARK    2  A    between atoms: C_2  and  C_3
REMARK    3  A    between atoms: C_2  and  C_4
REMARK    4  A    between atoms: C_4  and  C_5
REMARK    5  A    between atoms: C_5  and  O_6
REMARK    6  A    between atoms: C_5  and  C_7
REMARK    7  A    between atoms: N_12  and  C_13
REMARK    8  A    between atoms: C_13  and  C_14
REMARK    9  A    between atoms: C_14  and  C_15
REMARK                            x       y       z     vdW  Elec       q    Type
REMARK                         _______ _______ _______ _____ _____    ______ ____
ROOT
ATOM      1  C   UNL     1       2.490   6.722  19.296  0.00  0.00    +0.000 C 
ATOM      2  O   UNL     1       1.841   7.594  18.721  0.00  0.00    +0.000 OA
ATOM      3  N   UNL     1       3.733   6.302  18.832  0.00  0.00    +0.000 N 
ATOM      4  C   UNL     1       4.547   5.249  19.428  0.00  0.00    +0.000 C 
ATOM      5  C   UNL     1       5.181   4.402  18.325  0.00  0.00    +0.000 C 
ATOM      6  N   UNL     1       5.925   5.183  17.339  0.00  0.00    +0.000 N 
ATOM      7  C   UNL     1       5.349   6.380  16.878  0.00  0.00    +0.000 C 
ATOM      8  O   UNL     1       5.677   6.904  15.811  0.00  0.00    +0.000 OA
ATOM      9  C   UNL     1       4.435   7.133  17.858  0.00  0.00    +0.000 C 
ENDROOT
BRANCH   1  10
ATOM     10  C   UNL     1       2.000   6.090  20.619  0.00  0.00    +0.000 C 
BRANCH  10  11
ATOM     11  O   UNL     1       1.316   7.122  21.354  0.00  0.00    +0.000 OA
ATOM     12  H   UNL     1       1.079   6.730  22.215  0.00  0.00    +0.000 HD
ENDBRANCH  10  11
BRANCH  10  13
ATOM     13  C   UNL     1       1.012   4.931  20.465  0.00  0.00    +0.000 C 
BRANCH  13  15
ATOM     14  C   UNL     1       1.559   2.719  21.638  0.00  0.00    +0.000 C 
ATOM     15  C   UNL     1       1.611   3.517  20.336  0.00  0.00    +0.000 C 
ATOM     16  C   UNL     1       0.850   2.757  19.242  0.00  0.00    +0.000 C 
ENDBRANCH  13  15
ENDBRANCH  10  13
ENDBRANCH   1  10
BRANCH   6  17
ATOM     17  C   UNL     1       6.790   4.419  16.434  0.00  0.00    +0.000 C 
BRANCH  17  18
ATOM     18  C   UNL     1       6.046   3.600  15.371  0.00  0.00    +0.000 C 
BRANCH  18  19
ATOM     19  C   UNL     1       6.497   3.949  13.972  0.00  0.00    +0.000 A 
ATOM     20  C   UNL     1       7.415   4.991  13.767  0.00  0.00    +0.000 A 
ATOM     21  C   UNL     1       7.845   5.315  12.482  0.00  0.00    +0.000 A 
ATOM     22  C   UNL     1       7.362   4.603  11.386  0.00  0.00    +0.000 A 
ATOM     23  C   UNL     1       6.440   3.576  11.576  0.00  0.00    +0.000 A 
ATOM     24  C   UNL     1       6.007   3.249  12.863  0.00  0.00    +0.000 A 
ENDBRANCH  18  19
ENDBRANCH  17  18
ENDBRANCH   6  17
TORSDOF 7
ENDMDL
MODEL 3
REMARK VINA RESULT:      -6.8      3.670      7.556
REMARK  Name = 
REMARK  9 active torsions:
REMARK  status: ('A' for Active; 'I' for Inactive)
REMARK    1  A    between atoms: C_1  and  C_2
REMARK    2  A    between atoms: C_2  and  C_3
REMARK    3  A    between atoms: C_2  and  C_4
REMARK    4  A    between atoms: C_4  and  C_5
REMARK    5  A    between atoms: C_5  and  O_6
REMARK    6  A    between atoms: C_5  and  C_7
REMARK    7  A    between atoms: N_12  and  C_13
REMARK    8  A    between atoms: C_13  and  C_14
REMARK    9  A    between atoms: C_14  and  C_15
REMARK                            x       y       z     vdW  Elec       q    Type
REMARK                         _______ _______ _______ _____ _____    ______ ____
ROOT
ATOM      1  C   UNL     1       6.369   4.209  14.903  0.00  0.00    +0.000 C 
ATOM      2  O   UNL     1       6.598   3.007  15.027  0.00  0.00    +0.000 OA
ATOM      3  N   UNL     1       5.964   4.996  15.978  0.00  0.00    +0.000 N 
ATOM      4  C   UNL     1       5.633   6.414  15.909  0.00  0.00    +0.000 C 
ATOM      5  C   UNL     1       4.411   6.700  16.781  0.00  0.00    +0.000 C 
ATOM      6  N   UNL     1       4.549   6.232  18.158  0.00  0.00    +0.000 N 
ATOM      7  C   UNL     1       5.112   4.960  18.367  0.00  0.00    +0.000 C 
ATOM      8  O   UNL     1       4.933   4.318  19.404  0.00  0.00    +0.000 OA
ATOM      9  C   UNL     1       6.142   4.479  17.331  0.00  0.00    +0.000 C 
ENDROOT
BRANCH   1  10
ATOM     10  C   UNL     1       6.592   4.940  13.560  0.00  0.00    +0.000 C 
BRANCH  10  11
ATOM     11  O   UNL     1       7.884   5.571  13.630  0.00  0.00    +0.000 OA
ATOM     12  H   UNL     1       7.891   6.251  12.929  0.00  0.00    +0.000 HD
ENDBRANCH  10  11
BRANCH  10  13
ATOM     13  C   UNL     1       6.606   4.042  12.320  0.00  0.00    +0.000 C 
BRANCH  13  15
ATOM     14  C   UNL     1       4.261   3.555  11.410  0.00  0.00    +0.000 C 
ATOM     15  C   UNL     1       5.462   3.018  12.186  0.00  0.00    +0.000 C 
ATOM     16  C   UNL     1       6.002   1.764  11.488  0.00  0.00    +0.000 C 
ENDBRANCH  13  15
ENDBRANCH  10  13
ENDBRANCH   1  10
BRANCH   6  17
ATOM     17  C   UNL     1       3.549   6.727  19.110  0.00  0.00    +0.000 C 
BRANCH  17  18
ATOM     18  C   UNL     1       2.095   6.405  18.740  0.00  0.00    +0.000 C 
BRANCH  18  19
ATOM     19  C   UNL     1       1.706   5.003  19.145  0.00  0.00    +0.000 A 
ATOM     20  C   UNL     1       1.489   4.021  18.165  0.00  0.00    +0.000 A 
ATOM     21  C   UNL     1       1.139   2.723  18.529  0.00  0.00    +0.000 A 
ATOM     22  C   UNL     1       1.000   2.389  19.875  0.00  0.00    +0.000 A 
ATOM     23  C   UNL     1       1.201   3.358  20.855  0.00  0.00    +0.000 A 
ATOM     24  C   UNL     1       1.550   4.661  20.494  0.00  0.00    +0.000 A 
ENDBRANCH  18  19
ENDBRANCH  17  18
ENDBRANCH   6  17
TORSDOF 7
ENDMDL
MODEL 4
REMARK VINA RESULT:      -6.8      3.550      7.583
REMARK  Name = 
REMARK  9 active torsions:
REMARK  status: ('A' for Active; 'I' for Inactive)
REMARK    1  A    between atoms: C_1  and  C_2
REMARK    2  A    between atoms: C_2  and  C_3
REMARK    3  A    between atoms: C_2  and  C_4
REMARK    4  A    between atoms: C_4  and  C_5
REMARK    5  A    between atoms: C_5  and  O_6
REMARK    6  A    between atoms: C_5  and  C_7
REMARK    7  A    between atoms: N_12  and  C_13
REMARK    8  A    between atoms: C_13  and  C_14
REMARK    9  A    between atoms: C_14  and  C_15
REMARK                            x       y       z     vdW  Elec       q    Type
REMARK                         _______ _______ _______ _____ _____    ______ ____
ROOT
ATOM      1  C   UNL     1       6.986   4.738  15.178  0.00  0.00    +0.000 C 
ATOM      2  O   UNL     1       8.051   4.164  15.400  0.00  0.00    +0.000 OA
ATOM      3  N   UNL     1       6.280   5.396  16.181  0.00  0.00    +0.000 N 
ATOM      4  C   UNL     1       4.994   6.063  16.011  0.00  0.00    +0.000 C 
ATOM      5  C   UNL     1       4.104   5.780  17.221  0.00  0.00    +0.000 C 
ATOM      6  N   UNL     1       4.730   6.106  18.500  0.00  0.00    +0.000 N 
ATOM      7  C   UNL     1       6.076   5.741  18.685  0.00  0.00    +0.000 C 
ATOM      8  O   UNL     1       6.580   5.614  19.804  0.00  0.00    +0.000 OA
ATOM      9  C   UNL     1       6.965   5.708  17.432  0.00  0.00    +0.000 C 
ENDROOT
BRANCH   1  10
ATOM     10  C   UNL     1       6.403   4.832  13.750  0.00  0.00    +0.000 C 
BRANCH  10  11
ATOM     11  O   UNL     1       7.517   4.900  12.840  0.00  0.00    +0.000 OA
ATOM     12  H   UNL     1       7.152   4.723  11.952  0.00  0.00    +0.000 HD
ENDBRANCH  10  11
BRANCH  10  13
ATOM     13  C   UNL     1       5.547   3.640  13.312  0.00  0.00    +0.000 C 
BRANCH  13  15
ATOM     14  C   UNL     1       6.154   1.923  11.509  0.00  0.00    +0.000 C 
ATOM     15  C   UNL     1       5.550   3.294  11.810  0.00  0.00    +0.000 C 
ATOM     16  C   UNL     1       4.108   3.342  11.290  0.00  0.00    +0.000 C 
ENDBRANCH  13  15
ENDBRANCH  10  13
ENDBRANCH   1  10
BRANCH   6  17
ATOM     17  C   UNL     1       3.839   6.135  19.665  0.00  0.00    +0.000 C 
BRANCH  17  18
ATOM     18  C   UNL     1       2.346   6.012  19.334  0.00  0.00    +0.000 C 
BRANCH  18  19
ATOM     19  C   UNL     1       1.830   4.611  19.566  0.00  0.00    +0.000 A 
ATOM     20  C   UNL     1       1.777   4.086  20.867  0.00  0.00    +0.000 A 
ATOM     21  C   UNL     1       1.295   2.799  21.093  0.00  0.00    +0.000 A 
ATOM     22  C   UNL     1       0.863   2.018  20.023  0.00  0.00    +0.000 A 
ATOM     23  C   UNL     1       0.923   2.524  18.726  0.00  0.00    +0.000 A 
ATOM     24  C   UNL     1       1.407   3.814  18.495  0.00  0.00    +0.000 A 
ENDBRANCH  18  19
ENDBRANCH  17  18
ENDBRANCH   6  17
TORSDOF 7
ENDMDL
MODEL 5
REMARK VINA RESULT:      -6.7      5.746      8.199
REMARK  Name = 
REMARK  9 active torsions:
REMARK  status: ('A' for Active; 'I' for Inactive)
REMARK    1  A    between atoms: C_1  and  C_2
REMARK    2  A    between atoms: C_2  and  C_3
REMARK    3  A    between atoms: C_2  and  C_4
REMARK    4  A    between atoms: C_4  and  C_5
REMARK    5  A    between atoms: C_5  and  O_6
REMARK    6  A    between atoms: C_5  and  C_7
REMARK    7  A    between atoms: N_12  and  C_13
REMARK    8  A    between atoms: C_13  and  C_14
REMARK    9  A    between atoms: C_14  and  C_15
REMARK                            x       y       z     vdW  Elec       q    Type
REMARK                         _______ _______ _______ _____ _____    ______ ____
ROOT
ATOM      1  C   UNL     1       2.303   6.131  19.765  0.00  0.00    +0.000 C 
ATOM      2  O   UNL     1       1.923   5.515  20.761  0.00  0.00    +0.000 OA
ATOM      3  N   UNL     1       2.024   7.483  19.585  0.00  0.00    +0.000 N 
ATOM      4  C   UNL     1       2.400   8.274  18.419  0.00  0.00    +0.000 C 
ATOM      5  C   UNL     1       1.254   9.213  18.043  0.00  0.00    +0.000 C 
ATOM      6  N   UNL     1       0.790  10.046  19.150  0.00  0.00    +0.000 N 
ATOM      7  C   UNL     1       0.641   9.441  20.411  0.00  0.00    +0.000 C 
ATOM      8  O   UNL     1      -0.080   9.915  21.292  0.00  0.00    +0.000 OA
ATOM      9  C   UNL     1       1.578   8.266  20.733  0.00  0.00    +0.000 C 
ENDROOT
BRANCH   1  10
ATOM     10  C   UNL     1       3.183   5.458  18.688  0.00  0.00    +0.000 C 
BRANCH  10  11
ATOM     11  O   UNL     1       4.326   4.899  19.362  0.00  0.00    +0.000 OA
ATOM     12  H   UNL     1       4.900   5.654  19.593  0.00  0.00    +0.000 HD
ENDBRANCH  10  11
BRANCH  10  13
ATOM     13  C   UNL     1       2.519   4.312  17.921  0.00  0.00    +0.000 C 
BRANCH  13  15
ATOM     14  C   UNL     1       0.925   2.502  18.787  0.00  0.00    +0.000 C 
ATOM     15  C   UNL     1       2.375   2.968  18.662  0.00  0.00    +0.000 C 
ATOM     16  C   UNL     1       3.191   1.904  17.917  0.00  0.00    +0.000 C 
ENDBRANCH  13  15
ENDBRANCH  10  13
ENDBRANCH   1  10
BRANCH   6  17
ATOM     17  C   UNL     1      -0.094  11.160  18.791  0.00  0.00    +0.000 C 
BRANCH  17  18
ATOM     18  C   UNL     1      -1.580  10.923  19.093  0.00  0.00    +0.000 C 
BRANCH  18  19
ATOM     19  C   UNL     1      -2.399  10.796  17.830  0.00  0.00    +0.000 A 
ATOM     20  C   UNL     1      -3.598  11.514  17.692  0.00  0.00    +0.000 A 
ATOM     21  C   UNL     1      -4.356  11.411  16.528  0.00  0.00    +0.000 A 
ATOM     22  C   UNL     1      -3.928  10.588  15.488  0.00  0.00    +0.000 A 
ATOM     23  C   UNL     1      -2.747   9.861  15.619  0.00  0.00    +0.000 A 
ATOM     24  C   UNL     1      -1.985   9.961  16.785  0.00  0.00    +0.000 A 
ENDBRANCH  18  19
ENDBRANCH  17  18
ENDBRANCH   6  17
TORSDOF 7
ENDMDL
MODEL 6
REMARK VINA RESULT:      -6.7      5.788      8.214
REMARK  Name = 
REMARK  9 active torsions:
REMARK  status: ('A' for Active; 'I' for Inactive)
REMARK    1  A    between atoms: C_1  and  C_2
REMARK    2  A    between atoms: C_2  and  C_3
REMARK    3  A    between atoms: C_2  and  C_4
REMARK    4  A    between atoms: C_4  and  C_5
REMARK    5  A    between atoms: C_5  and  O_6
REMARK    6  A    between atoms: C_5  and  C_7
REMARK    7  A    between atoms: N_12  and  C_13
REMARK    8  A    between atoms: C_13  and  C_14
REMARK    9  A    between atoms: C_14  and  C_15
REMARK                            x       y       z     vdW  Elec       q    Type
REMARK                         _______ _______ _______ _____ _____    ______ ____
ROOT
ATOM      1  C   UNL     1       2.242   6.219  19.803  0.00  0.00    +0.000 C 
ATOM      2  O   UNL     1       1.870   5.623  20.813  0.00  0.00    +0.000 OA
ATOM      3  N   UNL     1       1.972   7.571  19.605  0.00  0.00    +0.000 N 
ATOM      4  C   UNL     1       2.340   8.340  18.422  0.00  0.00    +0.000 C 
ATOM      5  C   UNL     1       1.197   9.283  18.045  0.00  0.00    +0.000 C 
ATOM      6  N   UNL     1       0.754  10.137  19.144  0.00  0.00    +0.000 N 
ATOM      7  C   UNL     1       0.615   9.554  20.416  0.00  0.00    +0.000 C 
ATOM      8  O   UNL     1      -0.090  10.048  21.298  0.00  0.00    +0.000 OA
ATOM      9  C   UNL     1       1.547   8.376  20.745  0.00  0.00    +0.000 C 
ENDROOT
BRANCH   1  10
ATOM     10  C   UNL     1       3.103   5.523  18.726  0.00  0.00    +0.000 C 
BRANCH  10  11
ATOM     11  O   UNL     1       4.212   4.903  19.404  0.00  0.00    +0.000 OA
ATOM     12  H   UNL     1       4.968   5.510  19.298  0.00  0.00    +0.000 HD
ENDBRANCH  10  11
BRANCH  10  13
ATOM     13  C   UNL     1       2.396   4.419  17.935  0.00  0.00    +0.000 C 
BRANCH  13  15
ATOM     14  C   UNL     1       0.875   2.559  18.825  0.00  0.00    +0.000 C 
ATOM     15  C   UNL     1       2.311   3.031  18.598  0.00  0.00    +0.000 C 
ATOM     16  C   UNL     1       3.049   2.016  17.716  0.00  0.00    +0.000 C 
ENDBRANCH  13  15
ENDBRANCH  10  13
ENDBRANCH   1  10
BRANCH   6  17
ATOM     17  C   UNL     1      -0.126  11.253  18.778  0.00  0.00    +0.000 C 
BRANCH  17  18
ATOM     18  C   UNL     1      -1.612  11.027  19.086  0.00  0.00    +0.000 C 
BRANCH  18  19
ATOM     19  C   UNL     1      -2.429  10.856  17.827  0.00  0.00    +0.000 A 
ATOM     20  C   UNL     1      -1.966  10.025  16.794  0.00  0.00    +0.000 A 
ATOM     21  C   UNL     1      -2.716   9.854  15.632  0.00  0.00    +0.000 A 
ATOM     22  C   UNL     1      -3.936  10.511  15.487  0.00  0.00    +0.000 A 
ATOM     23  C   UNL     1      -4.399  11.348  16.500  0.00  0.00    +0.000 A 
ATOM     24  C   UNL     1      -3.650  11.523  17.665  0.00  0.00    +0.000 A 
ENDBRANCH  18  19
ENDBRANCH  17  18
ENDBRANCH   6  17
TORSDOF 7
ENDMDL
MODEL 7
REMARK VINA RESULT:      -6.6      4.447      7.347
REMARK  Name = 
REMARK  9 active torsions:
REMARK  status: ('A' for Active; 'I' for Inactive)
REMARK    1  A    between atoms: C_1  and  C_2
REMARK    2  A    between atoms: C_2  and  C_3
REMARK    3  A    between atoms: C_2  and  C_4
REMARK    4  A    between atoms: C_4  and  C_5
REMARK    5  A    between atoms: C_5  and  O_6
REMARK    6  A    between atoms: C_5  and  C_7
REMARK    7  A    between atoms: N_12  and  C_13
REMARK    8  A    between atoms: C_13  and  C_14
REMARK    9  A    between atoms: C_14  and  C_15
REMARK                            x       y       z     vdW  Elec       q    Type
REMARK                         _______ _______ _______ _____ _____    ______ ____
ROOT
ATOM      1  C   UNL     1       4.670   4.396  17.654  0.00  0.00    +0.000 C 
ATOM      2  O   UNL     1       4.397   3.276  18.085  0.00  0.00    +0.000 OA
ATOM      3  N   UNL     1       4.137   5.552  18.217  0.00  0.00    +0.000 N 
ATOM      4  C   UNL     1       4.374   6.910  17.743  0.00  0.00    +0.000 C 
ATOM      5  C   UNL     1       3.075   7.712  17.807  0.00  0.00    +0.000 C 
ATOM      6  N   UNL     1       2.435   7.690  19.120  0.00  0.00    +0.000 N 
ATOM      7  C   UNL     1       2.381   6.463  19.805  0.00  0.00    +0.000 C 
ATOM      8  O   UNL     1       1.565   6.240  20.702  0.00  0.00    +0.000 OA
ATOM      9  C   UNL     1       3.524   5.469  19.540  0.00  0.00    +0.000 C 
ENDROOT
BRANCH   1  10
ATOM     10  C   UNL     1       5.686   4.594  16.506  0.00  0.00    +0.000 C 
BRANCH  10  11
ATOM     11  O   UNL     1       6.921   3.982  16.923  0.00  0.00    +0.000 OA
ATOM     12  H   UNL     1       7.621   4.637  16.742  0.00  0.00    +0.000 HD
ENDBRANCH  10  11
BRANCH  10  13
ATOM     13  C   UNL     1       5.301   3.948  15.173  0.00  0.00    +0.000 C 
BRANCH  13  15
ATOM     14  C   UNL     1       5.863   3.505  12.712  0.00  0.00    +0.000 C 
ATOM     15  C   UNL     1       6.402   3.859  14.098  0.00  0.00    +0.000 C 
ATOM     16  C   UNL     1       7.136   5.204  14.031  0.00  0.00    +0.000 C 
ENDBRANCH  13  15
ENDBRANCH  10  13
ENDBRANCH   1  10
BRANCH   6  17
ATOM     17  C   UNL     1       1.358   8.664  19.328  0.00  0.00    +0.000 C 
BRANCH  17  18
ATOM     18  C   UNL     1       1.041   9.541  18.110  0.00  0.00    +0.000 C 
BRANCH  18  19
ATOM     19  C   UNL     1      -0.282  10.255  18.258  0.00  0.00    +0.000 A 
ATOM     20  C   UNL     1      -0.410  11.322  19.162  0.00  0.00    +0.000 A 
ATOM     21  C   UNL     1      -1.623  11.993  19.300  0.00  0.00    +0.000 A 
ATOM     22  C   UNL     1      -2.724  11.606  18.539  0.00  0.00    +0.000 A 
ATOM     23  C   UNL     1      -2.613  10.541  17.649  0.00  0.00    +0.000 A 
ATOM     24  C   UNL     1      -1.399   9.865  17.508  0.00  0.00    +0.000 A 
ENDBRANCH  18  19
ENDBRANCH  17  18
ENDBRANCH   6  17
TORSDOF 7
ENDMDL
MODEL 8
REMARK VINA RESULT:      -6.6      3.676      7.497
REMARK  Name = 
REMARK  9 active torsions:
REMARK  status: ('A' for Active; 'I' for Inactive)
REMARK    1  A    between atoms: C_1  and  C_2
REMARK    2  A    between atoms: C_2  and  C_3
REMARK    3  A    between atoms: C_2  and  C_4
REMARK    4  A    between atoms: C_4  and  C_5
REMARK    5  A    between atoms: C_5  and  O_6
REMARK    6  A    between atoms: C_5  and  C_7
REMARK    7  A    between atoms: N_12  and  C_13
REMARK    8  A    between atoms: C_13  and  C_14
REMARK    9  A    between atoms: C_14  and  C_15
REMARK                            x       y       z     vdW  Elec       q    Type
REMARK                         _______ _______ _______ _____ _____    ______ ____
ROOT
ATOM      1  C   UNL     1       6.552   4.308  15.153  0.00  0.00    +0.000 C 
ATOM      2  O   UNL     1       6.922   3.165  15.421  0.00  0.00    +0.000 OA
ATOM      3  N   UNL     1       6.026   5.158  16.122  0.00  0.00    +0.000 N 
ATOM      4  C   UNL     1       5.528   6.507  15.881  0.00  0.00    +0.000 C 
ATOM      5  C   UNL     1       4.257   6.739  16.697  0.00  0.00    +0.000 C 
ATOM      6  N   UNL     1       4.413   6.455  18.121  0.00  0.00    +0.000 N 
ATOM      7  C   UNL     1       5.120   5.296  18.486  0.00  0.00    +0.000 C 
ATOM      8  O   UNL     1       4.992   4.762  19.590  0.00  0.00    +0.000 OA
ATOM      9  C   UNL     1       6.228   4.828  17.529  0.00  0.00    +0.000 C 
ENDROOT
BRANCH   1  10
ATOM     10  C   UNL     1       6.722   4.899  13.735  0.00  0.00    +0.000 C 
BRANCH  10  11
ATOM     11  O   UNL     1       7.948   5.654  13.734  0.00  0.00    +0.000 OA
ATOM     12  H   UNL     1       7.687   6.594  13.751  0.00  0.00    +0.000 HD
ENDBRANCH  10  11
BRANCH  10  13
ATOM     13  C   UNL     1       6.835   3.872  12.606  0.00  0.00    +0.000 C 
BRANCH  13  15
ATOM     14  C   UNL     1       4.472   3.768  11.621  0.00  0.00    +0.000 C 
ATOM     15  C   UNL     1       5.594   3.005  12.324  0.00  0.00    +0.000 C 
ATOM     16  C   UNL     1       6.014   1.807  11.462  0.00  0.00    +0.000 C 
ENDBRANCH  13  15
ENDBRANCH  10  13
ENDBRANCH   1  10
BRANCH   6  17
ATOM     17  C   UNL     1       3.334   6.930  18.995  0.00  0.00    +0.000 C 
BRANCH  17  18
ATOM     18  C   UNL     1       1.930   6.460  18.595  0.00  0.00    +0.000 C 
BRANCH  18  19
ATOM     19  C   UNL     1       1.662   5.040  19.037  0.00  0.00    +0.000 A 
ATOM     20  C   UNL     1       1.530   4.741  20.403  0.00  0.00    +0.000 A 
ATOM     21  C   UNL     1       1.274   3.437  20.820  0.00  0.00    +0.000 A 
ATOM     22  C   UNL     1       1.149   2.416  19.881  0.00  0.00    +0.000 A 
ATOM     23  C   UNL     1       1.292   2.699  18.525  0.00  0.00    +0.000 A 
ATOM     24  C   UNL     1       1.549   4.004  18.102  0.00  0.00    +0.000 A 
ENDBRANCH  18  19
ENDBRANCH  17  18
ENDBRANCH   6  17
TORSDOF 7
ENDMDL
MODEL 9
REMARK VINA RESULT:      -6.6      3.935      7.100
REMARK  Name = 
REMARK  9 active torsions:
REMARK  status: ('A' for Active; 'I' for Inactive)
REMARK    1  A    between atoms: C_1  and  C_2
REMARK    2  A    between atoms: C_2  and  C_3
REMARK    3  A    between atoms: C_2  and  C_4
REMARK    4  A    between atoms: C_4  and  C_5
REMARK    5  A    between atoms: C_5  and  O_6
REMARK    6  A    between atoms: C_5  and  C_7
REMARK    7  A    between atoms: N_12  and  C_13
REMARK    8  A    between atoms: C_13  and  C_14
REMARK    9  A    between atoms: C_14  and  C_15
REMARK                            x       y       z     vdW  Elec       q    Type
REMARK                         _______ _______ _______ _____ _____    ______ ____
ROOT
ATOM      1  C   UNL     1       4.135   3.965  17.292  0.00  0.00    +0.000 C 
ATOM      2  O   UNL     1       3.677   2.840  17.090  0.00  0.00    +0.000 OA
ATOM      3  N   UNL     1       3.705   4.755  18.355  0.00  0.00    +0.000 N 
ATOM      4  C   UNL     1       4.163   6.109  18.640  0.00  0.00    +0.000 C 
ATOM      5  C   UNL     1       2.980   6.971  19.079  0.00  0.00    +0.000 C 
ATOM      6  N   UNL     1       2.218   6.402  20.188  0.00  0.00    +0.000 N 
ATOM      7  C   UNL     1       1.938   5.024  20.154  0.00  0.00    +0.000 C 
ATOM      8  O   UNL     1       1.015   4.520  20.798  0.00  0.00    +0.000 OA
ATOM      9  C   UNL     1       2.960   4.125  19.441  0.00  0.00    +0.000 C 
ENDROOT
BRANCH   1  10
ATOM     10  C   UNL     1       5.275   4.541  16.422  0.00  0.00    +0.000 C 
BRANCH  10  11
ATOM     11  O   UNL     1       6.478   3.836  16.779  0.00  0.00    +0.000 OA
ATOM     12  H   UNL     1       7.061   3.883  15.998  0.00  0.00    +0.000 HD
ENDBRANCH  10  11
BRANCH  10  13
ATOM     13  C   UNL     1       5.096   4.371  14.911  0.00  0.00    +0.000 C 
BRANCH  13  15
ATOM     14  C   UNL     1       5.990   3.415  12.708  0.00  0.00    +0.000 C 
ATOM     15  C   UNL     1       6.332   3.923  14.108  0.00  0.00    +0.000 C 
ATOM     16  C   UNL     1       7.304   5.104  13.999  0.00  0.00    +0.000 C 
ENDBRANCH  13  15
ENDBRANCH  10  13
ENDBRANCH   1  10
BRANCH   6  17
ATOM     17  C   UNL     1       1.262   7.302  20.842  0.00  0.00    +0.000 C 
BRANCH  17  18
ATOM     18  C   UNL     1       1.202   8.716  20.249  0.00  0.00    +0.000 C 
BRANCH  18  19
ATOM     19  C   UNL     1       0.434   9.667  21.137  0.00  0.00    +0.000 A 
ATOM     20  C   UNL     1      -0.102   9.217  22.354  0.00  0.00    +0.000 A 
ATOM     21  C   UNL     1      -0.804  10.088  23.184  0.00  0.00    +0.000 A 
ATOM     22  C   UNL     1      -0.980  11.419  22.809  0.00  0.00    +0.000 A 
ATOM     23  C   UNL     1      -0.464  11.873  21.598  0.00  0.00    +0.000 A 
ATOM     24  C   UNL     1       0.239  11.002  20.762  0.00  0.00    +0.000 A 
ENDBRANCH  18  19
ENDBRANCH  17  18
ENDBRANCH   6  17
TORSDOF 7
ENDMDL
