MODEL 1
REMARK VINA RESULT:      -8.6      0.000      0.000
REMARK  Name = 
REMARK  6 active torsions:
REMARK  status: ('A' for Active; 'I' for Inactive)
REMARK    1  A    between atoms: C_1  and  O_2
REMARK    2  A    between atoms: O_2  and  C_3
REMARK    3  A    between atoms: C_6  and  N_7
REMARK    4  A    between atoms: N_10  and  C_11
REMARK    5  A    between atoms: C_11  and  N_13
REMARK    6  A    between atoms: N_13  and  N_14
REMARK                            x       y       z     vdW  Elec       q    Type
REMARK                         _______ _______ _______ _____ _____    ______ ____
ROOT
ATOM      1  C   UNL     1       4.306   3.519  19.105  0.00  0.00    +0.000 C 
ATOM      2  S   UNL     1       3.786   2.059  19.719  0.00  0.00    +0.000 S 
ENDROOT
BRANCH   1   6
ATOM      3  N   UNL     1       2.121   6.939  19.826  0.00  0.00    +0.000 N 
ATOM      4  C   UNL     1       3.054   6.939  18.682  0.00  0.00    +0.000 C 
ATOM      5  C   UNL     1       4.293   6.077  19.018  0.00  0.00    +0.000 C 
ATOM      6  N   UNL     1       3.952   4.775  19.615  0.00  0.00    +0.000 N 
ATOM      7  C   UNL     1       2.982   4.839  20.724  0.00  0.00    +0.000 C 
ATOM      8  C   UNL     1       1.727   5.595  20.277  0.00  0.00    +0.000 C 
BRANCH   3  12
ATOM      9  C   UNL     1      -0.001  10.372  21.067  0.00  0.00    +0.000 A 
ATOM     10  C   UNL     1       0.100   9.265  21.907  0.00  0.00    +0.000 A 
ATOM     11  C   UNL     1       0.813   8.125  21.507  0.00  0.00    +0.000 A 
ATOM     12  C   UNL     1       1.434   8.055  20.256  0.00  0.00    +0.000 A 
ATOM     13  C   UNL     1       1.295   9.175  19.420  0.00  0.00    +0.000 A 
ATOM     14  C   UNL     1       0.592  10.319  19.813  0.00  0.00    +0.000 A 
BRANCH   9  16
ATOM     15  C   UNL     1      -1.153  11.305  22.908  0.00  0.00    +0.000 C 
ATOM     16  O   UNL     1      -0.732  11.420  21.553  0.00  0.00    +0.000 OA
ENDBRANCH   9  16
ENDBRANCH   3  12
ENDBRANCH   1   6
BRANCH   1  17
ATOM     17  N   UNL     1       5.115   3.697  17.997  0.00  0.00    +0.000 N 
ATOM     18  H   UNL     1       6.046   4.030  18.271  0.00  0.00    +0.000 HD
BRANCH  17  19
ATOM     19  N   UNL     1       4.769   3.797  16.679  0.00  0.00    +0.000 NA
ATOM     20  C   UNL     1       5.725   4.295  15.949  0.00  0.00    +0.000 C 
ATOM     21  C   UNL     1       6.969   5.080  16.462  0.00  0.00    +0.000 C 
ATOM     22  O   UNL     1       7.318   5.140  17.618  0.00  0.00    +0.000 OA
ATOM     23  N   UNL     1       7.585   5.556  15.351  0.00  0.00    +0.000 N 
ATOM     24  C   UNL     1       7.058   4.954  14.216  0.00  0.00    +0.000 A 
ATOM     25  C   UNL     1       7.674   4.908  12.977  0.00  0.00    +0.000 A 
ATOM     26  C   UNL     1       7.096   4.069  12.020  0.00  0.00    +0.000 A 
ATOM     27  C   UNL     1       5.913   3.357  12.299  0.00  0.00    +0.000 A 
ATOM     28 CL   UNL     1       5.281   2.297  11.097  0.00  0.00    +0.000 Cl
ATOM     29  C   UNL     1       5.288   3.429  13.547  0.00  0.00    +0.000 A 
ATOM     30  C   UNL     1       5.901   4.219  14.497  0.00  0.00    +0.000 A 
ATOM     31  H   UNL     1       8.441   6.099  15.396  0.00  0.00    +0.000 HD
ENDBRANCH  17  19
ENDBRANCH   1  17
TORSDOF 5
ENDMDL
MODEL 2
REMARK VINA RESULT:      -8.6      0.965      1.371
REMARK  Name = 
REMARK  6 active torsions:
REMARK  status: ('A' for Active; 'I' for Inactive)
REMARK    1  A    between atoms: C_1  and  O_2
REMARK    2  A    between atoms: O_2  and  C_3
REMARK    3  A    between atoms: C_6  and  N_7
REMARK    4  A    between atoms: N_10  and  C_11
REMARK    5  A    between atoms: C_11  and  N_13
REMARK    6  A    between atoms: N_13  and  N_14
REMARK                            x       y       z     vdW  Elec       q    Type
REMARK                         _______ _______ _______ _____ _____    ______ ____
ROOT
ATOM      1  C   UNL     1       4.614   3.380  19.260  0.00  0.00    +0.000 C 
ATOM      2  S   UNL     1       4.275   2.003  20.137  0.00  0.00    +0.000 S 
ENDROOT
BRANCH   1   6
ATOM      3  N   UNL     1       2.586   6.962  19.053  0.00  0.00    +0.000 N 
ATOM      4  C   UNL     1       3.901   6.869  18.389  0.00  0.00    +0.000 C 
ATOM      5  C   UNL     1       4.828   5.930  19.195  0.00  0.00    +0.000 C 
ATOM      6  N   UNL     1       4.177   4.670  19.591  0.00  0.00    +0.000 N 
ATOM      7  C   UNL     1       2.848   4.828  20.209  0.00  0.00    +0.000 C 
ATOM      8  C   UNL     1       1.943   5.660  19.295  0.00  0.00    +0.000 C 
BRANCH   3  12
ATOM      9  C   UNL     1       0.418  10.558  19.501  0.00  0.00    +0.000 A 
ATOM     10  C   UNL     1       0.920  10.189  18.255  0.00  0.00    +0.000 A 
ATOM     11  C   UNL     1       1.631   8.991  18.095  0.00  0.00    +0.000 A 
ATOM     12  C   UNL     1       1.869   8.134  19.175  0.00  0.00    +0.000 A 
ATOM     13  C   UNL     1       1.373   8.543  20.424  0.00  0.00    +0.000 A 
ATOM     14  C   UNL     1       0.657   9.733  20.591  0.00  0.00    +0.000 A 
BRANCH   9  16
ATOM     15  C   UNL     1      -1.659  11.671  19.680  0.00  0.00    +0.000 C 
ATOM     16  O   UNL     1      -0.245  11.753  19.543  0.00  0.00    +0.000 OA
ENDBRANCH   9  16
ENDBRANCH   3  12
ENDBRANCH   1   6
BRANCH   1  17
ATOM     17  N   UNL     1       5.329   3.439  18.077  0.00  0.00    +0.000 N 
ATOM     18  H   UNL     1       6.328   3.578  18.258  0.00  0.00    +0.000 HD
BRANCH  17  19
ATOM     19  N   UNL     1       4.880   3.647  16.803  0.00  0.00    +0.000 NA
ATOM     20  C   UNL     1       5.800   4.137  16.024  0.00  0.00    +0.000 C 
ATOM     21  C   UNL     1       7.132   4.811  16.473  0.00  0.00    +0.000 C 
ATOM     22  O   UNL     1       7.580   4.772  17.596  0.00  0.00    +0.000 OA
ATOM     23  N   UNL     1       7.681   5.324  15.344  0.00  0.00    +0.000 N 
ATOM     24  C   UNL     1       7.022   4.832  14.224  0.00  0.00    +0.000 A 
ATOM     25  C   UNL     1       7.527   4.834  12.936  0.00  0.00    +0.000 A 
ATOM     26  C   UNL     1       6.818   4.097  11.983  0.00  0.00    +0.000 A 
ATOM     27  C   UNL     1       5.620   3.439  12.321  0.00  0.00    +0.000 A 
ATOM     28 CL   UNL     1       4.821   2.501  11.115  0.00  0.00    +0.000 Cl
ATOM     29  C   UNL     1       5.108   3.463  13.621  0.00  0.00    +0.000 A 
ATOM     30  C   UNL     1       5.849   4.149  14.561  0.00  0.00    +0.000 A 
ATOM     31  H   UNL     1       8.570   5.812  15.347  0.00  0.00    +0.000 HD
ENDBRANCH  17  19
ENDBRANCH   1  17
TORSDOF 5
ENDMDL
MODEL 3
REMARK VINA RESULT:      -8.1      0.756      1.561
REMARK  Name = 
REMARK  6 active torsions:
REMARK  status: ('A' for Active; 'I' for Inactive)
REMARK    1  A    between atoms: C_1  and  O_2
REMARK    2  A    between atoms: O_2  and  C_3
REMARK    3  A    between atoms: C_6  and  N_7
REMARK    4  A    between atoms: N_10  and  C_11
REMARK    5  A    between atoms: C_11  and  N_13
REMARK    6  A    between atoms: N_13  and  N_14
REMARK                            x       y       z     vdW  Elec       q    Type
REMARK                         _______ _______ _______ _____ _____    ______ ____
ROOT
ATOM      1  C   UNL     1       4.196   3.454  18.994  0.00  0.00    +0.000 C 
ATOM      2  S   UNL     1       4.296   2.219  20.110  0.00  0.00    +0.000 S 
ENDROOT
BRANCH   1   6
ATOM      3  N   UNL     1       2.190   6.940  19.892  0.00  0.00    +0.000 N 
ATOM      4  C   UNL     1       1.901   5.743  20.706  0.00  0.00    +0.000 C 
ATOM      5  C   UNL     1       2.002   4.476  19.826  0.00  0.00    +0.000 C 
ATOM      6  N   UNL     1       3.209   4.448  18.983  0.00  0.00    +0.000 N 
ATOM      7  C   UNL     1       3.465   5.689  18.230  0.00  0.00    +0.000 C 
ATOM      8  C   UNL     1       3.479   6.887  19.185  0.00  0.00    +0.000 C 
BRANCH   3  12
ATOM      9  C   UNL     1       0.075  10.573  20.297  0.00  0.00    +0.000 A 
ATOM     10  C   UNL     1       0.752  10.280  19.115  0.00  0.00    +0.000 A 
ATOM     11  C   UNL     1       1.447   9.070  18.968  0.00  0.00    +0.000 A 
ATOM     12  C   UNL     1       1.494   8.127  19.999  0.00  0.00    +0.000 A 
ATOM     13  C   UNL     1       0.825   8.459  21.188  0.00  0.00    +0.000 A 
ATOM     14  C   UNL     1       0.124   9.660  21.341  0.00  0.00    +0.000 A 
BRANCH   9  16
ATOM     15  C   UNL     1      -1.391  12.083  19.223  0.00  0.00    +0.000 C 
ATOM     16  O   UNL     1      -0.554  11.786  20.335  0.00  0.00    +0.000 OA
ENDBRANCH   9  16
ENDBRANCH   3  12
ENDBRANCH   1   6
BRANCH   1  17
ATOM     17  N   UNL     1       5.038   3.646  17.912  0.00  0.00    +0.000 N 
ATOM     18  H   UNL     1       5.946   4.014  18.215  0.00  0.00    +0.000 HD
BRANCH  17  19
ATOM     19  N   UNL     1       4.736   3.717  16.582  0.00  0.00    +0.000 NA
ATOM     20  C   UNL     1       5.687   4.267  15.883  0.00  0.00    +0.000 C 
ATOM     21  C   UNL     1       6.864   5.127  16.436  0.00  0.00    +0.000 C 
ATOM     22  O   UNL     1       7.165   5.214  17.603  0.00  0.00    +0.000 OA
ATOM     23  N   UNL     1       7.491   5.632  15.344  0.00  0.00    +0.000 N 
ATOM     24  C   UNL     1       7.043   4.993  14.195  0.00  0.00    +0.000 A 
ATOM     25  C   UNL     1       7.706   4.976  12.980  0.00  0.00    +0.000 A 
ATOM     26  C   UNL     1       7.214   4.099  12.009  0.00  0.00    +0.000 A 
ATOM     27  C   UNL     1       6.066   3.321  12.251  0.00  0.00    +0.000 A 
ATOM     28 CL   UNL     1       5.542   2.218  11.034  0.00  0.00    +0.000 Cl
ATOM     29  C   UNL     1       5.392   3.363  13.474  0.00  0.00    +0.000 A 
ATOM     30  C   UNL     1       5.921   4.193  14.440  0.00  0.00    +0.000 A 
ATOM     31  H   UNL     1       8.311   6.225  15.416  0.00  0.00    +0.000 HD
ENDBRANCH  17  19
ENDBRANCH   1  17
TORSDOF 5
ENDMDL
MODEL 4
REMARK VINA RESULT:      -7.9      1.130      1.378
REMARK  Name = 
REMARK  6 active torsions:
REMARK  status: ('A' for Active; 'I' for Inactive)
REMARK    1  A    between atoms: C_1  and  O_2
REMARK    2  A    between atoms: O_2  and  C_3
REMARK    3  A    between atoms: C_6  and  N_7
REMARK    4  A    between atoms: N_10  and  C_11
REMARK    5  A    between atoms: C_11  and  N_13
REMARK    6  A    between atoms: N_13  and  N_14
REMARK                            x       y       z     vdW  Elec       q    Type
REMARK                         _______ _______ _______ _____ _____    ______ ____
ROOT
ATOM      1  C   UNL     1       4.101   3.033  18.691  0.00  0.00    +0.000 C 
ATOM      2  S   UNL     1       3.664   1.507  19.201  0.00  0.00    +0.000 S 
ENDROOT
BRANCH   1   6
ATOM      3  N   UNL     1       2.553   6.850  18.842  0.00  0.00    +0.000 N 
ATOM      4  C   UNL     1       4.020   6.693  18.889  0.00  0.00    +0.000 C 
ATOM      5  C   UNL     1       4.382   5.392  19.643  0.00  0.00    +0.000 C 
ATOM      6  N   UNL     1       3.589   4.230  19.211  0.00  0.00    +0.000 N 
ATOM      7  C   UNL     1       2.136   4.464  19.143  0.00  0.00    +0.000 C 
ATOM      8  C   UNL     1       1.844   5.692  18.275  0.00  0.00    +0.000 C 
BRANCH   3  12
ATOM      9  C   UNL     1       0.539  10.532  19.311  0.00  0.00    +0.000 A 
ATOM     10  C   UNL     1       0.732   9.691  20.406  0.00  0.00    +0.000 A 
ATOM     11  C   UNL     1       1.411   8.472  20.261  0.00  0.00    +0.000 A 
ATOM     12  C   UNL     1       1.904   8.055  19.020  0.00  0.00    +0.000 A 
ATOM     13  C   UNL     1       1.673   8.910  17.930  0.00  0.00    +0.000 A 
ATOM     14  C   UNL     1       1.003  10.131  18.067  0.00  0.00    +0.000 A 
BRANCH   9  16
ATOM     15  C   UNL     1      -0.793  12.281  18.445  0.00  0.00    +0.000 C 
ATOM     16  O   UNL     1      -0.148  11.686  19.565  0.00  0.00    +0.000 OA
ENDBRANCH   9  16
ENDBRANCH   3  12
ENDBRANCH   1   6
BRANCH   1  17
ATOM     17  N   UNL     1       4.986   3.331  17.670  0.00  0.00    +0.000 N 
ATOM     18  H   UNL     1       5.858   3.722  18.042  0.00  0.00    +0.000 HD
BRANCH  17  19
ATOM     19  N   UNL     1       4.749   3.469  16.331  0.00  0.00    +0.000 NA
ATOM     20  C   UNL     1       5.713   4.090  15.716  0.00  0.00    +0.000 C 
ATOM     21  C   UNL     1       6.827   4.957  16.377  0.00  0.00    +0.000 C 
ATOM     22  O   UNL     1       7.066   4.986  17.562  0.00  0.00    +0.000 OA
ATOM     23  N   UNL     1       7.490   5.545  15.350  0.00  0.00    +0.000 N 
ATOM     24  C   UNL     1       7.125   4.959  14.145  0.00  0.00    +0.000 A 
ATOM     25  C   UNL     1       7.849   5.035  12.968  0.00  0.00    +0.000 A 
ATOM     26  C   UNL     1       7.440   4.200  11.924  0.00  0.00    +0.000 A 
ATOM     27  C   UNL     1       6.311   3.370  12.061  0.00  0.00    +0.000 A 
ATOM     28 CL   UNL     1       5.890   2.322  10.759  0.00  0.00    +0.000 Cl
ATOM     29  C   UNL     1       5.574   3.318  13.247  0.00  0.00    +0.000 A 
ATOM     30  C   UNL     1       6.023   4.108  14.285  0.00  0.00    +0.000 A 
ATOM     31  H   UNL     1       8.283   6.160  15.499  0.00  0.00    +0.000 HD
ENDBRANCH  17  19
ENDBRANCH   1  17
TORSDOF 5
ENDMDL
MODEL 5
REMARK VINA RESULT:      -7.6      3.763      6.458
REMARK  Name = 
REMARK  6 active torsions:
REMARK  status: ('A' for Active; 'I' for Inactive)
REMARK    1  A    between atoms: C_1  and  O_2
REMARK    2  A    between atoms: O_2  and  C_3
REMARK    3  A    between atoms: C_6  and  N_7
REMARK    4  A    between atoms: N_10  and  C_11
REMARK    5  A    between atoms: C_11  and  N_13
REMARK    6  A    between atoms: N_13  and  N_14
REMARK                            x       y       z     vdW  Elec       q    Type
REMARK                         _______ _______ _______ _____ _____    ______ ____
ROOT
ATOM      1  C   UNL     1       1.196  10.541  18.834  0.00  0.00    +0.000 C 
ATOM      2  S   UNL     1       2.051  11.894  18.365  0.00  0.00    +0.000 S 
ENDROOT
BRANCH   1   6
ATOM      3  N   UNL     1      -1.799  11.948  21.292  0.00  0.00    +0.000 N 
ATOM      4  C   UNL     1      -0.545  11.485  21.920  0.00  0.00    +0.000 C 
ATOM      5  C   UNL     1       0.042  10.308  21.107  0.00  0.00    +0.000 C 
ATOM      6  N   UNL     1       0.061  10.554  19.656  0.00  0.00    +0.000 N 
ATOM      7  C   UNL     1      -1.208  11.057  19.098  0.00  0.00    +0.000 C 
ATOM      8  C   UNL     1      -1.663  12.300  19.869  0.00  0.00    +0.000 C 
BRANCH   3  12
ATOM      9  C   UNL     1      -5.194  13.090  23.527  0.00  0.00    +0.000 A 
ATOM     10  C   UNL     1      -5.216  13.149  22.135  0.00  0.00    +0.000 A 
ATOM     11  C   UNL     1      -4.096  12.760  21.385  0.00  0.00    +0.000 A 
ATOM     12  C   UNL     1      -2.923  12.313  22.003  0.00  0.00    +0.000 A 
ATOM     13  C   UNL     1      -2.921  12.289  23.407  0.00  0.00    +0.000 A 
ATOM     14  C   UNL     1      -4.035  12.668  24.163  0.00  0.00    +0.000 A 
BRANCH   9  16
ATOM     15  C   UNL     1      -7.540  12.881  23.731  0.00  0.00    +0.000 C 
ATOM     16  O   UNL     1      -6.334  13.508  24.155  0.00  0.00    +0.000 OA
ENDBRANCH   9  16
ENDBRANCH   3  12
ENDBRANCH   1   6
BRANCH   1  17
ATOM     17  N   UNL     1       1.505   9.230  18.518  0.00  0.00    +0.000 N 
ATOM     18  H   UNL     1       0.864   8.579  18.985  0.00  0.00    +0.000 HD
BRANCH  17  19
ATOM     19  N   UNL     1       2.650   8.716  17.979  0.00  0.00    +0.000 NA
ATOM     20  C   UNL     1       2.962   7.557  18.483  0.00  0.00    +0.000 C 
ATOM     21  C   UNL     1       2.411   6.944  19.806  0.00  0.00    +0.000 C 
ATOM     22  O   UNL     1       1.462   7.371  20.421  0.00  0.00    +0.000 OA
ATOM     23  N   UNL     1       3.144   5.823  20.022  0.00  0.00    +0.000 N 
ATOM     24  C   UNL     1       3.881   5.506  18.888  0.00  0.00    +0.000 A 
ATOM     25  C   UNL     1       4.430   4.266  18.613  0.00  0.00    +0.000 A 
ATOM     26  C   UNL     1       4.944   4.078  17.327  0.00  0.00    +0.000 A 
ATOM     27  C   UNL     1       4.946   5.127  16.387  0.00  0.00    +0.000 A 
ATOM     28 CL   UNL     1       5.542   4.816  14.800  0.00  0.00    +0.000 Cl
ATOM     29  C   UNL     1       4.409   6.382  16.684  0.00  0.00    +0.000 A 
ATOM     30  C   UNL     1       3.857   6.534  17.939  0.00  0.00    +0.000 A 
ATOM     31  H   UNL     1       2.983   5.216  20.818  0.00  0.00    +0.000 HD
ENDBRANCH  17  19
ENDBRANCH   1  17
TORSDOF 5
ENDMDL
MODEL 6
REMARK VINA RESULT:      -7.6      6.016     11.462
REMARK  Name = 
REMARK  6 active torsions:
REMARK  status: ('A' for Active; 'I' for Inactive)
REMARK    1  A    between atoms: C_1  and  O_2
REMARK    2  A    between atoms: O_2  and  C_3
REMARK    3  A    between atoms: C_6  and  N_7
REMARK    4  A    between atoms: N_10  and  C_11
REMARK    5  A    between atoms: C_11  and  N_13
REMARK    6  A    between atoms: N_13  and  N_14
REMARK                            x       y       z     vdW  Elec       q    Type
REMARK                         _______ _______ _______ _____ _____    ______ ____
ROOT
ATOM      1  C   UNL     1      -0.348  11.717  19.980  0.00  0.00    +0.000 C 
ATOM      2  S   UNL     1       0.641  12.684  20.912  0.00  0.00    +0.000 S 
ENDROOT
BRANCH   1   6
ATOM      3  N   UNL     1       1.785   8.249  19.342  0.00  0.00    +0.000 N 
ATOM      4  C   UNL     1       1.765   9.260  18.267  0.00  0.00    +0.000 C 
ATOM      5  C   UNL     1       0.398   9.982  18.254  0.00  0.00    +0.000 C 
ATOM      6  N   UNL     1      -0.050  10.405  19.591  0.00  0.00    +0.000 N 
ATOM      7  C   UNL     1       0.035   9.363  20.629  0.00  0.00    +0.000 C 
ATOM      8  C   UNL     1       1.453   8.783  20.673  0.00  0.00    +0.000 C 
BRANCH   3  12
ATOM      9  C   UNL     1       3.432   4.379  18.965  0.00  0.00    +0.000 A 
ATOM     10  C   UNL     1       3.689   5.351  18.000  0.00  0.00    +0.000 A 
ATOM     11  C   UNL     1       3.156   6.642  18.124  0.00  0.00    +0.000 A 
ATOM     12  C   UNL     1       2.343   6.995  19.207  0.00  0.00    +0.000 A 
ATOM     13  C   UNL     1       2.080   5.989  20.151  0.00  0.00    +0.000 A 
ATOM     14  C   UNL     1       2.613   4.700  20.039  0.00  0.00    +0.000 A 
BRANCH   9  16
ATOM     15  C   UNL     1       3.128   2.035  18.924  0.00  0.00    +0.000 C 
ATOM     16  O   UNL     1       3.990   3.152  18.734  0.00  0.00    +0.000 OA
ENDBRANCH   9  16
ENDBRANCH   3  12
ENDBRANCH   1   6
BRANCH   1  17
ATOM     17  N   UNL     1      -1.565  12.082  19.433  0.00  0.00    +0.000 N 
ATOM     18  H   UNL     1      -1.514  12.107  18.409  0.00  0.00    +0.000 HD
BRANCH  17  19
ATOM     19  N   UNL     1      -2.639  12.681  20.029  0.00  0.00    +0.000 NA
ATOM     20  C   UNL     1      -3.774  12.249  19.561  0.00  0.00    +0.000 C 
ATOM     21  C   UNL     1      -3.991  11.469  18.229  0.00  0.00    +0.000 C 
ATOM     22  O   UNL     1      -3.107  10.977  17.567  0.00  0.00    +0.000 OA
ATOM     23  N   UNL     1      -5.335  11.390  18.066  0.00  0.00    +0.000 N 
ATOM     24  C   UNL     1      -5.983  11.767  19.236  0.00  0.00    +0.000 A 
ATOM     25  C   UNL     1      -7.293  11.460  19.558  0.00  0.00    +0.000 A 
ATOM     26  C   UNL     1      -7.697  11.732  20.868  0.00  0.00    +0.000 A 
ATOM     27  C   UNL     1      -6.820  12.341  21.786  0.00  0.00    +0.000 A 
ATOM     28 CL   UNL     1      -7.360  12.599  23.402  0.00  0.00    +0.000 Cl
ATOM     29  C   UNL     1      -5.506  12.667  21.442  0.00  0.00    +0.000 A 
ATOM     30  C   UNL     1      -5.106  12.343  20.162  0.00  0.00    +0.000 A 
ATOM     31  H   UNL     1      -5.758  10.915  17.276  0.00  0.00    +0.000 HD
ENDBRANCH  17  19
ENDBRANCH   1  17
TORSDOF 5
ENDMDL
MODEL 7
REMARK VINA RESULT:      -7.5      5.830     10.930
REMARK  Name = 
REMARK  6 active torsions:
REMARK  status: ('A' for Active; 'I' for Inactive)
REMARK    1  A    between atoms: C_1  and  O_2
REMARK    2  A    between atoms: O_2  and  C_3
REMARK    3  A    between atoms: C_6  and  N_7
REMARK    4  A    between atoms: N_10  and  C_11
REMARK    5  A    between atoms: C_11  and  N_13
REMARK    6  A    between atoms: N_13  and  N_14
REMARK                            x       y       z     vdW  Elec       q    Type
REMARK                         _______ _______ _______ _____ _____    ______ ____
ROOT
ATOM      1  C   UNL     1       0.106  11.307  19.675  0.00  0.00    +0.000 C 
ATOM      2  S   UNL     1       1.007  12.138  20.805  0.00  0.00    +0.000 S 
ENDROOT
BRANCH   1   6
ATOM      3  N   UNL     1       2.102   7.764  19.002  0.00  0.00    +0.000 N 
ATOM      4  C   UNL     1       2.168   8.808  17.960  0.00  0.00    +0.000 C 
ATOM      5  C   UNL     1       0.836   9.592  17.921  0.00  0.00    +0.000 C 
ATOM      6  N   UNL     1       0.358   9.995  19.254  0.00  0.00    +0.000 N 
ATOM      7  C   UNL     1       0.358   8.919  20.261  0.00  0.00    +0.000 C 
ATOM      8  C   UNL     1       1.745   8.272  20.337  0.00  0.00    +0.000 C 
BRANCH   3  12
ATOM      9  C   UNL     1       3.622   3.864  18.450  0.00  0.00    +0.000 A 
ATOM     10  C   UNL     1       4.283   4.766  19.281  0.00  0.00    +0.000 A 
ATOM     11  C   UNL     1       3.778   6.060  19.480  0.00  0.00    +0.000 A 
ATOM     12  C   UNL     1       2.608   6.491  18.847  0.00  0.00    +0.000 A 
ATOM     13  C   UNL     1       1.976   5.570  17.995  0.00  0.00    +0.000 A 
ATOM     14  C   UNL     1       2.469   4.275  17.797  0.00  0.00    +0.000 A 
BRANCH   9  16
ATOM     15  C   UNL     1       3.373   1.517  18.575  0.00  0.00    +0.000 C 
ATOM     16  O   UNL     1       4.212   2.638  18.319  0.00  0.00    +0.000 OA
ENDBRANCH   9  16
ENDBRANCH   3  12
ENDBRANCH   1   6
BRANCH   1  17
ATOM     17  N   UNL     1      -0.979  11.802  18.973  0.00  0.00    +0.000 N 
ATOM     18  H   UNL     1      -0.742  11.946  17.985  0.00  0.00    +0.000 HD
BRANCH  17  19
ATOM     19  N   UNL     1      -2.122  12.385  19.442  0.00  0.00    +0.000 NA
ATOM     20  C   UNL     1      -3.180  12.010  18.783  0.00  0.00    +0.000 C 
ATOM     21  C   UNL     1      -3.205  11.321  17.385  0.00  0.00    +0.000 C 
ATOM     22  O   UNL     1      -2.238  10.853  16.830  0.00  0.00    +0.000 OA
ATOM     23  N   UNL     1      -4.510  11.283  17.019  0.00  0.00    +0.000 N 
ATOM     24  C   UNL     1      -5.321  11.599  18.102  0.00  0.00    +0.000 A 
ATOM     25  C   UNL     1      -6.668  11.300  18.205  0.00  0.00    +0.000 A 
ATOM     26  C   UNL     1      -7.261  11.497  19.456  0.00  0.00    +0.000 A 
ATOM     27  C   UNL     1      -6.523  12.026  20.532  0.00  0.00    +0.000 A 
ATOM     28 CL   UNL     1      -7.295  12.192  22.064  0.00  0.00    +0.000 Cl
ATOM     29  C   UNL     1      -5.168  12.345  20.409  0.00  0.00    +0.000 A 
ATOM     30  C   UNL     1      -4.586  12.094  19.184  0.00  0.00    +0.000 A 
ATOM     31  H   UNL     1      -4.816  10.869  16.145  0.00  0.00    +0.000 HD
ENDBRANCH  17  19
ENDBRANCH   1  17
TORSDOF 5
ENDMDL
MODEL 8
REMARK VINA RESULT:      -7.5      5.723     11.311
REMARK  Name = 
REMARK  6 active torsions:
REMARK  status: ('A' for Active; 'I' for Inactive)
REMARK    1  A    between atoms: C_1  and  O_2
REMARK    2  A    between atoms: O_2  and  C_3
REMARK    3  A    between atoms: C_6  and  N_7
REMARK    4  A    between atoms: N_10  and  C_11
REMARK    5  A    between atoms: C_11  and  N_13
REMARK    6  A    between atoms: N_13  and  N_14
REMARK                            x       y       z     vdW  Elec       q    Type
REMARK                         _______ _______ _______ _____ _____    ______ ____
ROOT
ATOM      1  C   UNL     1       0.904  11.578  19.434  0.00  0.00    +0.000 C 
ATOM      2  S   UNL     1       1.902  12.664  18.657  0.00  0.00    +0.000 S 
ENDROOT
BRANCH   1   6
ATOM      3  N   UNL     1       2.070   7.625  19.350  0.00  0.00    +0.000 N 
ATOM      4  C   UNL     1       2.441   8.483  18.208  0.00  0.00    +0.000 C 
ATOM      5  C   UNL     1       1.330   9.530  17.959  0.00  0.00    +0.000 C 
ATOM      6  N   UNL     1       0.874  10.199  19.188  0.00  0.00    +0.000 N 
ATOM      7  C   UNL     1       0.562   9.290  20.306  0.00  0.00    +0.000 C 
ATOM      8  C   UNL     1       1.755   8.369  20.581  0.00  0.00    +0.000 C 
BRANCH   3  12
ATOM      9  C   UNL     1       2.772   3.462  19.412  0.00  0.00    +0.000 A 
ATOM     10  C   UNL     1       2.200   4.096  20.513  0.00  0.00    +0.000 A 
ATOM     11  C   UNL     1       1.953   5.476  20.497  0.00  0.00    +0.000 A 
ATOM     12  C   UNL     1       2.278   6.262  19.386  0.00  0.00    +0.000 A 
ATOM     13  C   UNL     1       2.876   5.602  18.300  0.00  0.00    +0.000 A 
ATOM     14  C   UNL     1       3.120   4.224  18.306  0.00  0.00    +0.000 A 
BRANCH   9  16
ATOM     15  C   UNL     1       3.531   1.462  18.407  0.00  0.00    +0.000 C 
ATOM     16  O   UNL     1       2.981   2.117  19.545  0.00  0.00    +0.000 OA
ENDBRANCH   9  16
ENDBRANCH   3  12
ENDBRANCH   1   6
BRANCH   1  17
ATOM     17  N   UNL     1      -0.050  11.884  20.388  0.00  0.00    +0.000 N 
ATOM     18  H   UNL     1       0.272  11.624  21.326  0.00  0.00    +0.000 HD
BRANCH  17  19
ATOM     19  N   UNL     1      -1.379  12.159  20.227  0.00  0.00    +0.000 NA
ATOM     20  C   UNL     1      -2.016  12.222  21.360  0.00  0.00    +0.000 C 
ATOM     21  C   UNL     1      -1.521  11.674  22.733  0.00  0.00    +0.000 C 
ATOM     22  O   UNL     1      -0.391  11.313  22.964  0.00  0.00    +0.000 OA
ATOM     23  N   UNL     1      -2.575  11.798  23.577  0.00  0.00    +0.000 N 
ATOM     24  C   UNL     1      -3.560  12.591  23.002  0.00  0.00    +0.000 A 
ATOM     25  C   UNL     1      -4.577  13.228  23.692  0.00  0.00    +0.000 A 
ATOM     26  C   UNL     1      -5.335  14.158  22.974  0.00  0.00    +0.000 A 
ATOM     27  C   UNL     1      -5.100  14.381  21.604  0.00  0.00    +0.000 A 
ATOM     28 CL   UNL     1      -6.031  15.581  20.789  0.00  0.00    +0.000 Cl
ATOM     29  C   UNL     1      -4.085  13.715  20.913  0.00  0.00    +0.000 A 
ATOM     30  C   UNL     1      -3.311  12.842  21.648  0.00  0.00    +0.000 A 
ATOM     31  H   UNL     1      -2.523  11.525  24.553  0.00  0.00    +0.000 HD
ENDBRANCH  17  19
ENDBRANCH   1  17
TORSDOF 5
ENDMDL
MODEL 9
REMARK VINA RESULT:      -7.4      6.104     11.246
REMARK  Name = 
REMARK  6 active torsions:
REMARK  status: ('A' for Active; 'I' for Inactive)
REMARK    1  A    between atoms: C_1  and  O_2
REMARK    2  A    between atoms: O_2  and  C_3
REMARK    3  A    between atoms: C_6  and  N_7
REMARK    4  A    between atoms: N_10  and  C_11
REMARK    5  A    between atoms: C_11  and  N_13
REMARK    6  A    between atoms: N_13  and  N_14
REMARK                            x       y       z     vdW  Elec       q    Type
REMARK                         _______ _______ _______ _____ _____    ______ ____
ROOT
ATOM      1  C   UNL     1      -0.081  12.821  19.665  0.00  0.00    +0.000 C 
ATOM      2  S   UNL     1       0.351  14.424  19.811  0.00  0.00    +0.000 S 
ENDROOT
BRANCH   1   6
ATOM      3  N   UNL     1       1.467   9.017  19.308  0.00  0.00    +0.000 N 
ATOM      4  C   UNL     1       0.634   9.320  20.488  0.00  0.00    +0.000 C 
ATOM      5  C   UNL     1       0.849  10.791  20.916  0.00  0.00    +0.000 C 
ATOM      6  N   UNL     1       0.799  11.738  19.790  0.00  0.00    +0.000 N 
ATOM      7  C   UNL     1       1.618  11.356  18.626  0.00  0.00    +0.000 C 
ATOM      8  C   UNL     1       1.259   9.936  18.177  0.00  0.00    +0.000 C 
BRANCH   3  12
ATOM      9  C   UNL     1       3.508   5.353  18.823  0.00  0.00    +0.000 A 
ATOM     10  C   UNL     1       3.599   6.344  17.847  0.00  0.00    +0.000 A 
ATOM     11  C   UNL     1       2.933   7.569  18.006  0.00  0.00    +0.000 A 
ATOM     12  C   UNL     1       2.152   7.833  19.136  0.00  0.00    +0.000 A 
ATOM     13  C   UNL     1       2.058   6.807  20.091  0.00  0.00    +0.000 A 
ATOM     14  C   UNL     1       2.724   5.585  19.944  0.00  0.00    +0.000 A 
BRANCH   9  16
ATOM     15  C   UNL     1       5.464   4.351  17.954  0.00  0.00    +0.000 C 
ATOM     16  O   UNL     1       4.184   4.195  18.556  0.00  0.00    +0.000 OA
ENDBRANCH   9  16
ENDBRANCH   3  12
ENDBRANCH   1   6
BRANCH   1  17
ATOM     17  N   UNL     1      -1.343  12.340  19.363  0.00  0.00    +0.000 N 
ATOM     18  H   UNL     1      -1.318  11.740  18.532  0.00  0.00    +0.000 HD
BRANCH  17  19
ATOM     19  N   UNL     1      -2.563  12.782  19.790  0.00  0.00    +0.000 NA
ATOM     20  C   UNL     1      -3.549  12.198  19.172  0.00  0.00    +0.000 C 
ATOM     21  C   UNL     1      -3.462  11.399  17.837  0.00  0.00    +0.000 C 
ATOM     22  O   UNL     1      -2.433  11.037  17.316  0.00  0.00    +0.000 OA
ATOM     23  N   UNL     1      -4.745  11.135  17.485  0.00  0.00    +0.000 N 
ATOM     24  C   UNL     1      -5.600  11.415  18.543  0.00  0.00    +0.000 A 
ATOM     25  C   UNL     1      -6.888  10.927  18.680  0.00  0.00    +0.000 A 
ATOM     26  C   UNL     1      -7.510  11.137  19.914  0.00  0.00    +0.000 A 
ATOM     27  C   UNL     1      -6.866  11.858  20.937  0.00  0.00    +0.000 A 
ATOM     28 CL   UNL     1      -7.663  12.034  22.455  0.00  0.00    +0.000 Cl
ATOM     29  C   UNL     1      -5.574  12.365  20.779  0.00  0.00    +0.000 A 
ATOM     30  C   UNL     1      -4.954  12.104  19.575  0.00  0.00    +0.000 A 
ATOM     31  H   UNL     1      -4.981  10.608  16.650  0.00  0.00    +0.000 HD
ENDBRANCH  17  19
ENDBRANCH   1  17
TORSDOF 5
ENDMDL
