MODEL 1
REMARK VINA RESULT:      -8.6      0.000      0.000
REMARK  Name = 
REMARK  6 active torsions:
REMARK  status: ('A' for Active; 'I' for Inactive)
REMARK    1  A    between atoms: S_2  and  N_4
REMARK    2  A    between atoms: S_2  and  C_14
REMARK    3  A    between atoms: N_4  and  C_5
REMARK    4  A    between atoms: C_5  and  C_6
REMARK    5  A    between atoms: C_6  and  O_7
REMARK    6  A    between atoms: O_7  and  C_8
REMARK                            x       y       z     vdW  Elec       q    Type
REMARK                         _______ _______ _______ _____ _____    ______ ____
ROOT
ATOM      1  O   UNL     1       7.684   4.784  17.431  0.00  0.00    +0.000 OA
ATOM      2  S   UNL     1       6.901   5.467  18.433  0.00  0.00    +0.000 S 
ATOM      3  O   UNL     1       7.330   5.531  19.813  0.00  0.00    +0.000 OA
ENDROOT
BRANCH   2   4
ATOM      4  C   UNL     1       5.258   4.805  18.374  0.00  0.00    +0.000 A 
ATOM      5  C   UNL     1       4.922   4.005  17.281  0.00  0.00    +0.000 A 
ATOM      6  C   UNL     1       3.697   3.346  17.266  0.00  0.00    +0.000 A 
ATOM      7  C   UNL     1       2.810   3.466  18.345  0.00  0.00    +0.000 A 
ATOM      8  C   UNL     1       1.640   2.699  18.393  0.00  0.00    +0.000 A 
ATOM      9  C   UNL     1       0.767   2.799  19.474  0.00  0.00    +0.000 A 
ATOM     10  C   UNL     1       1.031   3.704  20.498  0.00  0.00    +0.000 A 
ATOM     11  C   UNL     1       2.194   4.478  20.468  0.00  0.00    +0.000 A 
ATOM     12  C   UNL     1       3.119   4.342  19.417  0.00  0.00    +0.000 A 
ATOM     13  C   UNL     1       4.355   5.014  19.419  0.00  0.00    +0.000 A 
ENDBRANCH   2   4
BRANCH   2  14
ATOM     14  N   UNL     1       6.691   7.033  17.864  0.00  0.00    +0.000 NA
ATOM     15  H   UNL     1       5.950   7.534  18.355  0.00  0.00    +0.000 HD
BRANCH  14  16
ATOM     16  C   UNL     1       7.832   7.827  17.382  0.00  0.00    +0.000 C 
BRANCH  16  17
ATOM     17  C   UNL     1       8.553   8.582  18.493  0.00  0.00    +0.000 C 
BRANCH  17  18
ATOM     18  O   UNL     1       8.501   9.979  18.207  0.00  0.00    +0.000 OA
BRANCH  18  19
ATOM     19  C   UNL     1       9.454  10.734  18.839  0.00  0.00    +0.000 A 
ATOM     20  C   UNL     1      10.454  11.226  18.001  0.00  0.00    +0.000 A 
ATOM     21  C   UNL     1      11.497  11.989  18.523  0.00  0.00    +0.000 A 
ATOM     22  C   UNL     1      11.532  12.286  19.883  0.00  0.00    +0.000 A 
ATOM     23  C   UNL     1      10.520  11.822  20.721  0.00  0.00    +0.000 A 
ATOM     24  C   UNL     1       9.480  11.047  20.201  0.00  0.00    +0.000 A 
ENDBRANCH  18  19
ENDBRANCH  17  18
ENDBRANCH  16  17
ENDBRANCH  14  16
ENDBRANCH   2  14
TORSDOF 6
ENDMDL
MODEL 2
REMARK VINA RESULT:      -8.3      3.804      6.906
REMARK  Name = 
REMARK  6 active torsions:
REMARK  status: ('A' for Active; 'I' for Inactive)
REMARK    1  A    between atoms: S_2  and  N_4
REMARK    2  A    between atoms: S_2  and  C_14
REMARK    3  A    between atoms: N_4  and  C_5
REMARK    4  A    between atoms: C_5  and  C_6
REMARK    5  A    between atoms: C_6  and  O_7
REMARK    6  A    between atoms: O_7  and  C_8
REMARK                            x       y       z     vdW  Elec       q    Type
REMARK                         _______ _______ _______ _____ _____    ______ ____
ROOT
ATOM      1  O   UNL     1       4.980   1.811  20.516  0.00  0.00    +0.000 OA
ATOM      2  S   UNL     1       4.008   2.415  19.637  0.00  0.00    +0.000 S 
ATOM      3  O   UNL     1       3.237   1.622  18.704  0.00  0.00    +0.000 OA
ENDROOT
BRANCH   2   4
ATOM      4  C   UNL     1       4.823   3.713  18.746  0.00  0.00    +0.000 A 
ATOM      5  C   UNL     1       4.201   4.194  17.593  0.00  0.00    +0.000 A 
ATOM      6  C   UNL     1       4.728   5.308  16.946  0.00  0.00    +0.000 A 
ATOM      7  C   UNL     1       5.862   5.957  17.454  0.00  0.00    +0.000 A 
ATOM      8  C   UNL     1       6.311   7.154  16.884  0.00  0.00    +0.000 A 
ATOM      9  C   UNL     1       7.424   7.814  17.399  0.00  0.00    +0.000 A 
ATOM     10  C   UNL     1       8.130   7.259  18.462  0.00  0.00    +0.000 A 
ATOM     11  C   UNL     1       7.697   6.066  19.044  0.00  0.00    +0.000 A 
ATOM     12  C   UNL     1       6.537   5.420  18.580  0.00  0.00    +0.000 A 
ATOM     13  C   UNL     1       6.006   4.286  19.221  0.00  0.00    +0.000 A 
ENDBRANCH   2   4
BRANCH   2  14
ATOM     14  N   UNL     1       2.948   3.256  20.631  0.00  0.00    +0.000 NA
ATOM     15  H   UNL     1       3.412   3.679  21.434  0.00  0.00    +0.000 HD
BRANCH  14  16
ATOM     16  C   UNL     1       1.789   3.970  20.075  0.00  0.00    +0.000 C 
BRANCH  16  17
ATOM     17  C   UNL     1       1.627   5.382  20.628  0.00  0.00    +0.000 C 
BRANCH  17  18
ATOM     18  O   UNL     1       2.647   6.212  20.074  0.00  0.00    +0.000 OA
BRANCH  18  19
ATOM     19  C   UNL     1       2.201   7.384  19.523  0.00  0.00    +0.000 A 
ATOM     20  C   UNL     1       1.481   8.199  20.395  0.00  0.00    +0.000 A 
ATOM     21  C   UNL     1       0.952   9.410  19.951  0.00  0.00    +0.000 A 
ATOM     22  C   UNL     1       1.161   9.824  18.639  0.00  0.00    +0.000 A 
ATOM     23  C   UNL     1       1.905   9.028  17.770  0.00  0.00    +0.000 A 
ATOM     24  C   UNL     1       2.427   7.809  18.210  0.00  0.00    +0.000 A 
ENDBRANCH  18  19
ENDBRANCH  17  18
ENDBRANCH  16  17
ENDBRANCH  14  16
ENDBRANCH   2  14
TORSDOF 6
ENDMDL
MODEL 3
REMARK VINA RESULT:      -8.3      4.477      5.437
REMARK  Name = 
REMARK  6 active torsions:
REMARK  status: ('A' for Active; 'I' for Inactive)
REMARK    1  A    between atoms: S_2  and  N_4
REMARK    2  A    between atoms: S_2  and  C_14
REMARK    3  A    between atoms: N_4  and  C_5
REMARK    4  A    between atoms: C_5  and  C_6
REMARK    5  A    between atoms: C_6  and  O_7
REMARK    6  A    between atoms: O_7  and  C_8
REMARK                            x       y       z     vdW  Elec       q    Type
REMARK                         _______ _______ _______ _____ _____    ______ ____
ROOT
ATOM      1  O   UNL     1       6.010   3.773  14.953  0.00  0.00    +0.000 OA
ATOM      2  S   UNL     1       6.489   4.406  16.158  0.00  0.00    +0.000 S 
ATOM      3  O   UNL     1       7.832   4.182  16.647  0.00  0.00    +0.000 OA
ENDROOT
BRANCH   2   4
ATOM      4  C   UNL     1       5.339   4.034  17.454  0.00  0.00    +0.000 A 
ATOM      5  C   UNL     1       5.642   4.489  18.738  0.00  0.00    +0.000 A 
ATOM      6  C   UNL     1       4.702   4.348  19.754  0.00  0.00    +0.000 A 
ATOM      7  C   UNL     1       3.451   3.771  19.492  0.00  0.00    +0.000 A 
ATOM      8  C   UNL     1       2.457   3.752  20.477  0.00  0.00    +0.000 A 
ATOM      9  C   UNL     1       1.205   3.199  20.214  0.00  0.00    +0.000 A 
ATOM     10  C   UNL     1       0.950   2.616  18.978  0.00  0.00    +0.000 A 
ATOM     11  C   UNL     1       1.930   2.626  17.982  0.00  0.00    +0.000 A 
ATOM     12  C   UNL     1       3.176   3.238  18.207  0.00  0.00    +0.000 A 
ATOM     13  C   UNL     1       4.136   3.373  17.189  0.00  0.00    +0.000 A 
ENDBRANCH   2   4
BRANCH   2  14
ATOM     14  N   UNL     1       6.269   6.056  15.930  0.00  0.00    +0.000 NA
ATOM     15  H   UNL     1       7.015   6.480  15.379  0.00  0.00    +0.000 HD
BRANCH  14  16
ATOM     16  C   UNL     1       4.923   6.632  15.791  0.00  0.00    +0.000 C 
BRANCH  16  17
ATOM     17  C   UNL     1       4.461   7.391  17.030  0.00  0.00    +0.000 C 
BRANCH  17  18
ATOM     18  O   UNL     1       3.287   6.761  17.543  0.00  0.00    +0.000 OA
BRANCH  18  19
ATOM     19  C   UNL     1       2.534   7.539  18.383  0.00  0.00    +0.000 A 
ATOM     20  C   UNL     1       1.927   8.634  17.771  0.00  0.00    +0.000 A 
ATOM     21  C   UNL     1       1.152   9.519  18.521  0.00  0.00    +0.000 A 
ATOM     22  C   UNL     1       0.961   9.298  19.882  0.00  0.00    +0.000 A 
ATOM     23  C   UNL     1       1.543   8.189  20.493  0.00  0.00    +0.000 A 
ATOM     24  C   UNL     1       2.328   7.308  19.747  0.00  0.00    +0.000 A 
ENDBRANCH  18  19
ENDBRANCH  17  18
ENDBRANCH  16  17
ENDBRANCH  14  16
ENDBRANCH   2  14
TORSDOF 6
ENDMDL
MODEL 4
REMARK VINA RESULT:      -8.2      0.697      1.208
REMARK  Name = 
REMARK  6 active torsions:
REMARK  status: ('A' for Active; 'I' for Inactive)
REMARK    1  A    between atoms: S_2  and  N_4
REMARK    2  A    between atoms: S_2  and  C_14
REMARK    3  A    between atoms: N_4  and  C_5
REMARK    4  A    between atoms: C_5  and  C_6
REMARK    5  A    between atoms: C_6  and  O_7
REMARK    6  A    between atoms: O_7  and  C_8
REMARK                            x       y       z     vdW  Elec       q    Type
REMARK                         _______ _______ _______ _____ _____    ______ ____
ROOT
ATOM      1  O   UNL     1       7.769   4.546  16.889  0.00  0.00    +0.000 OA
ATOM      2  S   UNL     1       7.123   5.486  17.772  0.00  0.00    +0.000 S 
ATOM      3  O   UNL     1       7.656   5.778  19.086  0.00  0.00    +0.000 OA
ENDROOT
BRANCH   2   4
ATOM      4  C   UNL     1       5.430   4.990  17.940  0.00  0.00    +0.000 A 
ATOM      5  C   UNL     1       4.883   4.205  16.924  0.00  0.00    +0.000 A 
ATOM      6  C   UNL     1       3.608   3.671  17.083  0.00  0.00    +0.000 A 
ATOM      7  C   UNL     1       2.881   3.901  18.260  0.00  0.00    +0.000 A 
ATOM      8  C   UNL     1       1.658   3.256  18.477  0.00  0.00    +0.000 A 
ATOM      9  C   UNL     1       0.943   3.464  19.654  0.00  0.00    +0.000 A 
ATOM     10  C   UNL     1       1.419   4.359  20.607  0.00  0.00    +0.000 A 
ATOM     11  C   UNL     1       2.638   5.012  20.408  0.00  0.00    +0.000 A 
ATOM     12  C   UNL     1       3.405   4.763  19.256  0.00  0.00    +0.000 A 
ATOM     13  C   UNL     1       4.690   5.309  19.082  0.00  0.00    +0.000 A 
ENDBRANCH   2   4
BRANCH   2  14
ATOM     14  N   UNL     1       7.005   6.922  16.911  0.00  0.00    +0.000 NA
ATOM     15  H   UNL     1       6.430   6.833  16.073  0.00  0.00    +0.000 HD
BRANCH  14  16
ATOM     16  C   UNL     1       6.990   8.223  17.598  0.00  0.00    +0.000 C 
BRANCH  16  17
ATOM     17  C   UNL     1       8.347   8.916  17.608  0.00  0.00    +0.000 C 
BRANCH  17  18
ATOM     18  O   UNL     1       8.700   9.216  18.958  0.00  0.00    +0.000 OA
BRANCH  18  19
ATOM     19  C   UNL     1       9.407  10.377  19.126  0.00  0.00    +0.000 A 
ATOM     20  C   UNL     1       9.592  10.758  20.454  0.00  0.00    +0.000 A 
ATOM     21  C   UNL     1      10.275  11.934  20.761  0.00  0.00    +0.000 A 
ATOM     22  C   UNL     1      10.799  12.723  19.740  0.00  0.00    +0.000 A 
ATOM     23  C   UNL     1      10.643  12.333  18.412  0.00  0.00    +0.000 A 
ATOM     24  C   UNL     1       9.949  11.161  18.102  0.00  0.00    +0.000 A 
ENDBRANCH  18  19
ENDBRANCH  17  18
ENDBRANCH  16  17
ENDBRANCH  14  16
ENDBRANCH   2  14
TORSDOF 6
ENDMDL
MODEL 5
REMARK VINA RESULT:      -8.2      3.971      6.836
REMARK  Name = 
REMARK  6 active torsions:
REMARK  status: ('A' for Active; 'I' for Inactive)
REMARK    1  A    between atoms: S_2  and  N_4
REMARK    2  A    between atoms: S_2  and  C_14
REMARK    3  A    between atoms: N_4  and  C_5
REMARK    4  A    between atoms: C_5  and  C_6
REMARK    5  A    between atoms: C_6  and  O_7
REMARK    6  A    between atoms: O_7  and  C_8
REMARK                            x       y       z     vdW  Elec       q    Type
REMARK                         _______ _______ _______ _____ _____    ______ ____
ROOT
ATOM      1  O   UNL     1       3.529   1.812  19.368  0.00  0.00    +0.000 OA
ATOM      2  S   UNL     1       2.975   2.637  18.321  0.00  0.00    +0.000 S 
ATOM      3  O   UNL     1       2.391   2.058  17.131  0.00  0.00    +0.000 OA
ENDROOT
BRANCH   2   4
ATOM      4  C   UNL     1       4.223   3.799  17.838  0.00  0.00    +0.000 A 
ATOM      5  C   UNL     1       4.072   4.433  16.603  0.00  0.00    +0.000 A 
ATOM      6  C   UNL     1       4.945   5.457  16.249  0.00  0.00    +0.000 A 
ATOM      7  C   UNL     1       5.958   5.867  17.128  0.00  0.00    +0.000 A 
ATOM      8  C   UNL     1       6.748   6.983  16.831  0.00  0.00    +0.000 A 
ATOM      9  C   UNL     1       7.741   7.407  17.712  0.00  0.00    +0.000 A 
ATOM     10  C   UNL     1       7.987   6.688  18.878  0.00  0.00    +0.000 A 
ATOM     11  C   UNL     1       7.208   5.571  19.191  0.00  0.00    +0.000 A 
ATOM     12  C   UNL     1       6.158   5.169  18.346  0.00  0.00    +0.000 A 
ATOM     13  C   UNL     1       5.280   4.126  18.692  0.00  0.00    +0.000 A 
ENDBRANCH   2   4
BRANCH   2  14
ATOM     14  N   UNL     1       1.827   3.612  19.062  0.00  0.00    +0.000 NA
ATOM     15  H   UNL     1       0.913   3.555  18.613  0.00  0.00    +0.000 HD
BRANCH  14  16
ATOM     16  C   UNL     1       1.846   3.841  20.515  0.00  0.00    +0.000 C 
BRANCH  16  17
ATOM     17  C   UNL     1       1.691   5.308  20.898  0.00  0.00    +0.000 C 
BRANCH  17  18
ATOM     18  O   UNL     1       2.708   6.064  20.240  0.00  0.00    +0.000 OA
BRANCH  18  19
ATOM     19  C   UNL     1       2.279   7.229  19.662  0.00  0.00    +0.000 A 
ATOM     20  C   UNL     1       2.653   7.388  18.328  0.00  0.00    +0.000 A 
ATOM     21  C   UNL     1       2.298   8.542  17.631  0.00  0.00    +0.000 A 
ATOM     22  C   UNL     1       1.547   9.532  18.256  0.00  0.00    +0.000 A 
ATOM     23  C   UNL     1       1.145   9.367  19.580  0.00  0.00    +0.000 A 
ATOM     24  C   UNL     1       1.508   8.216  20.284  0.00  0.00    +0.000 A 
ENDBRANCH  18  19
ENDBRANCH  17  18
ENDBRANCH  16  17
ENDBRANCH  14  16
ENDBRANCH   2  14
TORSDOF 6
ENDMDL
MODEL 6
REMARK VINA RESULT:      -8.1      1.142      1.695
REMARK  Name = 
REMARK  6 active torsions:
REMARK  status: ('A' for Active; 'I' for Inactive)
REMARK    1  A    between atoms: S_2  and  N_4
REMARK    2  A    between atoms: S_2  and  C_14
REMARK    3  A    between atoms: N_4  and  C_5
REMARK    4  A    between atoms: C_5  and  C_6
REMARK    5  A    between atoms: C_6  and  O_7
REMARK    6  A    between atoms: O_7  and  C_8
REMARK                            x       y       z     vdW  Elec       q    Type
REMARK                         _______ _______ _______ _____ _____    ______ ____
ROOT
ATOM      1  O   UNL     1       5.888   6.601  15.424  0.00  0.00    +0.000 OA
ATOM      2  S   UNL     1       6.365   5.697  16.443  0.00  0.00    +0.000 S 
ATOM      3  O   UNL     1       7.307   4.642  16.137  0.00  0.00    +0.000 OA
ENDROOT
BRANCH   2   4
ATOM      4  C   UNL     1       4.948   4.985  17.235  0.00  0.00    +0.000 A 
ATOM      5  C   UNL     1       4.675   3.639  16.983  0.00  0.00    +0.000 A 
ATOM      6  C   UNL     1       3.664   3.002  17.696  0.00  0.00    +0.000 A 
ATOM      7  C   UNL     1       2.934   3.695  18.672  0.00  0.00    +0.000 A 
ATOM      8  C   UNL     1       2.012   3.021  19.481  0.00  0.00    +0.000 A 
ATOM      9  C   UNL     1       1.301   3.702  20.468  0.00  0.00    +0.000 A 
ATOM     10  C   UNL     1       1.469   5.074  20.623  0.00  0.00    +0.000 A 
ATOM     11  C   UNL     1       2.385   5.763  19.825  0.00  0.00    +0.000 A 
ATOM     12  C   UNL     1       3.160   5.081  18.869  0.00  0.00    +0.000 A 
ATOM     13  C   UNL     1       4.175   5.721  18.137  0.00  0.00    +0.000 A 
ENDBRANCH   2   4
BRANCH   2  14
ATOM     14  N   UNL     1       7.018   6.665  17.650  0.00  0.00    +0.000 NA
ATOM     15  H   UNL     1       7.557   6.133  18.333  0.00  0.00    +0.000 HD
BRANCH  14  16
ATOM     16  C   UNL     1       7.465   8.037  17.365  0.00  0.00    +0.000 C 
BRANCH  16  17
ATOM     17  C   UNL     1       8.401   8.600  18.429  0.00  0.00    +0.000 C 
BRANCH  17  18
ATOM     18  O   UNL     1       8.280  10.022  18.441  0.00  0.00    +0.000 OA
BRANCH  18  19
ATOM     19  C   UNL     1       9.400  10.693  18.855  0.00  0.00    +0.000 A 
ATOM     20  C   UNL     1       9.429  10.991  20.216  0.00  0.00    +0.000 A 
ATOM     21  C   UNL     1      10.504  11.693  20.760  0.00  0.00    +0.000 A 
ATOM     22  C   UNL     1      11.568  12.078  19.949  0.00  0.00    +0.000 A 
ATOM     23  C   UNL     1      11.559  11.757  18.593  0.00  0.00    +0.000 A 
ATOM     24  C   UNL     1      10.477  11.064  18.044  0.00  0.00    +0.000 A 
ENDBRANCH  18  19
ENDBRANCH  17  18
ENDBRANCH  16  17
ENDBRANCH  14  16
ENDBRANCH   2  14
TORSDOF 6
ENDMDL
MODEL 7
REMARK VINA RESULT:      -8.1      1.419      1.792
REMARK  Name = 
REMARK  6 active torsions:
REMARK  status: ('A' for Active; 'I' for Inactive)
REMARK    1  A    between atoms: S_2  and  N_4
REMARK    2  A    between atoms: S_2  and  C_14
REMARK    3  A    between atoms: N_4  and  C_5
REMARK    4  A    between atoms: C_5  and  C_6
REMARK    5  A    between atoms: C_6  and  O_7
REMARK    6  A    between atoms: O_7  and  C_8
REMARK                            x       y       z     vdW  Elec       q    Type
REMARK                         _______ _______ _______ _____ _____    ______ ____
ROOT
ATOM      1  O   UNL     1       6.172   5.220  15.231  0.00  0.00    +0.000 OA
ATOM      2  S   UNL     1       6.675   5.358  16.576  0.00  0.00    +0.000 S 
ATOM      3  O   UNL     1       7.730   4.505  17.081  0.00  0.00    +0.000 OA
ENDROOT
BRANCH   2   4
ATOM      4  C   UNL     1       5.290   5.268  17.679  0.00  0.00    +0.000 A 
ATOM      5  C   UNL     1       4.342   6.289  17.611  0.00  0.00    +0.000 A 
ATOM      6  C   UNL     1       3.168   6.184  18.350  0.00  0.00    +0.000 A 
ATOM      7  C   UNL     1       2.926   5.054  19.145  0.00  0.00    +0.000 A 
ATOM      8  C   UNL     1       1.691   4.884  19.781  0.00  0.00    +0.000 A 
ATOM      9  C   UNL     1       1.438   3.753  20.554  0.00  0.00    +0.000 A 
ATOM     10  C   UNL     1       2.436   2.802  20.739  0.00  0.00    +0.000 A 
ATOM     11  C   UNL     1       3.675   2.954  20.112  0.00  0.00    +0.000 A 
ATOM     12  C   UNL     1       3.925   4.056  19.275  0.00  0.00    +0.000 A 
ATOM     13  C   UNL     1       5.114   4.176  18.533  0.00  0.00    +0.000 A 
ENDBRANCH   2   4
BRANCH   2  14
ATOM     14  N   UNL     1       7.163   6.958  16.724  0.00  0.00    +0.000 NA
ATOM     15  H   UNL     1       6.585   7.598  16.179  0.00  0.00    +0.000 HD
BRANCH  14  16
ATOM     16  C   UNL     1       7.723   7.469  17.984  0.00  0.00    +0.000 C 
BRANCH  16  17
ATOM     17  C   UNL     1       8.221   8.907  17.884  0.00  0.00    +0.000 C 
BRANCH  17  18
ATOM     18  O   UNL     1       8.979   9.213  19.055  0.00  0.00    +0.000 OA
BRANCH  18  19
ATOM     19  C   UNL     1       9.308  10.534  19.200  0.00  0.00    +0.000 A 
ATOM     20  C   UNL     1       9.133  11.306  18.052  0.00  0.00    +0.000 A 
ATOM     21  C   UNL     1       9.455  12.662  18.060  0.00  0.00    +0.000 A 
ATOM     22  C   UNL     1       9.929  13.260  19.224  0.00  0.00    +0.000 A 
ATOM     23  C   UNL     1      10.079  12.501  20.383  0.00  0.00    +0.000 A 
ATOM     24  C   UNL     1       9.768  11.139  20.374  0.00  0.00    +0.000 A 
ENDBRANCH  18  19
ENDBRANCH  17  18
ENDBRANCH  16  17
ENDBRANCH  14  16
ENDBRANCH   2  14
TORSDOF 6
ENDMDL
MODEL 8
REMARK VINA RESULT:      -8.0      1.081      1.216
REMARK  Name = 
REMARK  6 active torsions:
REMARK  status: ('A' for Active; 'I' for Inactive)
REMARK    1  A    between atoms: S_2  and  N_4
REMARK    2  A    between atoms: S_2  and  C_14
REMARK    3  A    between atoms: N_4  and  C_5
REMARK    4  A    between atoms: C_5  and  C_6
REMARK    5  A    between atoms: C_6  and  O_7
REMARK    6  A    between atoms: O_7  and  C_8
REMARK                            x       y       z     vdW  Elec       q    Type
REMARK                         _______ _______ _______ _____ _____    ______ ____
ROOT
ATOM      1  O   UNL     1       6.890   4.174  16.047  0.00  0.00    +0.000 OA
ATOM      2  S   UNL     1       6.895   4.954  17.261  0.00  0.00    +0.000 S 
ATOM      3  O   UNL     1       7.883   4.736  18.296  0.00  0.00    +0.000 OA
ENDROOT
BRANCH   2   4
ATOM      4  C   UNL     1       5.280   4.839  17.981  0.00  0.00    +0.000 A 
ATOM      5  C   UNL     1       4.247   5.550  17.368  0.00  0.00    +0.000 A 
ATOM      6  C   UNL     1       2.939   5.373  17.809  0.00  0.00    +0.000 A 
ATOM      7  C   UNL     1       2.652   4.475  18.846  0.00  0.00    +0.000 A 
ATOM      8  C   UNL     1       1.326   4.195  19.198  0.00  0.00    +0.000 A 
ATOM      9  C   UNL     1       1.036   3.287  20.214  0.00  0.00    +0.000 A 
ATOM     10  C   UNL     1       2.070   2.684  20.922  0.00  0.00    +0.000 A 
ATOM     11  C   UNL     1       3.400   2.950  20.585  0.00  0.00    +0.000 A 
ATOM     12  C   UNL     1       3.710   3.813  19.519  0.00  0.00    +0.000 A 
ATOM     13  C   UNL     1       5.031   4.007  19.076  0.00  0.00    +0.000 A 
ENDBRANCH   2   4
BRANCH   2  14
ATOM     14  N   UNL     1       6.972   6.560  16.777  0.00  0.00    +0.000 NA
ATOM     15  H   UNL     1       6.501   6.726  15.887  0.00  0.00    +0.000 HD
BRANCH  14  16
ATOM     16  C   UNL     1       6.949   7.653  17.761  0.00  0.00    +0.000 C 
BRANCH  16  17
ATOM     17  C   UNL     1       8.306   8.322  17.952  0.00  0.00    +0.000 C 
BRANCH  17  18
ATOM     18  O   UNL     1       8.121   9.737  17.979  0.00  0.00    +0.000 OA
BRANCH  18  19
ATOM     19  C   UNL     1       9.107  10.436  18.623  0.00  0.00    +0.000 A 
ATOM     20  C   UNL     1      10.052  11.018  17.779  0.00  0.00    +0.000 A 
ATOM     21  C   UNL     1      11.121  11.738  18.310  0.00  0.00    +0.000 A 
ATOM     22  C   UNL     1      11.238  11.900  19.688  0.00  0.00    +0.000 A 
ATOM     23  C   UNL     1      10.281  11.345  20.535  0.00  0.00    +0.000 A 
ATOM     24  C   UNL     1       9.215  10.614  20.006  0.00  0.00    +0.000 A 
ENDBRANCH  18  19
ENDBRANCH  17  18
ENDBRANCH  16  17
ENDBRANCH  14  16
ENDBRANCH   2  14
TORSDOF 6
ENDMDL
MODEL 9
REMARK VINA RESULT:      -8.0      1.214      1.933
REMARK  Name = 
REMARK  6 active torsions:
REMARK  status: ('A' for Active; 'I' for Inactive)
REMARK    1  A    between atoms: S_2  and  N_4
REMARK    2  A    between atoms: S_2  and  C_14
REMARK    3  A    between atoms: N_4  and  C_5
REMARK    4  A    between atoms: C_5  and  C_6
REMARK    5  A    between atoms: C_6  and  O_7
REMARK    6  A    between atoms: O_7  and  C_8
REMARK                            x       y       z     vdW  Elec       q    Type
REMARK                         _______ _______ _______ _____ _____    ______ ____
ROOT
ATOM      1  O   UNL     1       5.140   6.600  15.179  0.00  0.00    +0.000 OA
ATOM      2  S   UNL     1       5.867   6.070  16.307  0.00  0.00    +0.000 S 
ATOM      3  O   UNL     1       6.923   5.096  16.135  0.00  0.00    +0.000 OA
ENDROOT
BRANCH   2   4
ATOM      4  C   UNL     1       4.681   5.430  17.458  0.00  0.00    +0.000 A 
ATOM      5  C   UNL     1       4.337   6.234  18.546  0.00  0.00    +0.000 A 
ATOM      6  C   UNL     1       3.306   5.837  19.391  0.00  0.00    +0.000 A 
ATOM      7  C   UNL     1       2.602   4.649  19.147  0.00  0.00    +0.000 A 
ATOM      8  C   UNL     1       1.479   4.317  19.914  0.00  0.00    +0.000 A 
ATOM      9  C   UNL     1       0.764   3.149  19.661  0.00  0.00    +0.000 A 
ATOM     10  C   UNL     1       1.192   2.274  18.667  0.00  0.00    +0.000 A 
ATOM     11  C   UNL     1       2.310   2.589  17.890  0.00  0.00    +0.000 A 
ATOM     12  C   UNL     1       3.005   3.795  18.088  0.00  0.00    +0.000 A 
ATOM     13  C   UNL     1       4.057   4.198  17.246  0.00  0.00    +0.000 A 
ENDBRANCH   2   4
BRANCH   2  14
ATOM     14  N   UNL     1       6.491   7.401  17.119  0.00  0.00    +0.000 NA
ATOM     15  H   UNL     1       5.863   7.751  17.842  0.00  0.00    +0.000 HD
BRANCH  14  16
ATOM     16  C   UNL     1       7.936   7.533  17.364  0.00  0.00    +0.000 C 
BRANCH  16  17
ATOM     17  C   UNL     1       8.269   8.482  18.511  0.00  0.00    +0.000 C 
BRANCH  17  18
ATOM     18  O   UNL     1       8.434   9.798  17.984  0.00  0.00    +0.000 OA
BRANCH  18  19
ATOM     19  C   UNL     1       9.334  10.581  18.659  0.00  0.00    +0.000 A 
ATOM     20  C   UNL     1      10.241  11.257  17.845  0.00  0.00    +0.000 A 
ATOM     21  C   UNL     1      11.224  12.068  18.409  0.00  0.00    +0.000 A 
ATOM     22  C   UNL     1      11.289  12.228  19.790  0.00  0.00    +0.000 A 
ATOM     23  C   UNL     1      10.367  11.578  20.608  0.00  0.00    +0.000 A 
ATOM     24  C   UNL     1       9.388  10.755  20.045  0.00  0.00    +0.000 A 
ENDBRANCH  18  19
ENDBRANCH  17  18
ENDBRANCH  16  17
ENDBRANCH  14  16
ENDBRANCH   2  14
TORSDOF 6
ENDMDL
