MODEL 1
REMARK VINA RESULT:      -7.9      0.000      0.000
REMARK  Name = 
REMARK  6 active torsions:
REMARK  status: ('A' for Active; 'I' for Inactive)
REMARK    1  A    between atoms: C_1  and  O_2
REMARK    2  A    between atoms: O_2  and  C_3
REMARK    3  A    between atoms: C_6  and  C_7
REMARK    4  A    between atoms: N_9  and  C_10
REMARK    5  A    between atoms: C_17  and  C_18
REMARK    6  A    between atoms: C_21  and  N_22
REMARK                            x       y       z     vdW  Elec       q    Type
REMARK                         _______ _______ _______ _____ _____    ______ ____
ROOT
ATOM      1  C   UNL     1       3.151   6.270  19.238  0.00  0.00    +0.000 A 
ATOM      2  N   UNL     1       2.598   7.490  19.329  0.00  0.00    +0.000 NA
ATOM      3  N   UNL     1       1.708   7.420  20.354  0.00  0.00    +0.000 N 
ATOM      4  C   UNL     1       1.645   6.145  20.861  0.00  0.00    +0.000 A 
ATOM      5  C   UNL     1       2.532   5.367  20.148  0.00  0.00    +0.000 A 
ENDROOT
BRANCH   1   9
ATOM      6  C   UNL     1       6.414   5.615  16.481  0.00  0.00    +0.000 A 
ATOM      7  C   UNL     1       5.164   6.066  16.043  0.00  0.00    +0.000 A 
ATOM      8  C   UNL     1       4.095   6.248  16.929  0.00  0.00    +0.000 A 
ATOM      9  C   UNL     1       4.256   6.029  18.301  0.00  0.00    +0.000 A 
ATOM     10  C   UNL     1       5.492   5.550  18.753  0.00  0.00    +0.000 A 
ATOM     11  C   UNL     1       6.551   5.342  17.843  0.00  0.00    +0.000 A 
BRANCH  11  12
ATOM     12  N   UNL     1       7.795   4.897  18.426  0.00  0.00    +0.000 N 
ATOM     13  O   UNL     1       8.439   4.041  17.803  0.00  0.00    +0.000 OA
ATOM     14  O   UNL     1       8.094   5.358  19.533  0.00  0.00    +0.000 OA
ENDBRANCH  11  12
BRANCH   6  16
ATOM     15  C   UNL     1       7.059   4.921  14.269  0.00  0.00    +0.000 C 
ATOM     16  O   UNL     1       7.333   5.616  15.474  0.00  0.00    +0.000 OA
ENDBRANCH   6  16
ENDBRANCH   1   9
BRANCH   3  17
ATOM     17  C   UNL     1       0.985   8.563  20.787  0.00  0.00    +0.000 A 
ATOM     18  C   UNL     1       0.848   9.664  19.928  0.00  0.00    +0.000 A 
ATOM     19  C   UNL     1       0.159  10.805  20.351  0.00  0.00    +0.000 A 
ATOM     20  C   UNL     1      -0.395  10.854  21.628  0.00  0.00    +0.000 A 
ATOM     21  C   UNL     1      -0.268   9.762  22.485  0.00  0.00    +0.000 A 
ATOM     22  C   UNL     1       0.416   8.618  22.068  0.00  0.00    +0.000 A 
ENDBRANCH   3  17
BRANCH   5  23
ATOM     23  C   UNL     1       2.729   3.951  20.345  0.00  0.00    +0.000 C 
ATOM     24  O   UNL     1       2.339   3.348  21.339  0.00  0.00    +0.000 OA
ENDBRANCH   5  23
TORSDOF 5
ENDMDL
MODEL 2
REMARK VINA RESULT:      -7.9      1.152      1.562
REMARK  Name = 
REMARK  6 active torsions:
REMARK  status: ('A' for Active; 'I' for Inactive)
REMARK    1  A    between atoms: C_1  and  O_2
REMARK    2  A    between atoms: O_2  and  C_3
REMARK    3  A    between atoms: C_6  and  C_7
REMARK    4  A    between atoms: N_9  and  C_10
REMARK    5  A    between atoms: C_17  and  C_18
REMARK    6  A    between atoms: C_21  and  N_22
REMARK                            x       y       z     vdW  Elec       q    Type
REMARK                         _______ _______ _______ _____ _____    ______ ____
ROOT
ATOM      1  C   UNL     1       2.814   5.715  19.370  0.00  0.00    +0.000 A 
ATOM      2  N   UNL     1       2.460   7.005  19.270  0.00  0.00    +0.000 NA
ATOM      3  N   UNL     1       1.672   7.260  20.347  0.00  0.00    +0.000 N 
ATOM      4  C   UNL     1       1.470   6.120  21.087  0.00  0.00    +0.000 A 
ATOM      5  C   UNL     1       2.158   5.096  20.473  0.00  0.00    +0.000 A 
ENDROOT
BRANCH   1   9
ATOM      6  C   UNL     1       5.632   4.055  16.544  0.00  0.00    +0.000 A 
ATOM      7  C   UNL     1       4.262   3.778  16.463  0.00  0.00    +0.000 A 
ATOM      8  C   UNL     1       3.351   4.288  17.396  0.00  0.00    +0.000 A 
ATOM      9  C   UNL     1       3.776   5.138  18.423  0.00  0.00    +0.000 A 
ATOM     10  C   UNL     1       5.147   5.402  18.536  0.00  0.00    +0.000 A 
ATOM     11  C   UNL     1       6.057   4.856  17.606  0.00  0.00    +0.000 A 
BRANCH  11  12
ATOM     12  N   UNL     1       7.438   5.236  17.788  0.00  0.00    +0.000 N 
ATOM     13  O   UNL     1       7.756   6.391  17.470  0.00  0.00    +0.000 OA
ATOM     14  O   UNL     1       8.214   4.362  18.190  0.00  0.00    +0.000 OA
ENDBRANCH  11  12
BRANCH   6  16
ATOM     15  C   UNL     1       6.425   4.317  14.289  0.00  0.00    +0.000 C 
ATOM     16  O   UNL     1       6.314   3.552  15.477  0.00  0.00    +0.000 OA
ENDBRANCH   6  16
ENDBRANCH   1   9
BRANCH   3  17
ATOM     17  C   UNL     1       1.171   8.564  20.608  0.00  0.00    +0.000 A 
ATOM     18  C   UNL     1       0.795   8.914  21.914  0.00  0.00    +0.000 A 
ATOM     19  C   UNL     1       0.279  10.185  22.180  0.00  0.00    +0.000 A 
ATOM     20  C   UNL     1       0.136  11.112  21.149  0.00  0.00    +0.000 A 
ATOM     21  C   UNL     1       0.513  10.774  19.852  0.00  0.00    +0.000 A 
ATOM     22  C   UNL     1       1.032   9.506  19.579  0.00  0.00    +0.000 A 
ENDBRANCH   3  17
BRANCH   5  23
ATOM     23  C   UNL     1       2.161   3.723  20.916  0.00  0.00    +0.000 C 
ATOM     24  O   UNL     1       2.220   3.396  22.096  0.00  0.00    +0.000 OA
ENDBRANCH   5  23
TORSDOF 5
ENDMDL
MODEL 3
REMARK VINA RESULT:      -7.5      2.883      8.004
REMARK  Name = 
REMARK  6 active torsions:
REMARK  status: ('A' for Active; 'I' for Inactive)
REMARK    1  A    between atoms: C_1  and  O_2
REMARK    2  A    between atoms: O_2  and  C_3
REMARK    3  A    between atoms: C_6  and  C_7
REMARK    4  A    between atoms: N_9  and  C_10
REMARK    5  A    between atoms: C_17  and  C_18
REMARK    6  A    between atoms: C_21  and  N_22
REMARK                            x       y       z     vdW  Elec       q    Type
REMARK                         _______ _______ _______ _____ _____    ______ ____
ROOT
ATOM      1  C   UNL     1       5.275   5.985  17.308  0.00  0.00    +0.000 A 
ATOM      2  N   UNL     1       5.128   5.709  16.003  0.00  0.00    +0.000 NA
ATOM      3  N   UNL     1       6.310   5.174  15.599  0.00  0.00    +0.000 N 
ATOM      4  C   UNL     1       7.224   5.177  16.625  0.00  0.00    +0.000 A 
ATOM      5  C   UNL     1       6.610   5.723  17.731  0.00  0.00    +0.000 A 
ENDROOT
BRANCH   1   9
ATOM      6  C   UNL     1       1.946   7.423  19.659  0.00  0.00    +0.000 A 
ATOM      7  C   UNL     1       2.641   6.259  20.007  0.00  0.00    +0.000 A 
ATOM      8  C   UNL     1       3.699   5.773  19.229  0.00  0.00    +0.000 A 
ATOM      9  C   UNL     1       4.132   6.466  18.094  0.00  0.00    +0.000 A 
ATOM     10  C   UNL     1       3.430   7.618  17.716  0.00  0.00    +0.000 A 
ATOM     11  C   UNL     1       2.346   8.078  18.493  0.00  0.00    +0.000 A 
BRANCH  11  12
ATOM     12  N   UNL     1       1.729   9.302  18.038  0.00  0.00    +0.000 N 
ATOM     13  O   UNL     1       2.434  10.321  18.019  0.00  0.00    +0.000 OA
ATOM     14  O   UNL     1       0.525   9.256  17.761  0.00  0.00    +0.000 OA
ENDBRANCH  11  12
BRANCH   6  16
ATOM     15  C   UNL     1       1.340   8.801  21.535  0.00  0.00    +0.000 C 
ATOM     16  O   UNL     1       1.034   7.772  20.610  0.00  0.00    +0.000 OA
ENDBRANCH   6  16
ENDBRANCH   1   9
BRANCH   3  17
ATOM     17  C   UNL     1       6.492   4.688  14.276  0.00  0.00    +0.000 A 
ATOM     18  C   UNL     1       7.542   5.189  13.492  0.00  0.00    +0.000 A 
ATOM     19  C   UNL     1       7.717   4.738  12.181  0.00  0.00    +0.000 A 
ATOM     20  C   UNL     1       6.850   3.788  11.646  0.00  0.00    +0.000 A 
ATOM     21  C   UNL     1       5.808   3.282  12.420  0.00  0.00    +0.000 A 
ATOM     22  C   UNL     1       5.629   3.726  13.733  0.00  0.00    +0.000 A 
ENDBRANCH   3  17
BRANCH   5  23
ATOM     23  C   UNL     1       7.251   5.947  19.004  0.00  0.00    +0.000 C 
ATOM     24  O   UNL     1       7.114   5.202  19.968  0.00  0.00    +0.000 OA
ENDBRANCH   5  23
TORSDOF 5
ENDMDL
MODEL 4
REMARK VINA RESULT:      -7.4      3.196      7.528
REMARK  Name = 
REMARK  6 active torsions:
REMARK  status: ('A' for Active; 'I' for Inactive)
REMARK    1  A    between atoms: C_1  and  O_2
REMARK    2  A    between atoms: O_2  and  C_3
REMARK    3  A    between atoms: C_6  and  C_7
REMARK    4  A    between atoms: N_9  and  C_10
REMARK    5  A    between atoms: C_17  and  C_18
REMARK    6  A    between atoms: C_21  and  N_22
REMARK                            x       y       z     vdW  Elec       q    Type
REMARK                         _______ _______ _______ _____ _____    ______ ____
ROOT
ATOM      1  C   UNL     1       2.812   6.689  18.986  0.00  0.00    +0.000 A 
ATOM      2  N   UNL     1       3.732   6.755  18.012  0.00  0.00    +0.000 NA
ATOM      3  N   UNL     1       4.188   5.486  17.843  0.00  0.00    +0.000 N 
ATOM      4  C   UNL     1       3.613   4.634  18.754  0.00  0.00    +0.000 A 
ATOM      5  C   UNL     1       2.748   5.374  19.531  0.00  0.00    +0.000 A 
ENDROOT
BRANCH   1   9
ATOM      6  C   UNL     1       0.444  10.161  19.996  0.00  0.00    +0.000 A 
ATOM      7  C   UNL     1       1.008  10.002  18.725  0.00  0.00    +0.000 A 
ATOM      8  C   UNL     1       1.802   8.894  18.405  0.00  0.00    +0.000 A 
ATOM      9  C   UNL     1       2.022   7.876  19.339  0.00  0.00    +0.000 A 
ATOM     10  C   UNL     1       1.489   8.032  20.624  0.00  0.00    +0.000 A 
ATOM     11  C   UNL     1       0.716   9.169  20.941  0.00  0.00    +0.000 A 
BRANCH  11  12
ATOM     12  N   UNL     1       0.174   9.201  22.279  0.00  0.00    +0.000 N 
ATOM     13  O   UNL     1      -0.842   8.525  22.497  0.00  0.00    +0.000 OA
ATOM     14  O   UNL     1       0.727   9.950  23.092  0.00  0.00    +0.000 OA
ENDBRANCH  11  12
BRANCH   6  16
ATOM     15  C   UNL     1      -1.553  11.282  19.263  0.00  0.00    +0.000 C 
ATOM     16  O   UNL     1      -0.377  11.247  20.054  0.00  0.00    +0.000 OA
ENDBRANCH   6  16
ENDBRANCH   1   9
BRANCH   3  17
ATOM     17  C   UNL     1       5.130   5.165  16.829  0.00  0.00    +0.000 A 
ATOM     18  C   UNL     1       6.452   5.621  16.941  0.00  0.00    +0.000 A 
ATOM     19  C   UNL     1       7.382   5.332  15.938  0.00  0.00    +0.000 A 
ATOM     20  C   UNL     1       7.001   4.591  14.822  0.00  0.00    +0.000 A 
ATOM     21  C   UNL     1       5.691   4.130  14.706  0.00  0.00    +0.000 A 
ATOM     22  C   UNL     1       4.757   4.412  15.706  0.00  0.00    +0.000 A 
ENDBRANCH   3  17
BRANCH   5  23
ATOM     23  C   UNL     1       1.982   4.853  20.637  0.00  0.00    +0.000 C 
ATOM     24  O   UNL     1       0.855   4.386  20.516  0.00  0.00    +0.000 OA
ENDBRANCH   5  23
TORSDOF 5
ENDMDL
MODEL 5
REMARK VINA RESULT:      -7.4      3.233      7.475
REMARK  Name = 
REMARK  6 active torsions:
REMARK  status: ('A' for Active; 'I' for Inactive)
REMARK    1  A    between atoms: C_1  and  O_2
REMARK    2  A    between atoms: O_2  and  C_3
REMARK    3  A    between atoms: C_6  and  C_7
REMARK    4  A    between atoms: N_9  and  C_10
REMARK    5  A    between atoms: C_17  and  C_18
REMARK    6  A    between atoms: C_21  and  N_22
REMARK                            x       y       z     vdW  Elec       q    Type
REMARK                         _______ _______ _______ _____ _____    ______ ____
ROOT
ATOM      1  C   UNL     1       2.699   6.672  19.191  0.00  0.00    +0.000 A 
ATOM      2  N   UNL     1       3.724   6.748  18.329  0.00  0.00    +0.000 NA
ATOM      3  N   UNL     1       4.139   5.469  18.129  0.00  0.00    +0.000 N 
ATOM      4  C   UNL     1       3.428   4.596  18.916  0.00  0.00    +0.000 A 
ATOM      5  C   UNL     1       2.516   5.332  19.640  0.00  0.00    +0.000 A 
ENDROOT
BRANCH   1   9
ATOM      6  C   UNL     1       0.388  10.190  20.171  0.00  0.00    +0.000 A 
ATOM      7  C   UNL     1       0.830   9.943  18.867  0.00  0.00    +0.000 A 
ATOM      8  C   UNL     1       1.606   8.821  18.552  0.00  0.00    +0.000 A 
ATOM      9  C   UNL     1       1.929   7.875  19.531  0.00  0.00    +0.000 A 
ATOM     10  C   UNL     1       1.519   8.121  20.847  0.00  0.00    +0.000 A 
ATOM     11  C   UNL     1       0.763   9.272  21.154  0.00  0.00    +0.000 A 
BRANCH  11  12
ATOM     12  N   UNL     1       0.350   9.398  22.533  0.00  0.00    +0.000 N 
ATOM     13  O   UNL     1       1.230   9.652  23.368  0.00  0.00    +0.000 OA
ATOM     14  O   UNL     1      -0.841   9.183  22.785  0.00  0.00    +0.000 OA
ENDBRANCH  11  12
BRANCH   6  16
ATOM     15  C   UNL     1      -0.625  12.079  19.079  0.00  0.00    +0.000 C 
ATOM     16  O   UNL     1      -0.441  11.271  20.229  0.00  0.00    +0.000 OA
ENDBRANCH   6  16
ENDBRANCH   1   9
BRANCH   3  17
ATOM     17  C   UNL     1       5.173   5.161  17.205  0.00  0.00    +0.000 A 
ATOM     18  C   UNL     1       4.896   5.161  15.829  0.00  0.00    +0.000 A 
ATOM     19  C   UNL     1       5.898   4.836  14.910  0.00  0.00    +0.000 A 
ATOM     20  C   UNL     1       7.176   4.510  15.356  0.00  0.00    +0.000 A 
ATOM     21  C   UNL     1       7.461   4.512  16.720  0.00  0.00    +0.000 A 
ATOM     22  C   UNL     1       6.466   4.839  17.644  0.00  0.00    +0.000 A 
ENDBRANCH   3  17
BRANCH   5  23
ATOM     23  C   UNL     1       1.608   4.787  20.621  0.00  0.00    +0.000 C 
ATOM     24  O   UNL     1       0.655   4.071  20.332  0.00  0.00    +0.000 OA
ENDBRANCH   5  23
TORSDOF 5
ENDMDL
MODEL 6
REMARK VINA RESULT:      -7.4      2.963      7.929
REMARK  Name = 
REMARK  6 active torsions:
REMARK  status: ('A' for Active; 'I' for Inactive)
REMARK    1  A    between atoms: C_1  and  O_2
REMARK    2  A    between atoms: O_2  and  C_3
REMARK    3  A    between atoms: C_6  and  C_7
REMARK    4  A    between atoms: N_9  and  C_10
REMARK    5  A    between atoms: C_17  and  C_18
REMARK    6  A    between atoms: C_21  and  N_22
REMARK                            x       y       z     vdW  Elec       q    Type
REMARK                         _______ _______ _______ _____ _____    ______ ____
ROOT
ATOM      1  C   UNL     1       5.521   4.977  17.612  0.00  0.00    +0.000 A 
ATOM      2  N   UNL     1       5.310   4.715  16.313  0.00  0.00    +0.000 NA
ATOM      3  N   UNL     1       6.513   4.872  15.701  0.00  0.00    +0.000 N 
ATOM      4  C   UNL     1       7.464   5.300  16.595  0.00  0.00    +0.000 A 
ATOM      5  C   UNL     1       6.859   5.414  17.828  0.00  0.00    +0.000 A 
ENDROOT
BRANCH   1   9
ATOM      6  C   UNL     1       2.385   4.395  20.529  0.00  0.00    +0.000 A 
ATOM      7  C   UNL     1       3.207   3.340  20.116  0.00  0.00    +0.000 A 
ATOM      8  C   UNL     1       4.202   3.518  19.147  0.00  0.00    +0.000 A 
ATOM      9  C   UNL     1       4.442   4.779  18.589  0.00  0.00    +0.000 A 
ATOM     10  C   UNL     1       3.611   5.839  18.971  0.00  0.00    +0.000 A 
ATOM     11  C   UNL     1       2.592   5.637  19.926  0.00  0.00    +0.000 A 
BRANCH  11  12
ATOM     12  N   UNL     1       1.829   6.811  20.282  0.00  0.00    +0.000 N 
ATOM     13  O   UNL     1       2.082   7.859  19.673  0.00  0.00    +0.000 OA
ATOM     14  O   UNL     1       1.023   6.696  21.212  0.00  0.00    +0.000 OA
ENDBRANCH  11  12
BRANCH   6  16
ATOM     15  C   UNL     1       1.332   2.651  21.809  0.00  0.00    +0.000 C 
ATOM     16  O   UNL     1       1.565   4.026  21.554  0.00  0.00    +0.000 OA
ENDBRANCH   6  16
ENDBRANCH   1   9
BRANCH   3  17
ATOM     17  C   UNL     1       6.683   4.599  14.317  0.00  0.00    +0.000 A 
ATOM     18  C   UNL     1       7.646   5.308  13.584  0.00  0.00    +0.000 A 
ATOM     19  C   UNL     1       7.807   5.066  12.217  0.00  0.00    +0.000 A 
ATOM     20  C   UNL     1       7.012   4.119  11.576  0.00  0.00    +0.000 A 
ATOM     21  C   UNL     1       6.057   3.406  12.298  0.00  0.00    +0.000 A 
ATOM     22  C   UNL     1       5.893   3.641  13.666  0.00  0.00    +0.000 A 
ENDBRANCH   3  17
BRANCH   5  23
ATOM     23  C   UNL     1       7.511   5.884  19.027  0.00  0.00    +0.000 C 
ATOM     24  O   UNL     1       7.436   5.304  20.105  0.00  0.00    +0.000 OA
ENDBRANCH   5  23
TORSDOF 5
ENDMDL
MODEL 7
REMARK VINA RESULT:      -7.3      2.921      8.043
REMARK  Name = 
REMARK  6 active torsions:
REMARK  status: ('A' for Active; 'I' for Inactive)
REMARK    1  A    between atoms: C_1  and  O_2
REMARK    2  A    between atoms: O_2  and  C_3
REMARK    3  A    between atoms: C_6  and  C_7
REMARK    4  A    between atoms: N_9  and  C_10
REMARK    5  A    between atoms: C_17  and  C_18
REMARK    6  A    between atoms: C_21  and  N_22
REMARK                            x       y       z     vdW  Elec       q    Type
REMARK                         _______ _______ _______ _____ _____    ______ ____
ROOT
ATOM      1  C   UNL     1       5.193   6.066  17.310  0.00  0.00    +0.000 A 
ATOM      2  N   UNL     1       5.060   5.800  16.001  0.00  0.00    +0.000 NA
ATOM      3  N   UNL     1       6.230   5.226  15.617  0.00  0.00    +0.000 N 
ATOM      4  C   UNL     1       7.125   5.195  16.659  0.00  0.00    +0.000 A 
ATOM      5  C   UNL     1       6.509   5.758  17.756  0.00  0.00    +0.000 A 
ENDROOT
BRANCH   1   9
ATOM      6  C   UNL     1       1.871   7.611  19.605  0.00  0.00    +0.000 A 
ATOM      7  C   UNL     1       2.555   6.453  19.992  0.00  0.00    +0.000 A 
ATOM      8  C   UNL     1       3.610   5.932  19.234  0.00  0.00    +0.000 A 
ATOM      9  C   UNL     1       4.052   6.583  18.077  0.00  0.00    +0.000 A 
ATOM     10  C   UNL     1       3.361   7.728  17.660  0.00  0.00    +0.000 A 
ATOM     11  C   UNL     1       2.280   8.223  18.419  0.00  0.00    +0.000 A 
BRANCH  11  12
ATOM     12  N   UNL     1       1.675   9.438  17.923  0.00  0.00    +0.000 N 
ATOM     13  O   UNL     1       2.429  10.391  17.682  0.00  0.00    +0.000 OA
ATOM     14  O   UNL     1       0.442   9.455  17.834  0.00  0.00    +0.000 OA
ENDBRANCH  11  12
BRANCH   6  16
ATOM     15  C   UNL     1       1.387   8.736  21.675  0.00  0.00    +0.000 C 
ATOM     16  O   UNL     1       0.961   7.998  20.542  0.00  0.00    +0.000 OA
ENDBRANCH   6  16
ENDBRANCH   1   9
BRANCH   3  17
ATOM     17  C   UNL     1       6.419   4.740  14.296  0.00  0.00    +0.000 A 
ATOM     18  C   UNL     1       5.521   3.800  13.767  0.00  0.00    +0.000 A 
ATOM     19  C   UNL     1       5.710   3.296  12.477  0.00  0.00    +0.000 A 
ATOM     20  C   UNL     1       6.790   3.724  11.710  0.00  0.00    +0.000 A 
ATOM     21  C   UNL     1       7.683   4.661  12.225  0.00  0.00    +0.000 A 
ATOM     22  C   UNL     1       7.500   5.172  13.512  0.00  0.00    +0.000 A 
ENDBRANCH   3  17
BRANCH   5  23
ATOM     23  C   UNL     1       7.135   5.955  19.042  0.00  0.00    +0.000 C 
ATOM     24  O   UNL     1       7.680   5.055  19.671  0.00  0.00    +0.000 OA
ENDBRANCH   5  23
TORSDOF 5
ENDMDL
MODEL 8
REMARK VINA RESULT:      -7.2      3.430      7.625
REMARK  Name = 
REMARK  6 active torsions:
REMARK  status: ('A' for Active; 'I' for Inactive)
REMARK    1  A    between atoms: C_1  and  O_2
REMARK    2  A    between atoms: O_2  and  C_3
REMARK    3  A    between atoms: C_6  and  C_7
REMARK    4  A    between atoms: N_9  and  C_10
REMARK    5  A    between atoms: C_17  and  C_18
REMARK    6  A    between atoms: C_21  and  N_22
REMARK                            x       y       z     vdW  Elec       q    Type
REMARK                         _______ _______ _______ _____ _____    ______ ____
ROOT
ATOM      1  C   UNL     1       2.433   6.616  19.372  0.00  0.00    +0.000 A 
ATOM      2  N   UNL     1       3.375   6.733  18.423  0.00  0.00    +0.000 NA
ATOM      3  N   UNL     1       3.621   5.470  17.985  0.00  0.00    +0.000 N 
ATOM      4  C   UNL     1       2.892   4.553  18.702  0.00  0.00    +0.000 A 
ATOM      5  C   UNL     1       2.141   5.246  19.627  0.00  0.00    +0.000 A 
ENDROOT
BRANCH   1   9
ATOM      6  C   UNL     1       0.740  10.165  21.167  0.00  0.00    +0.000 A 
ATOM      7  C   UNL     1       1.027   9.025  21.926  0.00  0.00    +0.000 A 
ATOM      8  C   UNL     1       1.545   7.863  21.342  0.00  0.00    +0.000 A 
ATOM      9  C   UNL     1       1.841   7.817  19.975  0.00  0.00    +0.000 A 
ATOM     10  C   UNL     1       1.533   8.940  19.196  0.00  0.00    +0.000 A 
ATOM     11  C   UNL     1       0.983  10.093  19.794  0.00  0.00    +0.000 A 
BRANCH  11  12
ATOM     12  N   UNL     1       0.754  11.208  18.905  0.00  0.00    +0.000 N 
ATOM     13  O   UNL     1      -0.423  11.492  18.641  0.00  0.00    +0.000 OA
ATOM     14  O   UNL     1       1.751  11.757  18.424  0.00  0.00    +0.000 OA
ENDBRANCH  11  12
BRANCH   6  16
ATOM     15  C   UNL     1      -0.876  11.143  22.656  0.00  0.00    +0.000 C 
ATOM     16  O   UNL     1       0.352  11.210  21.951  0.00  0.00    +0.000 OA
ENDBRANCH   6  16
ENDBRANCH   1   9
BRANCH   3  17
ATOM     17  C   UNL     1       4.522   5.219  16.916  0.00  0.00    +0.000 A 
ATOM     18  C   UNL     1       4.911   3.901  16.633  0.00  0.00    +0.000 A 
ATOM     19  C   UNL     1       5.815   3.641  15.598  0.00  0.00    +0.000 A 
ATOM     20  C   UNL     1       6.334   4.691  14.844  0.00  0.00    +0.000 A 
ATOM     21  C   UNL     1       5.948   6.002  15.115  0.00  0.00    +0.000 A 
ATOM     22  C   UNL     1       5.043   6.268  16.145  0.00  0.00    +0.000 A 
ENDBRANCH   3  17
BRANCH   5  23
ATOM     23  C   UNL     1       1.273   4.638  20.606  0.00  0.00    +0.000 C 
ATOM     24  O   UNL     1       0.830   3.500  20.500  0.00  0.00    +0.000 OA
ENDBRANCH   5  23
TORSDOF 5
ENDMDL
MODEL 9
REMARK VINA RESULT:      -7.2      2.414      7.865
REMARK  Name = 
REMARK  6 active torsions:
REMARK  status: ('A' for Active; 'I' for Inactive)
REMARK    1  A    between atoms: C_1  and  O_2
REMARK    2  A    between atoms: O_2  and  C_3
REMARK    3  A    between atoms: C_6  and  C_7
REMARK    4  A    between atoms: N_9  and  C_10
REMARK    5  A    between atoms: C_17  and  C_18
REMARK    6  A    between atoms: C_21  and  N_22
REMARK                            x       y       z     vdW  Elec       q    Type
REMARK                         _______ _______ _______ _____ _____    ______ ____
ROOT
ATOM      1  C   UNL     1       5.490   5.102  17.460  0.00  0.00    +0.000 A 
ATOM      2  N   UNL     1       5.236   4.971  16.149  0.00  0.00    +0.000 NA
ATOM      3  N   UNL     1       6.431   4.694  15.564  0.00  0.00    +0.000 N 
ATOM      4  C   UNL     1       7.446   4.721  16.489  0.00  0.00    +0.000 A 
ATOM      5  C   UNL     1       6.888   5.014  17.714  0.00  0.00    +0.000 A 
ENDROOT
BRANCH   1   9
ATOM      6  C   UNL     1       2.204   5.640  20.216  0.00  0.00    +0.000 A 
ATOM      7  C   UNL     1       2.721   6.708  19.475  0.00  0.00    +0.000 A 
ATOM      8  C   UNL     1       3.806   6.544  18.605  0.00  0.00    +0.000 A 
ATOM      9  C   UNL     1       4.386   5.285  18.411  0.00  0.00    +0.000 A 
ATOM     10  C   UNL     1       3.898   4.211  19.166  0.00  0.00    +0.000 A 
ATOM     11  C   UNL     1       2.824   4.398  20.060  0.00  0.00    +0.000 A 
BRANCH  11  12
ATOM     12  N   UNL     1       2.370   3.212  20.747  0.00  0.00    +0.000 N 
ATOM     13  O   UNL     1       3.159   2.676  21.538  0.00  0.00    +0.000 OA
ATOM     14  O   UNL     1       1.249   2.784  20.449  0.00  0.00    +0.000 OA
ENDBRANCH  11  12
BRANCH   6  16
ATOM     15  C   UNL     1       0.864   7.361  21.230  0.00  0.00    +0.000 C 
ATOM     16  O   UNL     1       1.086   5.999  20.907  0.00  0.00    +0.000 OA
ENDBRANCH   6  16
ENDBRANCH   1   9
BRANCH   3  17
ATOM     17  C   UNL     1       6.530   4.415  14.174  0.00  0.00    +0.000 A 
ATOM     18  C   UNL     1       5.635   3.510  13.583  0.00  0.00    +0.000 A 
ATOM     19  C   UNL     1       5.736   3.209  12.222  0.00  0.00    +0.000 A 
ATOM     20  C   UNL     1       6.727   3.805  11.445  0.00  0.00    +0.000 A 
ATOM     21  C   UNL     1       7.616   4.709  12.024  0.00  0.00    +0.000 A 
ATOM     22  C   UNL     1       7.519   5.017  13.383  0.00  0.00    +0.000 A 
ENDBRANCH   3  17
BRANCH   5  23
ATOM     23  C   UNL     1       7.631   5.181  18.940  0.00  0.00    +0.000 C 
ATOM     24  O   UNL     1       7.103   5.424  20.020  0.00  0.00    +0.000 OA
ENDBRANCH   5  23
TORSDOF 5
ENDMDL
