MODEL 1
REMARK VINA RESULT:      -7.9      0.000      0.000
REMARK  Name = 
REMARK  3 active torsions:
REMARK  status: ('A' for Active; 'I' for Inactive)
REMARK    1  A    between atoms: C_1  and  C_2
REMARK    2  A    between atoms: C_7  and  C_8
REMARK    3  A    between atoms: C_14  and  C_15
REMARK                            x       y       z     vdW  Elec       q    Type
REMARK                         _______ _______ _______ _____ _____    ______ ____
ROOT
ATOM      1  C   UNL     1       4.576   4.060  17.685  0.00  0.00    +0.000 A 
ATOM      2  C   UNL     1       4.525   2.813  18.329  0.00  0.00    +0.000 A 
ATOM      3  C   UNL     1       3.665   2.537  19.407  0.00  0.00    +0.000 A 
ATOM      4  C   UNL     1       2.900   3.594  19.899  0.00  0.00    +0.000 A 
ATOM      5  N   UNL     1       2.025   3.680  20.946  0.00  0.00    +0.000 N 
ATOM      6  N   UNL     1       1.544   4.918  21.165  0.00  0.00    +0.000 NA
ATOM      7  C   UNL     1       2.081   5.643  20.173  0.00  0.00    +0.000 A 
ATOM      8  C   UNL     1       2.933   4.862  19.344  0.00  0.00    +0.000 A 
ATOM      9  C   UNL     1       3.755   5.078  18.215  0.00  0.00    +0.000 A 
ATOM     10  H   UNL     1       1.738   2.935  21.571  0.00  0.00    +0.000 HD
ENDROOT
BRANCH   7  11
ATOM     11  C   UNL     1       1.801   7.099  20.075  0.00  0.00    +0.000 A 
ATOM     12  C   UNL     1       1.269   7.943  21.023  0.00  0.00    +0.000 A 
ATOM     13  C   UNL     1       1.141   9.231  20.439  0.00  0.00    +0.000 A 
ATOM     14  C   UNL     1       0.661  10.458  20.910  0.00  0.00    +0.000 A 
ATOM     15  C   UNL     1       0.686  11.508  20.010  0.00  0.00    +0.000 A 
ATOM     16  N   UNL     1       1.132  11.419  18.737  0.00  0.00    +0.000 NA
ATOM     17  C   UNL     1       1.602  10.234  18.280  0.00  0.00    +0.000 A 
ATOM     18  C   UNL     1       1.612   9.141  19.133  0.00  0.00    +0.000 A 
ATOM     19  N   UNL     1       2.036   7.845  18.944  0.00  0.00    +0.000 N 
ATOM     20  H   UNL     1       2.429   7.461  18.095  0.00  0.00    +0.000 HD
ENDBRANCH   7  11
BRANCH   1  27
ATOM     21  C   UNL     1       7.551   4.956  17.888  0.00  0.00    +0.000 C 
ATOM     22  C   UNL     1       6.810   4.749  16.594  0.00  0.00    +0.000 A 
ATOM     23  C   UNL     1       7.534   4.972  15.406  0.00  0.00    +0.000 A 
ATOM     24  C   UNL     1       6.926   4.760  14.182  0.00  0.00    +0.000 A 
ATOM     25  N   UNL     1       5.650   4.369  14.054  0.00  0.00    +0.000 NA
ATOM     26  C   UNL     1       4.959   4.190  15.209  0.00  0.00    +0.000 A 
ATOM     27  C   UNL     1       5.457   4.351  16.516  0.00  0.00    +0.000 A 
ENDBRANCH   1  27
TORSDOF 2
ENDMDL
MODEL 2
REMARK VINA RESULT:      -7.8      1.537      7.023
REMARK  Name = 
REMARK  3 active torsions:
REMARK  status: ('A' for Active; 'I' for Inactive)
REMARK    1  A    between atoms: C_1  and  C_2
REMARK    2  A    between atoms: C_7  and  C_8
REMARK    3  A    between atoms: C_14  and  C_15
REMARK                            x       y       z     vdW  Elec       q    Type
REMARK                         _______ _______ _______ _____ _____    ______ ____
ROOT
ATOM      1  C   UNL     1       2.052   6.470  20.142  0.00  0.00    +0.000 A 
ATOM      2  C   UNL     1       1.505   5.583  21.084  0.00  0.00    +0.000 A 
ATOM      3  C   UNL     1       1.884   4.234  21.182  0.00  0.00    +0.000 A 
ATOM      4  C   UNL     1       2.783   3.753  20.231  0.00  0.00    +0.000 A 
ATOM      5  N   UNL     1       3.305   2.508  20.011  0.00  0.00    +0.000 N 
ATOM      6  N   UNL     1       4.085   2.420  18.918  0.00  0.00    +0.000 NA
ATOM      7  C   UNL     1       4.120   3.677  18.456  0.00  0.00    +0.000 A 
ATOM      8  C   UNL     1       3.329   4.557  19.245  0.00  0.00    +0.000 A 
ATOM      9  C   UNL     1       2.978   5.926  19.227  0.00  0.00    +0.000 A 
ATOM     10  H   UNL     1       3.141   1.667  20.554  0.00  0.00    +0.000 HD
ENDROOT
BRANCH   7  11
ATOM     11  C   UNL     1       4.881   3.999  17.220  0.00  0.00    +0.000 A 
ATOM     12  C   UNL     1       4.688   3.532  15.940  0.00  0.00    +0.000 A 
ATOM     13  C   UNL     1       5.704   4.084  15.115  0.00  0.00    +0.000 A 
ATOM     14  C   UNL     1       6.014   3.960  13.757  0.00  0.00    +0.000 A 
ATOM     15  C   UNL     1       7.121   4.663  13.318  0.00  0.00    +0.000 A 
ATOM     16  N   UNL     1       7.899   5.440  14.104  0.00  0.00    +0.000 NA
ATOM     17  C   UNL     1       7.598   5.568  15.418  0.00  0.00    +0.000 A 
ATOM     18  C   UNL     1       6.496   4.893  15.923  0.00  0.00    +0.000 A 
ATOM     19  N   UNL     1       5.959   4.851  17.190  0.00  0.00    +0.000 N 
ATOM     20  H   UNL     1       6.311   5.333  18.007  0.00  0.00    +0.000 HD
ENDBRANCH   7  11
BRANCH   1  27
ATOM     21  C   UNL     1       2.255   8.200  17.561  0.00  0.00    +0.000 C 
ATOM     22  C   UNL     1       1.763   8.708  18.890  0.00  0.00    +0.000 A 
ATOM     23  C   UNL     1       1.363  10.057  18.944  0.00  0.00    +0.000 A 
ATOM     24  C   UNL     1       0.862  10.577  20.123  0.00  0.00    +0.000 A 
ATOM     25  N   UNL     1       0.753   9.863  21.253  0.00  0.00    +0.000 NA
ATOM     26  C   UNL     1       1.173   8.573  21.189  0.00  0.00    +0.000 A 
ATOM     27  C   UNL     1       1.684   7.914  20.056  0.00  0.00    +0.000 A 
ENDBRANCH   1  27
TORSDOF 2
ENDMDL
MODEL 3
REMARK VINA RESULT:      -7.8      1.425      7.078
REMARK  Name = 
REMARK  3 active torsions:
REMARK  status: ('A' for Active; 'I' for Inactive)
REMARK    1  A    between atoms: C_1  and  C_2
REMARK    2  A    between atoms: C_7  and  C_8
REMARK    3  A    between atoms: C_14  and  C_15
REMARK                            x       y       z     vdW  Elec       q    Type
REMARK                         _______ _______ _______ _____ _____    ______ ____
ROOT
ATOM      1  C   UNL     1       2.116   6.846  19.798  0.00  0.00    +0.000 A 
ATOM      2  C   UNL     1       1.623   6.048  20.844  0.00  0.00    +0.000 A 
ATOM      3  C   UNL     1       2.058   4.732  21.078  0.00  0.00    +0.000 A 
ATOM      4  C   UNL     1       2.956   4.184  20.164  0.00  0.00    +0.000 A 
ATOM      5  N   UNL     1       3.523   2.943  20.068  0.00  0.00    +0.000 N 
ATOM      6  N   UNL     1       4.285   2.765  18.973  0.00  0.00    +0.000 NA
ATOM      7  C   UNL     1       4.260   3.965  18.376  0.00  0.00    +0.000 A 
ATOM      8  C   UNL     1       3.450   4.895  19.084  0.00  0.00    +0.000 A 
ATOM      9  C   UNL     1       3.045   6.240  18.926  0.00  0.00    +0.000 A 
ATOM     10  H   UNL     1       3.403   2.162  20.703  0.00  0.00    +0.000 HD
ENDROOT
BRANCH   7  11
ATOM     11  C   UNL     1       4.983   4.178  17.095  0.00  0.00    +0.000 A 
ATOM     12  C   UNL     1       4.730   3.631  15.858  0.00  0.00    +0.000 A 
ATOM     13  C   UNL     1       5.729   4.095  14.962  0.00  0.00    +0.000 A 
ATOM     14  C   UNL     1       5.985   3.869  13.605  0.00  0.00    +0.000 A 
ATOM     15  C   UNL     1       7.095   4.505  13.080  0.00  0.00    +0.000 A 
ATOM     16  N   UNL     1       7.923   5.309  13.783  0.00  0.00    +0.000 NA
ATOM     17  C   UNL     1       7.676   5.534  15.094  0.00  0.00    +0.000 A 
ATOM     18  C   UNL     1       6.574   4.931  15.683  0.00  0.00    +0.000 A 
ATOM     19  N   UNL     1       6.084   4.992  16.968  0.00  0.00    +0.000 N 
ATOM     20  H   UNL     1       6.481   5.517  17.737  0.00  0.00    +0.000 HD
ENDBRANCH   7  11
BRANCH   1  27
ATOM     21  C   UNL     1       0.875   8.704  21.966  0.00  0.00    +0.000 C 
ATOM     22  C   UNL     1       1.133   9.113  20.541  0.00  0.00    +0.000 A 
ATOM     23  C   UNL     1       0.791  10.434  20.189  0.00  0.00    +0.000 A 
ATOM     24  C   UNL     1       1.040  10.887  18.906  0.00  0.00    +0.000 A 
ATOM     25  N   UNL     1       1.578  10.120  17.947  0.00  0.00    +0.000 NA
ATOM     26  C   UNL     1       1.871   8.841  18.297  0.00  0.00    +0.000 A 
ATOM     27  C   UNL     1       1.689   8.258  19.564  0.00  0.00    +0.000 A 
ENDBRANCH   1  27
TORSDOF 2
ENDMDL
MODEL 4
REMARK VINA RESULT:      -7.8      0.681      1.168
REMARK  Name = 
REMARK  3 active torsions:
REMARK  status: ('A' for Active; 'I' for Inactive)
REMARK    1  A    between atoms: C_1  and  C_2
REMARK    2  A    between atoms: C_7  and  C_8
REMARK    3  A    between atoms: C_14  and  C_15
REMARK                            x       y       z     vdW  Elec       q    Type
REMARK                         _______ _______ _______ _____ _____    ______ ____
ROOT
ATOM      1  C   UNL     1       4.664   4.117  17.711  0.00  0.00    +0.000 A 
ATOM      2  C   UNL     1       4.671   2.907  18.425  0.00  0.00    +0.000 A 
ATOM      3  C   UNL     1       3.843   2.664  19.535  0.00  0.00    +0.000 A 
ATOM      4  C   UNL     1       3.052   3.720  19.984  0.00  0.00    +0.000 A 
ATOM      5  N   UNL     1       2.196   3.836  21.044  0.00  0.00    +0.000 N 
ATOM      6  N   UNL     1       1.675   5.066  21.204  0.00  0.00    +0.000 NA
ATOM      7  C   UNL     1       2.166   5.752  20.162  0.00  0.00    +0.000 A 
ATOM      8  C   UNL     1       3.028   4.955  19.359  0.00  0.00    +0.000 A 
ATOM      9  C   UNL     1       3.819   5.135  18.201  0.00  0.00    +0.000 A 
ATOM     10  H   UNL     1       1.948   3.118  21.716  0.00  0.00    +0.000 HD
ENDROOT
BRANCH   7  11
ATOM     11  C   UNL     1       1.833   7.190  19.988  0.00  0.00    +0.000 A 
ATOM     12  C   UNL     1       1.921   7.967  18.857  0.00  0.00    +0.000 A 
ATOM     13  C   UNL     1       1.545   9.291  19.205  0.00  0.00    +0.000 A 
ATOM     14  C   UNL     1       1.456  10.488  18.485  0.00  0.00    +0.000 A 
ATOM     15  C   UNL     1       1.054  11.601  19.201  0.00  0.00    +0.000 A 
ATOM     16  N   UNL     1       0.754  11.600  20.518  0.00  0.00    +0.000 NA
ATOM     17  C   UNL     1       0.833  10.443  21.216  0.00  0.00    +0.000 A 
ATOM     18  C   UNL     1       1.224   9.287  20.558  0.00  0.00    +0.000 A 
ATOM     19  N   UNL     1       1.376   7.993  21.006  0.00  0.00    +0.000 N 
ATOM     20  H   UNL     1       1.221   7.664  21.950  0.00  0.00    +0.000 HD
ENDBRANCH   7  11
BRANCH   1  27
ATOM     21  C   UNL     1       7.583   5.200  17.793  0.00  0.00    +0.000 C 
ATOM     22  C   UNL     1       6.838   4.853  16.532  0.00  0.00    +0.000 A 
ATOM     23  C   UNL     1       7.532   5.029  15.318  0.00  0.00    +0.000 A 
ATOM     24  C   UNL     1       6.921   4.691  14.125  0.00  0.00    +0.000 A 
ATOM     25  N   UNL     1       5.669   4.217  14.048  0.00  0.00    +0.000 NA
ATOM     26  C   UNL     1       5.006   4.084  15.226  0.00  0.00    +0.000 A 
ATOM     27  C   UNL     1       5.511   4.371  16.507  0.00  0.00    +0.000 A 
ENDBRANCH   1  27
TORSDOF 2
ENDMDL
MODEL 5
REMARK VINA RESULT:      -7.5      1.365      7.080
REMARK  Name = 
REMARK  3 active torsions:
REMARK  status: ('A' for Active; 'I' for Inactive)
REMARK    1  A    between atoms: C_1  and  C_2
REMARK    2  A    between atoms: C_7  and  C_8
REMARK    3  A    between atoms: C_14  and  C_15
REMARK                            x       y       z     vdW  Elec       q    Type
REMARK                         _______ _______ _______ _____ _____    ______ ____
ROOT
ATOM      1  C   UNL     1       2.278   6.821  19.572  0.00  0.00    +0.000 A 
ATOM      2  C   UNL     1       1.767   6.043  20.625  0.00  0.00    +0.000 A 
ATOM      3  C   UNL     1       2.212   4.740  20.905  0.00  0.00    +0.000 A 
ATOM      4  C   UNL     1       3.141   4.181  20.030  0.00  0.00    +0.000 A 
ATOM      5  N   UNL     1       3.726   2.945  19.981  0.00  0.00    +0.000 N 
ATOM      6  N   UNL     1       4.519   2.749  18.912  0.00  0.00    +0.000 NA
ATOM      7  C   UNL     1       4.496   3.933  18.284  0.00  0.00    +0.000 A 
ATOM      8  C   UNL     1       3.655   4.870  18.945  0.00  0.00    +0.000 A 
ATOM      9  C   UNL     1       3.238   6.205  18.741  0.00  0.00    +0.000 A 
ATOM     10  H   UNL     1       3.599   2.179  20.633  0.00  0.00    +0.000 HD
ENDROOT
BRANCH   7  11
ATOM     11  C   UNL     1       5.250   4.122  17.017  0.00  0.00    +0.000 A 
ATOM     12  C   UNL     1       6.355   4.906  16.779  0.00  0.00    +0.000 A 
ATOM     13  C   UNL     1       6.677   4.800  15.399  0.00  0.00    +0.000 A 
ATOM     14  C   UNL     1       7.672   5.370  14.597  0.00  0.00    +0.000 A 
ATOM     15  C   UNL     1       7.646   5.024  13.258  0.00  0.00    +0.000 A 
ATOM     16  N   UNL     1       6.741   4.193  12.696  0.00  0.00    +0.000 NA
ATOM     17  C   UNL     1       5.781   3.635  13.471  0.00  0.00    +0.000 A 
ATOM     18  C   UNL     1       5.752   3.935  14.825  0.00  0.00    +0.000 A 
ATOM     19  N   UNL     1       4.914   3.511  15.832  0.00  0.00    +0.000 N 
ATOM     20  H   UNL     1       4.133   2.877  15.734  0.00  0.00    +0.000 HD
ENDBRANCH   7  11
BRANCH   1  27
ATOM     21  C   UNL     1       0.788   8.654  21.601  0.00  0.00    +0.000 C 
ATOM     22  C   UNL     1       1.171   9.064  20.204  0.00  0.00    +0.000 A 
ATOM     23  C   UNL     1       0.831  10.374  19.814  0.00  0.00    +0.000 A 
ATOM     24  C   UNL     1       1.190  10.830  18.558  0.00  0.00    +0.000 A 
ATOM     25  N   UNL     1       1.837  10.074  17.660  0.00  0.00    +0.000 NA
ATOM     26  C   UNL     1       2.128   8.804  18.043  0.00  0.00    +0.000 A 
ATOM     27  C   UNL     1       1.840   8.220  19.291  0.00  0.00    +0.000 A 
ENDBRANCH   1  27
TORSDOF 2
ENDMDL
MODEL 6
REMARK VINA RESULT:      -7.5      3.252      8.470
REMARK  Name = 
REMARK  3 active torsions:
REMARK  status: ('A' for Active; 'I' for Inactive)
REMARK    1  A    between atoms: C_1  and  C_2
REMARK    2  A    between atoms: C_7  and  C_8
REMARK    3  A    between atoms: C_14  and  C_15
REMARK                            x       y       z     vdW  Elec       q    Type
REMARK                         _______ _______ _______ _____ _____    ______ ____
ROOT
ATOM      1  C   UNL     1      -1.754  10.831  18.970  0.00  0.00    +0.000 A 
ATOM      2  C   UNL     1      -1.977  11.727  20.030  0.00  0.00    +0.000 A 
ATOM      3  C   UNL     1      -1.183  11.762  21.189  0.00  0.00    +0.000 A 
ATOM      4  C   UNL     1      -0.188  10.793  21.309  0.00  0.00    +0.000 A 
ATOM      5  N   UNL     1       0.704  10.516  22.308  0.00  0.00    +0.000 N 
ATOM      6  N   UNL     1       1.460   9.425  22.089  0.00  0.00    +0.000 NA
ATOM      7  C   UNL     1       1.084   9.024  20.866  0.00  0.00    +0.000 A 
ATOM      8  C   UNL     1       0.060   9.850  20.327  0.00  0.00    +0.000 A 
ATOM      9  C   UNL     1      -0.712   9.897  19.144  0.00  0.00    +0.000 A 
ATOM     10  H   UNL     1       0.825  11.017  23.181  0.00  0.00    +0.000 HD
ENDROOT
BRANCH   7  11
ATOM     11  C   UNL     1       1.688   7.809  20.259  0.00  0.00    +0.000 A 
ATOM     12  C   UNL     1       2.209   7.642  18.996  0.00  0.00    +0.000 A 
ATOM     13  C   UNL     1       2.615   6.287  18.866  0.00  0.00    +0.000 A 
ATOM     14  C   UNL     1       3.189   5.550  17.825  0.00  0.00    +0.000 A 
ATOM     15  C   UNL     1       3.430   4.213  18.086  0.00  0.00    +0.000 A 
ATOM     16  N   UNL     1       3.148   3.595  19.254  0.00  0.00    +0.000 NA
ATOM     17  C   UNL     1       2.598   4.307  20.266  0.00  0.00    +0.000 A 
ATOM     18  C   UNL     1       2.335   5.655  20.073  0.00  0.00    +0.000 A 
ATOM     19  N   UNL     1       1.802   6.606  20.915  0.00  0.00    +0.000 N 
ATOM     20  H   UNL     1       1.493   6.459  21.866  0.00  0.00    +0.000 HD
ENDBRANCH   7  11
BRANCH   1  27
ATOM     21  C   UNL     1      -4.677  11.879  18.742  0.00  0.00    +0.000 C 
ATOM     22  C   UNL     1      -3.891  11.293  17.600  0.00  0.00    +0.000 A 
ATOM     23  C   UNL     1      -4.538  11.233  16.350  0.00  0.00    +0.000 A 
ATOM     24  C   UNL     1      -3.859  10.744  15.249  0.00  0.00    +0.000 A 
ATOM     25  N   UNL     1      -2.598  10.289  15.306  0.00  0.00    +0.000 NA
ATOM     26  C   UNL     1      -2.003  10.326  16.525  0.00  0.00    +0.000 A 
ATOM     27  C   UNL     1      -2.568  10.813  17.718  0.00  0.00    +0.000 A 
ENDBRANCH   1  27
TORSDOF 2
ENDMDL
MODEL 7
REMARK VINA RESULT:      -7.3      7.952     12.209
REMARK  Name = 
REMARK  3 active torsions:
REMARK  status: ('A' for Active; 'I' for Inactive)
REMARK    1  A    between atoms: C_1  and  C_2
REMARK    2  A    between atoms: C_7  and  C_8
REMARK    3  A    between atoms: C_14  and  C_15
REMARK                            x       y       z     vdW  Elec       q    Type
REMARK                         _______ _______ _______ _____ _____    ______ ____
ROOT
ATOM      1  C   UNL     1      -6.509  12.528  20.368  0.00  0.00    +0.000 A 
ATOM      2  C   UNL     1      -7.441  12.215  19.365  0.00  0.00    +0.000 A 
ATOM      3  C   UNL     1      -7.077  11.694  18.111  0.00  0.00    +0.000 A 
ATOM      4  C   UNL     1      -5.714  11.574  17.842  0.00  0.00    +0.000 A 
ATOM      5  N   UNL     1      -5.033  11.166  16.728  0.00  0.00    +0.000 N 
ATOM      6  N   UNL     1      -3.696  11.277  16.825  0.00  0.00    +0.000 NA
ATOM      7  C   UNL     1      -3.507  11.712  18.079  0.00  0.00    +0.000 A 
ATOM      8  C   UNL     1      -4.738  11.907  18.765  0.00  0.00    +0.000 A 
ATOM      9  C   UNL     1      -5.148  12.357  20.041  0.00  0.00    +0.000 A 
ATOM     10  H   UNL     1      -5.426  10.829  15.856  0.00  0.00    +0.000 HD
ENDROOT
BRANCH   7  11
ATOM     11  C   UNL     1      -2.134  11.983  18.578  0.00  0.00    +0.000 A 
ATOM     12  C   UNL     1      -1.488  11.445  19.668  0.00  0.00    +0.000 A 
ATOM     13  C   UNL     1      -0.212  12.060  19.767  0.00  0.00    +0.000 A 
ATOM     14  C   UNL     1       0.854  11.925  20.663  0.00  0.00    +0.000 A 
ATOM     15  C   UNL     1       1.952  12.732  20.429  0.00  0.00    +0.000 A 
ATOM     16  N   UNL     1       2.052  13.619  19.415  0.00  0.00    +0.000 NA
ATOM     17  C   UNL     1       1.024  13.748  18.542  0.00  0.00    +0.000 A 
ATOM     18  C   UNL     1      -0.106  12.964  18.716  0.00  0.00    +0.000 A 
ATOM     19  N   UNL     1      -1.272  12.878  17.989  0.00  0.00    +0.000 N 
ATOM     20  H   UNL     1      -1.504  13.413  17.162  0.00  0.00    +0.000 HD
ENDBRANCH   7  11
BRANCH   1  27
ATOM     21  C   UNL     1      -6.168  15.482  21.294  0.00  0.00    +0.000 C 
ATOM     22  C   UNL     1      -6.748  14.384  22.145  0.00  0.00    +0.000 A 
ATOM     23  C   UNL     1      -7.168  14.743  23.441  0.00  0.00    +0.000 A 
ATOM     24  C   UNL     1      -7.747  13.792  24.261  0.00  0.00    +0.000 A 
ATOM     25  N   UNL     1      -7.917  12.512  23.897  0.00  0.00    +0.000 NA
ATOM     26  C   UNL     1      -7.477  12.179  22.656  0.00  0.00    +0.000 A 
ATOM     27  C   UNL     1      -6.889  13.046  21.716  0.00  0.00    +0.000 A 
ENDBRANCH   1  27
TORSDOF 2
ENDMDL
MODEL 8
REMARK VINA RESULT:      -7.3      3.041      5.534
REMARK  Name = 
REMARK  3 active torsions:
REMARK  status: ('A' for Active; 'I' for Inactive)
REMARK    1  A    between atoms: C_1  and  C_2
REMARK    2  A    between atoms: C_7  and  C_8
REMARK    3  A    between atoms: C_14  and  C_15
REMARK                            x       y       z     vdW  Elec       q    Type
REMARK                         _______ _______ _______ _____ _____    ______ ____
ROOT
ATOM      1  C   UNL     1       2.267   6.210  19.213  0.00  0.00    +0.000 A 
ATOM      2  C   UNL     1       3.041   6.302  18.044  0.00  0.00    +0.000 A 
ATOM      3  C   UNL     1       3.302   7.517  17.388  0.00  0.00    +0.000 A 
ATOM      4  C   UNL     1       2.679   8.660  17.889  0.00  0.00    +0.000 A 
ATOM      5  N   UNL     1       2.674   9.960  17.466  0.00  0.00    +0.000 N 
ATOM      6  N   UNL     1       1.865  10.770  18.174  0.00  0.00    +0.000 NA
ATOM      7  C   UNL     1       1.382   9.969  19.134  0.00  0.00    +0.000 A 
ATOM      8  C   UNL     1       1.866   8.637  19.009  0.00  0.00    +0.000 A 
ATOM      9  C   UNL     1       1.689   7.408  19.684  0.00  0.00    +0.000 A 
ATOM     10  H   UNL     1       3.179  10.353  16.679  0.00  0.00    +0.000 HD
ENDROOT
BRANCH   7  11
ATOM     11  C   UNL     1       0.414  10.496  20.131  0.00  0.00    +0.000 A 
ATOM     12  C   UNL     1       0.309  10.203  21.471  0.00  0.00    +0.000 A 
ATOM     13  C   UNL     1      -0.808  10.913  21.987  0.00  0.00    +0.000 A 
ATOM     14  C   UNL     1      -1.394  10.995  23.255  0.00  0.00    +0.000 A 
ATOM     15  C   UNL     1      -2.511  11.804  23.358  0.00  0.00    +0.000 A 
ATOM     16  N   UNL     1      -3.053  12.500  22.334  0.00  0.00    +0.000 NA
ATOM     17  C   UNL     1      -2.484  12.428  21.108  0.00  0.00    +0.000 A 
ATOM     18  C   UNL     1      -1.358  11.638  20.935  0.00  0.00    +0.000 A 
ATOM     19  N   UNL     1      -0.580  11.394  19.825  0.00  0.00    +0.000 N 
ATOM     20  H   UNL     1      -0.723  11.773  18.898  0.00  0.00    +0.000 HD
ENDBRANCH   7  11
BRANCH   1  27
ATOM     21  C   UNL     1       1.049   3.651  17.923  0.00  0.00    +0.000 C 
ATOM     22  C   UNL     1       1.473   3.759  19.364  0.00  0.00    +0.000 A 
ATOM     23  C   UNL     1       1.308   2.609  20.161  0.00  0.00    +0.000 A 
ATOM     24  C   UNL     1       1.715   2.628  21.482  0.00  0.00    +0.000 A 
ATOM     25  N   UNL     1       2.249   3.707  22.072  0.00  0.00    +0.000 NA
ATOM     26  C   UNL     1       2.371   4.815  21.296  0.00  0.00    +0.000 A 
ATOM     27  C   UNL     1       2.017   4.929  19.939  0.00  0.00    +0.000 A 
ENDBRANCH   1  27
TORSDOF 2
ENDMDL
MODEL 9
REMARK VINA RESULT:      -7.3      1.433      6.998
REMARK  Name = 
REMARK  3 active torsions:
REMARK  status: ('A' for Active; 'I' for Inactive)
REMARK    1  A    between atoms: C_1  and  C_2
REMARK    2  A    between atoms: C_7  and  C_8
REMARK    3  A    between atoms: C_14  and  C_15
REMARK                            x       y       z     vdW  Elec       q    Type
REMARK                         _______ _______ _______ _____ _____    ______ ____
ROOT
ATOM      1  C   UNL     1       2.160   6.465  20.076  0.00  0.00    +0.000 A 
ATOM      2  C   UNL     1       1.610   5.610  21.046  0.00  0.00    +0.000 A 
ATOM      3  C   UNL     1       2.028   4.280  21.226  0.00  0.00    +0.000 A 
ATOM      4  C   UNL     1       2.971   3.781  20.329  0.00  0.00    +0.000 A 
ATOM      5  N   UNL     1       3.539   2.545  20.190  0.00  0.00    +0.000 N 
ATOM      6  N   UNL     1       4.356   2.427  19.128  0.00  0.00    +0.000 NA
ATOM      7  C   UNL     1       4.367   3.659  18.602  0.00  0.00    +0.000 A 
ATOM      8  C   UNL     1       3.523   4.551  19.320  0.00  0.00    +0.000 A 
ATOM      9  C   UNL     1       3.131   5.905  19.219  0.00  0.00    +0.000 A 
ATOM     10  H   UNL     1       3.384   1.728  20.771  0.00  0.00    +0.000 HD
ENDROOT
BRANCH   7  11
ATOM     11  C   UNL     1       5.157   3.942  17.375  0.00  0.00    +0.000 A 
ATOM     12  C   UNL     1       6.234   4.783  17.215  0.00  0.00    +0.000 A 
ATOM     13  C   UNL     1       6.609   4.758  15.846  0.00  0.00    +0.000 A 
ATOM     14  C   UNL     1       7.605   5.408  15.109  0.00  0.00    +0.000 A 
ATOM     15  C   UNL     1       7.642   5.127  13.755  0.00  0.00    +0.000 A 
ATOM     16  N   UNL     1       6.795   4.286  13.122  0.00  0.00    +0.000 NA
ATOM     17  C   UNL     1       5.835   3.650  13.833  0.00  0.00    +0.000 A 
ATOM     18  C   UNL     1       5.744   3.883  15.197  0.00  0.00    +0.000 A 
ATOM     19  N   UNL     1       4.891   3.375  16.151  0.00  0.00    +0.000 N 
ATOM     20  H   UNL     1       4.143   2.713  15.994  0.00  0.00    +0.000 HD
ENDBRANCH   7  11
BRANCH   1  27
ATOM     21  C   UNL     1       2.498   8.101  17.448  0.00  0.00    +0.000 C 
ATOM     22  C   UNL     1       1.889   8.640  18.715  0.00  0.00    +0.000 A 
ATOM     23  C   UNL     1       1.439   9.975  18.683  0.00  0.00    +0.000 A 
ATOM     24  C   UNL     1       0.833  10.521  19.800  0.00  0.00    +0.000 A 
ATOM     25  N   UNL     1       0.664   9.847  20.947  0.00  0.00    +0.000 NA
ATOM     26  C   UNL     1       1.132   8.573  20.968  0.00  0.00    +0.000 A 
ATOM     27  C   UNL     1       1.749   7.890  19.903  0.00  0.00    +0.000 A 
ENDBRANCH   1  27
TORSDOF 2
ENDMDL
