MODEL 1
REMARK VINA RESULT:      -7.4      0.000      0.000
REMARK  Name = 
REMARK  5 active torsions:
REMARK  status: ('A' for Active; 'I' for Inactive)
REMARK    1  A    between atoms: C_1  and  C_2
REMARK    2  A    between atoms: C_5  and  N_6
REMARK    3  A    between atoms: C_7  and  C_9
REMARK    4  A    between atoms: C_9  and  C_10
REMARK    5  A    between atoms: C_13  and  N_14
REMARK                            x       y       z     vdW  Elec       q    Type
REMARK                         _______ _______ _______ _____ _____    ______ ____
ROOT
ATOM      1  N   UNL     1       2.643   6.375  20.267  0.00  0.00    +0.000 N 
ATOM      2  C   UNL     1       2.186   5.067  20.261  0.00  0.00    +0.000 C 
ATOM      3  O   UNL     1       1.007   4.715  20.303  0.00  0.00    +0.000 OA
ATOM      4  H   UNL     1       3.639   6.531  20.384  0.00  0.00    +0.000 HD
ENDROOT
BRANCH   1   9
ATOM      5  C   UNL     1      -0.483  11.203  20.261  0.00  0.00    +0.000 C 
ATOM      6  C   UNL     1       0.308   9.928  20.247  0.00  0.00    +0.000 A 
ATOM      7  C   UNL     1       0.281   9.073  21.349  0.00  0.00    +0.000 A 
ATOM      8  C   UNL     1       1.037   7.898  21.356  0.00  0.00    +0.000 A 
ATOM      9  C   UNL     1       1.844   7.547  20.269  0.00  0.00    +0.000 A 
ATOM     10  C   UNL     1       1.840   8.395  19.147  0.00  0.00    +0.000 A 
ATOM     11 BR   UNL     1       2.879   7.999  17.602  0.00  0.00    +0.000 Br
ATOM     12  C   UNL     1       1.085   9.578  19.137  0.00  0.00    +0.000 A 
ENDBRANCH   1   9
BRANCH   2  13
ATOM     13  C   UNL     1       3.287   4.023  20.210  0.00  0.00    +0.000 C 
BRANCH  13  14
ATOM     14  C   UNL     1       4.206   4.175  19.019  0.00  0.00    +0.000 A 
ATOM     15  C   UNL     1       3.748   3.858  17.732  0.00  0.00    +0.000 A 
ATOM     16  C   UNL     1       4.571   4.053  16.618  0.00  0.00    +0.000 A 
ATOM     17  C   UNL     1       5.858   4.575  16.788  0.00  0.00    +0.000 A 
ATOM     18  C   UNL     1       6.333   4.892  18.065  0.00  0.00    +0.000 A 
ATOM     19  C   UNL     1       5.504   4.694  19.174  0.00  0.00    +0.000 A 
BRANCH  17  20
ATOM     20  N   UNL     1       6.709   4.805  15.613  0.00  0.00    +0.000 N 
ATOM     21  O   UNL     1       7.490   5.767  15.645  0.00  0.00    +0.000 OA
ATOM     22  O   UNL     1       6.605   4.016  14.662  0.00  0.00    +0.000 OA
ENDBRANCH  17  20
ENDBRANCH  13  14
ENDBRANCH   2  13
TORSDOF 4
ENDMDL
MODEL 2
REMARK VINA RESULT:      -7.4      0.264      1.283
REMARK  Name = 
REMARK  5 active torsions:
REMARK  status: ('A' for Active; 'I' for Inactive)
REMARK    1  A    between atoms: C_1  and  C_2
REMARK    2  A    between atoms: C_5  and  N_6
REMARK    3  A    between atoms: C_7  and  C_9
REMARK    4  A    between atoms: C_9  and  C_10
REMARK    5  A    between atoms: C_13  and  N_14
REMARK                            x       y       z     vdW  Elec       q    Type
REMARK                         _______ _______ _______ _____ _____    ______ ____
ROOT
ATOM      1  N   UNL     1       2.567   6.625  20.392  0.00  0.00    +0.000 N 
ATOM      2  C   UNL     1       2.170   5.299  20.320  0.00  0.00    +0.000 C 
ATOM      3  O   UNL     1       1.009   4.894  20.311  0.00  0.00    +0.000 OA
ATOM      4  H   UNL     1       3.550   6.821  20.547  0.00  0.00    +0.000 HD
ENDROOT
BRANCH   1   9
ATOM      5  C   UNL     1      -0.779  11.303  20.464  0.00  0.00    +0.000 C 
ATOM      6  C   UNL     1       0.070  10.066  20.431  0.00  0.00    +0.000 A 
ATOM      7  C   UNL     1       0.132   9.227  21.544  0.00  0.00    +0.000 A 
ATOM      8  C   UNL     1       0.942   8.088  21.533  0.00  0.00    +0.000 A 
ATOM      9  C   UNL     1       1.715   7.759  20.415  0.00  0.00    +0.000 A 
ATOM     10  C   UNL     1       1.622   8.589  19.283  0.00  0.00    +0.000 A 
ATOM     11 BR   UNL     1       2.608   8.218  17.698  0.00  0.00    +0.000 Br
ATOM     12  C   UNL     1       0.813   9.736  19.293  0.00  0.00    +0.000 A 
ENDBRANCH   1   9
BRANCH   2  13
ATOM     13  C   UNL     1       3.320   4.309  20.263  0.00  0.00    +0.000 C 
BRANCH  13  14
ATOM     14  C   UNL     1       4.175   4.450  19.024  0.00  0.00    +0.000 A 
ATOM     15  C   UNL     1       5.492   4.924  19.128  0.00  0.00    +0.000 A 
ATOM     16  C   UNL     1       6.310   5.000  17.997  0.00  0.00    +0.000 A 
ATOM     17  C   UNL     1       5.814   4.594  16.752  0.00  0.00    +0.000 A 
ATOM     18  C   UNL     1       4.502   4.124  16.630  0.00  0.00    +0.000 A 
ATOM     19  C   UNL     1       3.690   4.051  17.766  0.00  0.00    +0.000 A 
BRANCH  17  20
ATOM     20  N   UNL     1       6.685   4.648  15.571  0.00  0.00    +0.000 N 
ATOM     21  O   UNL     1       6.486   3.824  14.668  0.00  0.00    +0.000 OA
ATOM     22  O   UNL     1       7.562   5.525  15.541  0.00  0.00    +0.000 OA
ENDBRANCH  17  20
ENDBRANCH  13  14
ENDBRANCH   2  13
TORSDOF 4
ENDMDL
MODEL 3
REMARK VINA RESULT:      -6.8      2.158      2.906
REMARK  Name = 
REMARK  5 active torsions:
REMARK  status: ('A' for Active; 'I' for Inactive)
REMARK    1  A    between atoms: C_1  and  C_2
REMARK    2  A    between atoms: C_5  and  N_6
REMARK    3  A    between atoms: C_7  and  C_9
REMARK    4  A    between atoms: C_9  and  C_10
REMARK    5  A    between atoms: C_13  and  N_14
REMARK                            x       y       z     vdW  Elec       q    Type
REMARK                         _______ _______ _______ _____ _____    ______ ____
ROOT
ATOM      1  N   UNL     1       3.772   5.684  18.201  0.00  0.00    +0.000 N 
ATOM      2  C   UNL     1       3.304   4.512  17.628  0.00  0.00    +0.000 C 
ATOM      3  O   UNL     1       2.131   4.260  17.359  0.00  0.00    +0.000 OA
ATOM      4  H   UNL     1       4.736   5.710  18.514  0.00  0.00    +0.000 HD
ENDROOT
BRANCH   1   9
ATOM      5  C   UNL     1       0.523  10.237  19.542  0.00  0.00    +0.000 C 
ATOM      6  C   UNL     1       1.394   9.062  19.211  0.00  0.00    +0.000 A 
ATOM      7  C   UNL     1       2.170   9.066  18.051  0.00  0.00    +0.000 A 
ATOM      8  C   UNL     1       2.962   7.964  17.721  0.00  0.00    +0.000 A 
ATOM      9  C   UNL     1       2.999   6.827  18.533  0.00  0.00    +0.000 A 
ATOM     10  C   UNL     1       2.242   6.840  19.719  0.00  0.00    +0.000 A 
ATOM     11 BR   UNL     1       2.240   5.357  20.911  0.00  0.00    +0.000 Br
ATOM     12  C   UNL     1       1.441   7.944  20.052  0.00  0.00    +0.000 A 
ENDBRANCH   1   9
BRANCH   2  13
ATOM     13  C   UNL     1       4.385   3.484  17.346  0.00  0.00    +0.000 C 
BRANCH  13  14
ATOM     14  C   UNL     1       5.322   3.887  16.229  0.00  0.00    +0.000 A 
ATOM     15  C   UNL     1       4.948   3.691  14.892  0.00  0.00    +0.000 A 
ATOM     16  C   UNL     1       5.782   4.116  13.853  0.00  0.00    +0.000 A 
ATOM     17  C   UNL     1       6.995   4.747  14.150  0.00  0.00    +0.000 A 
ATOM     18  C   UNL     1       7.386   4.945  15.478  0.00  0.00    +0.000 A 
ATOM     19  C   UNL     1       6.547   4.518  16.511  0.00  0.00    +0.000 A 
BRANCH  17  20
ATOM     20  N   UNL     1       7.855   5.218  13.055  0.00  0.00    +0.000 N 
ATOM     21  O   UNL     1       8.819   5.940  13.348  0.00  0.00    +0.000 OA
ATOM     22  O   UNL     1       7.574   4.854  11.903  0.00  0.00    +0.000 OA
ENDBRANCH  17  20
ENDBRANCH  13  14
ENDBRANCH   2  13
TORSDOF 4
ENDMDL
MODEL 4
REMARK VINA RESULT:      -6.8      2.272      2.936
REMARK  Name = 
REMARK  5 active torsions:
REMARK  status: ('A' for Active; 'I' for Inactive)
REMARK    1  A    between atoms: C_1  and  C_2
REMARK    2  A    between atoms: C_5  and  N_6
REMARK    3  A    between atoms: C_7  and  C_9
REMARK    4  A    between atoms: C_9  and  C_10
REMARK    5  A    between atoms: C_13  and  N_14
REMARK                            x       y       z     vdW  Elec       q    Type
REMARK                         _______ _______ _______ _____ _____    ______ ____
ROOT
ATOM      1  N   UNL     1       3.125   5.537  18.129  0.00  0.00    +0.000 N 
ATOM      2  C   UNL     1       4.354   4.978  18.440  0.00  0.00    +0.000 C 
ATOM      3  O   UNL     1       5.134   5.385  19.299  0.00  0.00    +0.000 OA
ATOM      4  H   UNL     1       2.645   5.204  17.300  0.00  0.00    +0.000 HD
ENDROOT
BRANCH   1   9
ATOM      5  C   UNL     1       0.534   9.954  20.749  0.00  0.00    +0.000 C 
ATOM      6  C   UNL     1       1.237   8.809  20.082  0.00  0.00    +0.000 A 
ATOM      7  C   UNL     1       1.828   8.981  18.830  0.00  0.00    +0.000 A 
ATOM      8  C   UNL     1       2.461   7.912  18.189  0.00  0.00    +0.000 A 
ATOM      9  C   UNL     1       2.515   6.644  18.775  0.00  0.00    +0.000 A 
ATOM     10  C   UNL     1       1.948   6.484  20.052  0.00  0.00    +0.000 A 
ATOM     11 BR   UNL     1       1.991   4.809  20.954  0.00  0.00    +0.000 Br
ATOM     12  C   UNL     1       1.309   7.554  20.698  0.00  0.00    +0.000 A 
ENDBRANCH   1   9
BRANCH   2  13
ATOM     13  C   UNL     1       4.716   3.767  17.599  0.00  0.00    +0.000 C 
BRANCH  13  14
ATOM     14  C   UNL     1       5.576   4.101  16.401  0.00  0.00    +0.000 A 
ATOM     15  C   UNL     1       5.160   3.736  15.112  0.00  0.00    +0.000 A 
ATOM     16  C   UNL     1       5.918   4.094  13.993  0.00  0.00    +0.000 A 
ATOM     17  C   UNL     1       7.099   4.827  14.160  0.00  0.00    +0.000 A 
ATOM     18  C   UNL     1       7.531   5.195  15.439  0.00  0.00    +0.000 A 
ATOM     19  C   UNL     1       6.767   4.833  16.552  0.00  0.00    +0.000 A 
BRANCH  17  20
ATOM     20  N   UNL     1       7.878   5.227  12.981  0.00  0.00    +0.000 N 
ATOM     21  O   UNL     1       8.856   5.966  13.159  0.00  0.00    +0.000 OA
ATOM     22  O   UNL     1       7.519   4.789  11.877  0.00  0.00    +0.000 OA
ENDBRANCH  17  20
ENDBRANCH  13  14
ENDBRANCH   2  13
TORSDOF 4
ENDMDL
MODEL 5
REMARK VINA RESULT:      -6.8      2.279      3.220
REMARK  Name = 
REMARK  5 active torsions:
REMARK  status: ('A' for Active; 'I' for Inactive)
REMARK    1  A    between atoms: C_1  and  C_2
REMARK    2  A    between atoms: C_5  and  N_6
REMARK    3  A    between atoms: C_7  and  C_9
REMARK    4  A    between atoms: C_9  and  C_10
REMARK    5  A    between atoms: C_13  and  N_14
REMARK                            x       y       z     vdW  Elec       q    Type
REMARK                         _______ _______ _______ _____ _____    ______ ____
ROOT
ATOM      1  N   UNL     1       3.147   5.313  18.427  0.00  0.00    +0.000 N 
ATOM      2  C   UNL     1       4.445   4.875  18.634  0.00  0.00    +0.000 C 
ATOM      3  O   UNL     1       5.247   5.350  19.437  0.00  0.00    +0.000 OA
ATOM      4  H   UNL     1       2.638   4.940  17.633  0.00  0.00    +0.000 HD
ENDROOT
BRANCH   1   9
ATOM      5  C   UNL     1       0.346   9.442  21.289  0.00  0.00    +0.000 C 
ATOM      6  C   UNL     1       1.104   8.372  20.561  0.00  0.00    +0.000 A 
ATOM      7  C   UNL     1       1.722   8.654  19.342  0.00  0.00    +0.000 A 
ATOM      8  C   UNL     1       2.405   7.655  18.643  0.00  0.00    +0.000 A 
ATOM      9  C   UNL     1       2.485   6.349  19.135  0.00  0.00    +0.000 A 
ATOM     10  C   UNL     1       1.890   6.078  20.381  0.00  0.00    +0.000 A 
ATOM     11 BR   UNL     1       1.963   4.342  21.158  0.00  0.00    +0.000 Br
ATOM     12  C   UNL     1       1.199   7.078  21.084  0.00  0.00    +0.000 A 
ENDBRANCH   1   9
BRANCH   2  13
ATOM     13  C   UNL     1       4.857   3.711  17.750  0.00  0.00    +0.000 C 
BRANCH  13  14
ATOM     14  C   UNL     1       5.601   4.136  16.504  0.00  0.00    +0.000 A 
ATOM     15  C   UNL     1       6.904   4.646  16.603  0.00  0.00    +0.000 A 
ATOM     16  C   UNL     1       7.623   4.984  15.452  0.00  0.00    +0.000 A 
ATOM     17  C   UNL     1       7.040   4.805  14.192  0.00  0.00    +0.000 A 
ATOM     18  C   UNL     1       5.740   4.303  14.076  0.00  0.00    +0.000 A 
ATOM     19  C   UNL     1       5.028   3.967  15.231  0.00  0.00    +0.000 A 
BRANCH  17  20
ATOM     20  N   UNL     1       7.808   5.134  12.983  0.00  0.00    +0.000 N 
ATOM     21  O   UNL     1       7.463   4.605  11.917  0.00  0.00    +0.000 OA
ATOM     22  O   UNL     1       8.751   5.932  13.099  0.00  0.00    +0.000 OA
ENDBRANCH  17  20
ENDBRANCH  13  14
ENDBRANCH   2  13
TORSDOF 4
ENDMDL
MODEL 6
REMARK VINA RESULT:      -6.7      1.034      1.276
REMARK  Name = 
REMARK  5 active torsions:
REMARK  status: ('A' for Active; 'I' for Inactive)
REMARK    1  A    between atoms: C_1  and  C_2
REMARK    2  A    between atoms: C_5  and  N_6
REMARK    3  A    between atoms: C_7  and  C_9
REMARK    4  A    between atoms: C_9  and  C_10
REMARK    5  A    between atoms: C_13  and  N_14
REMARK                            x       y       z     vdW  Elec       q    Type
REMARK                         _______ _______ _______ _____ _____    ______ ____
ROOT
ATOM      1  N   UNL     1       2.656   7.094  20.265  0.00  0.00    +0.000 N 
ATOM      2  C   UNL     1       2.565   5.895  19.577  0.00  0.00    +0.000 C 
ATOM      3  O   UNL     1       1.585   5.496  18.950  0.00  0.00    +0.000 OA
ATOM      4  H   UNL     1       3.459   7.239  20.868  0.00  0.00    +0.000 HD
ENDROOT
BRANCH   1   9
ATOM      5  C   UNL     1      -1.273  11.287  20.516  0.00  0.00    +0.000 C 
ATOM      6  C   UNL     1      -0.270  10.175  20.435  0.00  0.00    +0.000 A 
ATOM      7  C   UNL     1      -0.103   9.301  21.510  0.00  0.00    +0.000 A 
ATOM      8  C   UNL     1       0.849   8.279  21.454  0.00  0.00    +0.000 A 
ATOM      9  C   UNL     1       1.662   8.105  20.331  0.00  0.00    +0.000 A 
ATOM     10  C   UNL     1       1.466   8.967  19.237  0.00  0.00    +0.000 A 
ATOM     11 BR   UNL     1       2.498   8.802  17.646  0.00  0.00    +0.000 Br
ATOM     12  C   UNL     1       0.513   9.997  19.290  0.00  0.00    +0.000 A 
ENDBRANCH   1   9
BRANCH   2  13
ATOM     13  C   UNL     1       3.815   5.037  19.655  0.00  0.00    +0.000 C 
BRANCH  13  14
ATOM     14  C   UNL     1       4.580   4.968  18.352  0.00  0.00    +0.000 A 
ATOM     15  C   UNL     1       4.631   3.767  17.629  0.00  0.00    +0.000 A 
ATOM     16  C   UNL     1       5.285   3.709  16.394  0.00  0.00    +0.000 A 
ATOM     17  C   UNL     1       5.886   4.861  15.873  0.00  0.00    +0.000 A 
ATOM     18  C   UNL     1       5.849   6.065  16.583  0.00  0.00    +0.000 A 
ATOM     19  C   UNL     1       5.194   6.114  17.817  0.00  0.00    +0.000 A 
BRANCH  17  20
ATOM     20  N   UNL     1       6.547   4.804  14.562  0.00  0.00    +0.000 N 
ATOM     21  O   UNL     1       5.992   4.156  13.663  0.00  0.00    +0.000 OA
ATOM     22  O   UNL     1       7.616   5.418  14.428  0.00  0.00    +0.000 OA
ENDBRANCH  17  20
ENDBRANCH  13  14
ENDBRANCH   2  13
TORSDOF 4
ENDMDL
MODEL 7
REMARK VINA RESULT:      -6.6      2.201      3.118
REMARK  Name = 
REMARK  5 active torsions:
REMARK  status: ('A' for Active; 'I' for Inactive)
REMARK    1  A    between atoms: C_1  and  C_2
REMARK    2  A    between atoms: C_5  and  N_6
REMARK    3  A    between atoms: C_7  and  C_9
REMARK    4  A    between atoms: C_9  and  C_10
REMARK    5  A    between atoms: C_13  and  N_14
REMARK                            x       y       z     vdW  Elec       q    Type
REMARK                         _______ _______ _______ _____ _____    ______ ____
ROOT
ATOM      1  N   UNL     1       3.687   5.345  18.591  0.00  0.00    +0.000 N 
ATOM      2  C   UNL     1       3.295   4.328  17.736  0.00  0.00    +0.000 C 
ATOM      3  O   UNL     1       2.156   4.144  17.308  0.00  0.00    +0.000 OA
ATOM      4  H   UNL     1       4.618   5.299  18.992  0.00  0.00    +0.000 HD
ENDROOT
BRANCH   1   9
ATOM      5  C   UNL     1       0.251   9.499  20.595  0.00  0.00    +0.000 C 
ATOM      6  C   UNL     1       1.171   8.426  20.093  0.00  0.00    +0.000 A 
ATOM      7  C   UNL     1       1.929   8.633  18.941  0.00  0.00    +0.000 A 
ATOM      8  C   UNL     1       2.767   7.629  18.449  0.00  0.00    +0.000 A 
ATOM      9  C   UNL     1       2.867   6.390  19.089  0.00  0.00    +0.000 A 
ATOM     10  C   UNL     1       2.126   6.198  20.270  0.00  0.00    +0.000 A 
ATOM     11 BR   UNL     1       2.209   4.560  21.237  0.00  0.00    +0.000 Br
ATOM     12  C   UNL     1       1.281   7.203  20.764  0.00  0.00    +0.000 A 
ENDBRANCH   1   9
BRANCH   2  13
ATOM     13  C   UNL     1       4.415   3.382  17.340  0.00  0.00    +0.000 C 
BRANCH  13  14
ATOM     14  C   UNL     1       5.273   3.905  16.209  0.00  0.00    +0.000 A 
ATOM     15  C   UNL     1       6.517   4.492  16.483  0.00  0.00    +0.000 A 
ATOM     16  C   UNL     1       7.343   4.922  15.441  0.00  0.00    +0.000 A 
ATOM     17  C   UNL     1       6.928   4.761  14.113  0.00  0.00    +0.000 A 
ATOM     18  C   UNL     1       5.688   4.183  13.823  0.00  0.00    +0.000 A 
ATOM     19  C   UNL     1       4.868   3.755  14.871  0.00  0.00    +0.000 A 
BRANCH  17  20
ATOM     20  N   UNL     1       7.811   5.188  13.020  0.00  0.00    +0.000 N 
ATOM     21  O   UNL     1       8.721   5.984  13.289  0.00  0.00    +0.000 OA
ATOM     22  O   UNL     1       7.601   4.716  11.892  0.00  0.00    +0.000 OA
ENDBRANCH  17  20
ENDBRANCH  13  14
ENDBRANCH   2  13
TORSDOF 4
ENDMDL
MODEL 8
REMARK VINA RESULT:      -6.5      3.464      4.918
REMARK  Name = 
REMARK  5 active torsions:
REMARK  status: ('A' for Active; 'I' for Inactive)
REMARK    1  A    between atoms: C_1  and  C_2
REMARK    2  A    between atoms: C_5  and  N_6
REMARK    3  A    between atoms: C_7  and  C_9
REMARK    4  A    between atoms: C_9  and  C_10
REMARK    5  A    between atoms: C_13  and  N_14
REMARK                            x       y       z     vdW  Elec       q    Type
REMARK                         _______ _______ _______ _____ _____    ______ ____
ROOT
ATOM      1  N   UNL     1       4.896   5.086  18.198  0.00  0.00    +0.000 N 
ATOM      2  C   UNL     1       6.242   5.350  18.399  0.00  0.00    +0.000 C 
ATOM      3  O   UNL     1       6.875   5.125  19.429  0.00  0.00    +0.000 OA
ATOM      4  H   UNL     1       4.457   5.457  17.363  0.00  0.00    +0.000 HD
ENDROOT
BRANCH   1   9
ATOM      5  C   UNL     1       1.354   2.648  22.019  0.00  0.00    +0.000 C 
ATOM      6  C   UNL     1       2.257   3.275  20.998  0.00  0.00    +0.000 A 
ATOM      7  C   UNL     1       3.328   2.554  20.470  0.00  0.00    +0.000 A 
ATOM      8  C   UNL     1       4.191   3.140  19.540  0.00  0.00    +0.000 A 
ATOM      9  C   UNL     1       4.014   4.460  19.117  0.00  0.00    +0.000 A 
ATOM     10  C   UNL     1       2.913   5.172  19.627  0.00  0.00    +0.000 A 
ATOM     11 BR   UNL     1       2.562   6.967  19.098  0.00  0.00    +0.000 Br
ATOM     12  C   UNL     1       2.046   4.589  20.564  0.00  0.00    +0.000 A 
ENDBRANCH   1   9
BRANCH   2  13
ATOM     13  C   UNL     1       6.934   5.987  17.208  0.00  0.00    +0.000 C 
BRANCH  13  14
ATOM     14  C   UNL     1       6.723   5.232  15.914  0.00  0.00    +0.000 A 
ATOM     15  C   UNL     1       5.649   4.339  15.788  0.00  0.00    +0.000 A 
ATOM     16  C   UNL     1       5.411   3.683  14.577  0.00  0.00    +0.000 A 
ATOM     17  C   UNL     1       6.246   3.925  13.480  0.00  0.00    +0.000 A 
ATOM     18  C   UNL     1       7.324   4.808  13.590  0.00  0.00    +0.000 A 
ATOM     19  C   UNL     1       7.556   5.460  14.805  0.00  0.00    +0.000 A 
BRANCH  17  20
ATOM     20  N   UNL     1       5.975   3.256  12.200  0.00  0.00    +0.000 N 
ATOM     21  O   UNL     1       4.815   3.285  11.767  0.00  0.00    +0.000 OA
ATOM     22  O   UNL     1       6.928   2.711  11.622  0.00  0.00    +0.000 OA
ENDBRANCH  17  20
ENDBRANCH  13  14
ENDBRANCH   2  13
TORSDOF 4
ENDMDL
MODEL 9
REMARK VINA RESULT:      -6.5      3.487      4.996
REMARK  Name = 
REMARK  5 active torsions:
REMARK  status: ('A' for Active; 'I' for Inactive)
REMARK    1  A    between atoms: C_1  and  C_2
REMARK    2  A    between atoms: C_5  and  N_6
REMARK    3  A    between atoms: C_7  and  C_9
REMARK    4  A    between atoms: C_9  and  C_10
REMARK    5  A    between atoms: C_13  and  N_14
REMARK                            x       y       z     vdW  Elec       q    Type
REMARK                         _______ _______ _______ _____ _____    ______ ____
ROOT
ATOM      1  N   UNL     1       4.981   5.079  18.186  0.00  0.00    +0.000 N 
ATOM      2  C   UNL     1       6.333   5.309  18.382  0.00  0.00    +0.000 C 
ATOM      3  O   UNL     1       6.968   5.048  19.402  0.00  0.00    +0.000 OA
ATOM      4  H   UNL     1       4.543   5.477  17.362  0.00  0.00    +0.000 HD
ENDROOT
BRANCH   1   9
ATOM      5  C   UNL     1       1.408   2.645  21.980  0.00  0.00    +0.000 C 
ATOM      6  C   UNL     1       2.319   3.271  20.966  0.00  0.00    +0.000 A 
ATOM      7  C   UNL     1       3.408   2.556  20.465  0.00  0.00    +0.000 A 
ATOM      8  C   UNL     1       4.279   3.141  19.542  0.00  0.00    +0.000 A 
ATOM      9  C   UNL     1       4.092   4.454  19.099  0.00  0.00    +0.000 A 
ATOM     10  C   UNL     1       2.973   5.158  19.581  0.00  0.00    +0.000 A 
ATOM     11 BR   UNL     1       2.608   6.941  19.023  0.00  0.00    +0.000 Br
ATOM     12  C   UNL     1       2.099   4.575  20.511  0.00  0.00    +0.000 A 
ENDBRANCH   1   9
BRANCH   2  13
ATOM     13  C   UNL     1       7.031   5.956  17.198  0.00  0.00    +0.000 C 
BRANCH  13  14
ATOM     14  C   UNL     1       6.713   5.293  15.877  0.00  0.00    +0.000 A 
ATOM     15  C   UNL     1       7.573   5.460  14.781  0.00  0.00    +0.000 A 
ATOM     16  C   UNL     1       7.320   4.802  13.574  0.00  0.00    +0.000 A 
ATOM     17  C   UNL     1       6.204   3.966  13.459  0.00  0.00    +0.000 A 
ATOM     18  C   UNL     1       5.333   3.792  14.540  0.00  0.00    +0.000 A 
ATOM     19  C   UNL     1       5.593   4.454  15.744  0.00  0.00    +0.000 A 
BRANCH  17  20
ATOM     20  N   UNL     1       5.956   3.253  12.198  0.00  0.00    +0.000 N 
ATOM     21  O   UNL     1       6.915   2.681  11.661  0.00  0.00    +0.000 OA
ATOM     22  O   UNL     1       4.799   3.257  11.752  0.00  0.00    +0.000 OA
ENDBRANCH  17  20
ENDBRANCH  13  14
ENDBRANCH   2  13
TORSDOF 4
ENDMDL
