MODEL 1
REMARK VINA RESULT:      -9.4      0.000      0.000
REMARK  Name = 
REMARK  9 active torsions:
REMARK  status: ('A' for Active; 'I' for Inactive)
REMARK    1  A    between atoms: C_2  and  O_3
REMARK    2  A    between atoms: C_2  and  C_4
REMARK    3  A    between atoms: C_8  and  C_9
REMARK    4  A    between atoms: C_9  and  C_21
REMARK    5  A    between atoms: N_10  and  O_11
REMARK    6  A    between atoms: O_11  and  C_12
REMARK    7  A    between atoms: C_12  and  C_13
REMARK    8  A    between atoms: C_13  and  C_14
REMARK    9  A    between atoms: C_25  and  C_26
REMARK                            x       y       z     vdW  Elec       q    Type
REMARK                         _______ _______ _______ _____ _____    ______ ____
ROOT
ATOM      1  C   UNL     1       3.516   6.028  17.904  0.00  0.00    +0.000 C 
ATOM      2  N   UNL     1       3.160   7.282  17.790  0.00  0.00    +0.000 NA
ENDROOT
BRANCH   1   7
ATOM      3  C   UNL     1       6.600   5.031  15.870  0.00  0.00    +0.000 A 
ATOM      4  C   UNL     1       7.544   4.836  16.883  0.00  0.00    +0.000 A 
ATOM      5  C   UNL     1       7.183   5.067  18.211  0.00  0.00    +0.000 A 
ATOM      6  C   UNL     1       5.882   5.476  18.522  0.00  0.00    +0.000 A 
ATOM      7  C   UNL     1       4.934   5.682  17.510  0.00  0.00    +0.000 A 
ATOM      8  C   UNL     1       5.318   5.502  16.175  0.00  0.00    +0.000 A 
BRANCH   3  10
ATOM      9  O   UNL     1       6.391   3.836  13.825  0.00  0.00    +0.000 OA
ATOM     10  C   UNL     1       6.916   4.738  14.447  0.00  0.00    +0.000 C 
BRANCH  10  11
ATOM     11  O   UNL     1       7.903   5.514  13.947  0.00  0.00    +0.000 OA
ATOM     12  H   UNL     1       7.724   6.470  13.943  0.00  0.00    +0.000 HD
ENDBRANCH  10  11
ENDBRANCH   3  10
ENDBRANCH   1   7
BRANCH   1  13
ATOM     13  C   UNL     1       2.627   4.932  18.437  0.00  0.00    +0.000 A 
ATOM     14  C   UNL     1       1.742   4.252  17.588  0.00  0.00    +0.000 A 
ATOM     15  C   UNL     1       0.905   3.254  18.091  0.00  0.00    +0.000 A 
ATOM     16  C   UNL     1       0.995   2.874  19.430  0.00  0.00    +0.000 A 
ATOM     17  C   UNL     1       1.901   3.511  20.288  0.00  0.00    +0.000 A 
ATOM     18  C   UNL     1       2.680   4.568  19.789  0.00  0.00    +0.000 A 
BRANCH  17  19
ATOM     19  C   UNL     1       2.087   3.063  21.715  0.00  0.00    +0.000 C 
ATOM     20  F   UNL     1       2.406   4.075  22.568  0.00  0.00    +0.000 F 
ATOM     21  F   UNL     1       0.963   2.488  22.226  0.00  0.00    +0.000 F 
ATOM     22  F   UNL     1       3.074   2.134  21.849  0.00  0.00    +0.000 F 
ENDBRANCH  17  19
ENDBRANCH   1  13
BRANCH   2  23
ATOM     23  O   UNL     1       1.888   7.542  18.321  0.00  0.00    +0.000 OA
BRANCH  23  24
ATOM     24  C   UNL     1       1.942   8.684  19.176  0.00  0.00    +0.000 C 
BRANCH  24  25
ATOM     25  C   UNL     1       1.458   8.252  20.561  0.00  0.00    +0.000 C 
BRANCH  25  26
ATOM     26  C   UNL     1       0.684   9.335  21.267  0.00  0.00    +0.000 A 
ATOM     27  C   UNL     1       0.061   9.083  22.498  0.00  0.00    +0.000 A 
ATOM     28  C   UNL     1      -0.699  10.077  23.121  0.00  0.00    +0.000 A 
ATOM     29  C   UNL     1      -0.837  11.325  22.517  0.00  0.00    +0.000 A 
ATOM     30 CL   UNL     1      -1.797  12.539  23.269  0.00  0.00    +0.000 Cl
ATOM     31  C   UNL     1      -0.212  11.593  21.302  0.00  0.00    +0.000 A 
ATOM     32  C   UNL     1       0.548  10.600  20.679  0.00  0.00    +0.000 A 
ENDBRANCH  25  26
ENDBRANCH  24  25
ENDBRANCH  23  24
ENDBRANCH   2  23
TORSDOF 9
ENDMDL
MODEL 2
REMARK VINA RESULT:      -9.3      1.947      2.452
REMARK  Name = 
REMARK  9 active torsions:
REMARK  status: ('A' for Active; 'I' for Inactive)
REMARK    1  A    between atoms: C_2  and  O_3
REMARK    2  A    between atoms: C_2  and  C_4
REMARK    3  A    between atoms: C_8  and  C_9
REMARK    4  A    between atoms: C_9  and  C_21
REMARK    5  A    between atoms: N_10  and  O_11
REMARK    6  A    between atoms: O_11  and  C_12
REMARK    7  A    between atoms: C_12  and  C_13
REMARK    8  A    between atoms: C_13  and  C_14
REMARK    9  A    between atoms: C_25  and  C_26
REMARK                            x       y       z     vdW  Elec       q    Type
REMARK                         _______ _______ _______ _____ _____    ______ ____
ROOT
ATOM      1  C   UNL     1       3.663   6.175  17.990  0.00  0.00    +0.000 C 
ATOM      2  N   UNL     1       3.375   7.451  17.936  0.00  0.00    +0.000 NA
ENDROOT
BRANCH   1   7
ATOM      3  C   UNL     1       6.675   5.080  15.897  0.00  0.00    +0.000 A 
ATOM      4  C   UNL     1       7.618   4.816  16.895  0.00  0.00    +0.000 A 
ATOM      5  C   UNL     1       7.283   5.033  18.232  0.00  0.00    +0.000 A 
ATOM      6  C   UNL     1       6.006   5.496  18.567  0.00  0.00    +0.000 A 
ATOM      7  C   UNL     1       5.058   5.771  17.571  0.00  0.00    +0.000 A 
ATOM      8  C   UNL     1       5.419   5.605  16.228  0.00  0.00    +0.000 A 
BRANCH   3  10
ATOM      9  O   UNL     1       7.792   5.423  13.827  0.00  0.00    +0.000 OA
ATOM     10  C   UNL     1       6.962   4.806  14.465  0.00  0.00    +0.000 C 
BRANCH  10  11
ATOM     11  O   UNL     1       6.151   3.869  13.926  0.00  0.00    +0.000 OA
ATOM     12  H   UNL     1       6.599   3.091  13.552  0.00  0.00    +0.000 HD
ENDBRANCH  10  11
ENDBRANCH   3  10
ENDBRANCH   1   7
BRANCH   1  13
ATOM     13  C   UNL     1       2.717   5.105  18.476  0.00  0.00    +0.000 A 
ATOM     14  C   UNL     1       1.790   4.519  17.603  0.00  0.00    +0.000 A 
ATOM     15  C   UNL     1       0.901   3.546  18.063  0.00  0.00    +0.000 A 
ATOM     16  C   UNL     1       0.977   3.095  19.381  0.00  0.00    +0.000 A 
ATOM     17  C   UNL     1       1.924   3.636  20.260  0.00  0.00    +0.000 A 
ATOM     18  C   UNL     1       2.758   4.672  19.808  0.00  0.00    +0.000 A 
BRANCH  17  19
ATOM     19  C   UNL     1       2.094   3.108  21.662  0.00  0.00    +0.000 C 
ATOM     20  F   UNL     1       0.987   2.480  22.147  0.00  0.00    +0.000 F 
ATOM     21  F   UNL     1       3.106   2.200  21.752  0.00  0.00    +0.000 F 
ATOM     22  F   UNL     1       2.394   4.088  22.559  0.00  0.00    +0.000 F 
ENDBRANCH  17  19
ENDBRANCH   1  13
BRANCH   2  23
ATOM     23  O   UNL     1       2.122   7.754  18.486  0.00  0.00    +0.000 OA
BRANCH  23  24
ATOM     24  C   UNL     1       1.546   8.865  17.798  0.00  0.00    +0.000 C 
BRANCH  24  25
ATOM     25  C   UNL     1       1.015   9.840  18.850  0.00  0.00    +0.000 C 
BRANCH  25  26
ATOM     26  C   UNL     1      -0.397  10.285  18.567  0.00  0.00    +0.000 A 
ATOM     27  C   UNL     1      -1.110   9.758  17.481  0.00  0.00    +0.000 A 
ATOM     28  C   UNL     1      -2.399  10.216  17.193  0.00  0.00    +0.000 A 
ATOM     29  C   UNL     1      -2.979  11.199  17.992  0.00  0.00    +0.000 A 
ATOM     30 CL   UNL     1      -4.555  11.783  17.621  0.00  0.00    +0.000 Cl
ATOM     31  C   UNL     1      -2.288  11.720  19.082  0.00  0.00    +0.000 A 
ATOM     32  C   UNL     1      -1.000  11.264  19.369  0.00  0.00    +0.000 A 
ENDBRANCH  25  26
ENDBRANCH  24  25
ENDBRANCH  23  24
ENDBRANCH   2  23
TORSDOF 9
ENDMDL
MODEL 3
REMARK VINA RESULT:      -9.2      0.327      1.261
REMARK  Name = 
REMARK  9 active torsions:
REMARK  status: ('A' for Active; 'I' for Inactive)
REMARK    1  A    between atoms: C_2  and  O_3
REMARK    2  A    between atoms: C_2  and  C_4
REMARK    3  A    between atoms: C_8  and  C_9
REMARK    4  A    between atoms: C_9  and  C_21
REMARK    5  A    between atoms: N_10  and  O_11
REMARK    6  A    between atoms: O_11  and  C_12
REMARK    7  A    between atoms: C_12  and  C_13
REMARK    8  A    between atoms: C_13  and  C_14
REMARK    9  A    between atoms: C_25  and  C_26
REMARK                            x       y       z     vdW  Elec       q    Type
REMARK                         _______ _______ _______ _____ _____    ______ ____
ROOT
ATOM      1  C   UNL     1       3.557   6.083  17.979  0.00  0.00    +0.000 C 
ATOM      2  N   UNL     1       3.228   7.349  17.925  0.00  0.00    +0.000 NA
ENDROOT
BRANCH   1   7
ATOM      3  C   UNL     1       6.568   4.997  15.880  0.00  0.00    +0.000 A 
ATOM      4  C   UNL     1       7.551   4.861  16.864  0.00  0.00    +0.000 A 
ATOM      5  C   UNL     1       7.241   5.159  18.192  0.00  0.00    +0.000 A 
ATOM      6  C   UNL     1       5.950   5.577  18.531  0.00  0.00    +0.000 A 
ATOM      7  C   UNL     1       4.961   5.725  17.548  0.00  0.00    +0.000 A 
ATOM      8  C   UNL     1       5.294   5.477  16.210  0.00  0.00    +0.000 A 
BRANCH   3  10
ATOM      9  O   UNL     1       7.413   5.366  13.688  0.00  0.00    +0.000 OA
ATOM     10  C   UNL     1       6.831   4.632  14.463  0.00  0.00    +0.000 C 
BRANCH  10  11
ATOM     11  O   UNL     1       6.284   3.450  14.105  0.00  0.00    +0.000 OA
ATOM     12  H   UNL     1       6.287   3.258  13.151  0.00  0.00    +0.000 HD
ENDBRANCH  10  11
ENDBRANCH   3  10
ENDBRANCH   1   7
BRANCH   1  13
ATOM     13  C   UNL     1       2.652   4.984  18.476  0.00  0.00    +0.000 A 
ATOM     14  C   UNL     1       1.765   4.338  17.604  0.00  0.00    +0.000 A 
ATOM     15  C   UNL     1       0.913   3.337  18.075  0.00  0.00    +0.000 A 
ATOM     16  C   UNL     1       0.989   2.921  19.404  0.00  0.00    +0.000 A 
ATOM     17  C   UNL     1       1.897   3.523  20.283  0.00  0.00    +0.000 A 
ATOM     18  C   UNL     1       2.691   4.584  19.819  0.00  0.00    +0.000 A 
BRANCH  17  19
ATOM     19  C   UNL     1       2.069   3.035  21.700  0.00  0.00    +0.000 C 
ATOM     20  F   UNL     1       0.947   2.465  22.221  0.00  0.00    +0.000 F 
ATOM     21  F   UNL     1       3.047   2.094  21.806  0.00  0.00    +0.000 F 
ATOM     22  F   UNL     1       2.417   4.032  22.559  0.00  0.00    +0.000 F 
ENDBRANCH  17  19
ENDBRANCH   1  13
BRANCH   2  23
ATOM     23  O   UNL     1       1.970   7.612  18.486  0.00  0.00    +0.000 OA
BRANCH  23  24
ATOM     24  C   UNL     1       2.127   8.235  19.761  0.00  0.00    +0.000 C 
BRANCH  24  25
ATOM     25  C   UNL     1       0.927   7.840  20.623  0.00  0.00    +0.000 C 
BRANCH  25  26
ATOM     26  C   UNL     1       0.231   9.032  21.227  0.00  0.00    +0.000 A 
ATOM     27  C   UNL     1      -0.104  10.142  20.438  0.00  0.00    +0.000 A 
ATOM     28  C   UNL     1      -0.701  11.265  21.017  0.00  0.00    +0.000 A 
ATOM     29  C   UNL     1      -0.969  11.281  22.384  0.00  0.00    +0.000 A 
ATOM     30 CL   UNL     1      -1.678  12.675  23.102  0.00  0.00    +0.000 Cl
ATOM     31  C   UNL     1      -0.655  10.180  23.177  0.00  0.00    +0.000 A 
ATOM     32  C   UNL     1      -0.057   9.057  22.599  0.00  0.00    +0.000 A 
ENDBRANCH  25  26
ENDBRANCH  24  25
ENDBRANCH  23  24
ENDBRANCH   2  23
TORSDOF 9
ENDMDL
MODEL 4
REMARK VINA RESULT:      -9.2      0.748      1.095
REMARK  Name = 
REMARK  9 active torsions:
REMARK  status: ('A' for Active; 'I' for Inactive)
REMARK    1  A    between atoms: C_2  and  O_3
REMARK    2  A    between atoms: C_2  and  C_4
REMARK    3  A    between atoms: C_8  and  C_9
REMARK    4  A    between atoms: C_9  and  C_21
REMARK    5  A    between atoms: N_10  and  O_11
REMARK    6  A    between atoms: O_11  and  C_12
REMARK    7  A    between atoms: C_12  and  C_13
REMARK    8  A    between atoms: C_13  and  C_14
REMARK    9  A    between atoms: C_25  and  C_26
REMARK                            x       y       z     vdW  Elec       q    Type
REMARK                         _______ _______ _______ _____ _____    ______ ____
ROOT
ATOM      1  C   UNL     1       3.702   6.128  17.832  0.00  0.00    +0.000 C 
ATOM      2  N   UNL     1       3.443   7.407  17.736  0.00  0.00    +0.000 NA
ENDROOT
BRANCH   1   7
ATOM      3  C   UNL     1       6.663   4.911  15.734  0.00  0.00    +0.000 A 
ATOM      4  C   UNL     1       7.607   4.636  16.729  0.00  0.00    +0.000 A 
ATOM      5  C   UNL     1       7.290   4.884  18.064  0.00  0.00    +0.000 A 
ATOM      6  C   UNL     1       6.030   5.390  18.402  0.00  0.00    +0.000 A 
ATOM      7  C   UNL     1       5.082   5.677  17.409  0.00  0.00    +0.000 A 
ATOM      8  C   UNL     1       5.426   5.477  16.066  0.00  0.00    +0.000 A 
BRANCH   3  10
ATOM      9  O   UNL     1       7.541   5.356  13.569  0.00  0.00    +0.000 OA
ATOM     10  C   UNL     1       6.930   4.605  14.304  0.00  0.00    +0.000 C 
BRANCH  10  11
ATOM     11  O   UNL     1       6.353   3.457  13.886  0.00  0.00    +0.000 OA
ATOM     12  H   UNL     1       5.410   3.357  14.101  0.00  0.00    +0.000 HD
ENDBRANCH  10  11
ENDBRANCH   3  10
ENDBRANCH   1   7
BRANCH   1  13
ATOM     13  C   UNL     1       2.740   5.099  18.371  0.00  0.00    +0.000 A 
ATOM     14  C   UNL     1       1.775   4.516  17.537  0.00  0.00    +0.000 A 
ATOM     15  C   UNL     1       0.872   3.581  18.047  0.00  0.00    +0.000 A 
ATOM     16  C   UNL     1       0.969   3.164  19.374  0.00  0.00    +0.000 A 
ATOM     17  C   UNL     1       1.952   3.702  20.214  0.00  0.00    +0.000 A 
ATOM     18  C   UNL     1       2.802   4.701  19.713  0.00  0.00    +0.000 A 
BRANCH  17  19
ATOM     19  C   UNL     1       2.143   3.207  21.626  0.00  0.00    +0.000 C 
ATOM     20  F   UNL     1       2.460   4.192  22.511  0.00  0.00    +0.000 F 
ATOM     21  F   UNL     1       1.022   2.611  22.119  0.00  0.00    +0.000 F 
ATOM     22  F   UNL     1       3.133   2.278  21.726  0.00  0.00    +0.000 F 
ENDBRANCH  17  19
ENDBRANCH   1  13
BRANCH   2  23
ATOM     23  O   UNL     1       2.206   7.760  18.291  0.00  0.00    +0.000 OA
BRANCH  23  24
ATOM     24  C   UNL     1       1.980   9.160  18.128  0.00  0.00    +0.000 C 
BRANCH  24  25
ATOM     25  C   UNL     1       0.469   9.394  18.146  0.00  0.00    +0.000 C 
BRANCH  25  26
ATOM     26  C   UNL     1       0.003  10.067  19.411  0.00  0.00    +0.000 A 
ATOM     27  C   UNL     1       0.220   9.471  20.661  0.00  0.00    +0.000 A 
ATOM     28  C   UNL     1      -0.262  10.076  21.825  0.00  0.00    +0.000 A 
ATOM     29  C   UNL     1      -0.961  11.278  21.743  0.00  0.00    +0.000 A 
ATOM     30 CL   UNL     1      -1.581  12.008  23.173  0.00  0.00    +0.000 Cl
ATOM     31  C   UNL     1      -1.171  11.889  20.509  0.00  0.00    +0.000 A 
ATOM     32  C   UNL     1      -0.690  11.284  19.345  0.00  0.00    +0.000 A 
ENDBRANCH  25  26
ENDBRANCH  24  25
ENDBRANCH  23  24
ENDBRANCH   2  23
TORSDOF 9
ENDMDL
MODEL 5
REMARK VINA RESULT:      -9.1      2.369      2.970
REMARK  Name = 
REMARK  9 active torsions:
REMARK  status: ('A' for Active; 'I' for Inactive)
REMARK    1  A    between atoms: C_2  and  O_3
REMARK    2  A    between atoms: C_2  and  C_4
REMARK    3  A    between atoms: C_8  and  C_9
REMARK    4  A    between atoms: C_9  and  C_21
REMARK    5  A    between atoms: N_10  and  O_11
REMARK    6  A    between atoms: O_11  and  C_12
REMARK    7  A    between atoms: C_12  and  C_13
REMARK    8  A    between atoms: C_13  and  C_14
REMARK    9  A    between atoms: C_25  and  C_26
REMARK                            x       y       z     vdW  Elec       q    Type
REMARK                         _______ _______ _______ _____ _____    ______ ____
ROOT
ATOM      1  C   UNL     1       3.643   6.567  17.913  0.00  0.00    +0.000 C 
ATOM      2  N   UNL     1       3.283   7.731  17.434  0.00  0.00    +0.000 NA
ENDROOT
BRANCH   1   7
ATOM      3  C   UNL     1       6.686   5.206  16.032  0.00  0.00    +0.000 A 
ATOM      4  C   UNL     1       7.593   5.021  17.080  0.00  0.00    +0.000 A 
ATOM      5  C   UNL     1       7.225   5.375  18.378  0.00  0.00    +0.000 A 
ATOM      6  C   UNL     1       5.951   5.897  18.626  0.00  0.00    +0.000 A 
ATOM      7  C   UNL     1       5.039   6.094  17.579  0.00  0.00    +0.000 A 
ATOM      8  C   UNL     1       5.435   5.788  16.271  0.00  0.00    +0.000 A 
BRANCH   3  10
ATOM      9  O   UNL     1       7.682   5.460  13.888  0.00  0.00    +0.000 OA
ATOM     10  C   UNL     1       7.007   4.787  14.643  0.00  0.00    +0.000 C 
BRANCH  10  11
ATOM     11  O   UNL     1       6.406   3.633  14.279  0.00  0.00    +0.000 OA
ATOM     12  H   UNL     1       6.837   2.818  14.589  0.00  0.00    +0.000 HD
ENDBRANCH  10  11
ENDBRANCH   3  10
ENDBRANCH   1   7
BRANCH   1  13
ATOM     13  C   UNL     1       2.780   5.703  18.798  0.00  0.00    +0.000 A 
ATOM     14  C   UNL     1       2.211   6.222  19.970  0.00  0.00    +0.000 A 
ATOM     15  C   UNL     1       1.432   5.412  20.798  0.00  0.00    +0.000 A 
ATOM     16  C   UNL     1       1.153   4.097  20.428  0.00  0.00    +0.000 A 
ATOM     17  C   UNL     1       1.675   3.569  19.240  0.00  0.00    +0.000 A 
ATOM     18  C   UNL     1       2.524   4.368  18.457  0.00  0.00    +0.000 A 
BRANCH  17  19
ATOM     19  C   UNL     1       1.317   2.183  18.766  0.00  0.00    +0.000 C 
ATOM     20  F   UNL     1      -0.002   2.031  18.468  0.00  0.00    +0.000 F 
ATOM     21  F   UNL     1       1.996   1.833  17.638  0.00  0.00    +0.000 F 
ATOM     22  F   UNL     1       1.608   1.223  19.687  0.00  0.00    +0.000 F 
ENDBRANCH  17  19
ENDBRANCH   1  13
BRANCH   2  23
ATOM     23  O   UNL     1       2.040   8.162  17.916  0.00  0.00    +0.000 OA
BRANCH  23  24
ATOM     24  C   UNL     1       1.966   9.587  17.865  0.00  0.00    +0.000 C 
BRANCH  24  25
ATOM     25  C   UNL     1       1.110  10.052  19.044  0.00  0.00    +0.000 C 
BRANCH  25  26
ATOM     26  C   UNL     1      -0.296  10.408  18.634  0.00  0.00    +0.000 A 
ATOM     27  C   UNL     1      -0.896   9.794  17.526  0.00  0.00    +0.000 A 
ATOM     28  C   UNL     1      -2.181  10.169  17.121  0.00  0.00    +0.000 A 
ATOM     29  C   UNL     1      -2.869  11.155  17.824  0.00  0.00    +0.000 A 
ATOM     30 CL   UNL     1      -4.438  11.637  17.308  0.00  0.00    +0.000 Cl
ATOM     31  C   UNL     1      -2.291  11.762  18.936  0.00  0.00    +0.000 A 
ATOM     32  C   UNL     1      -1.007  11.388  19.340  0.00  0.00    +0.000 A 
ENDBRANCH  25  26
ENDBRANCH  24  25
ENDBRANCH  23  24
ENDBRANCH   2  23
TORSDOF 9
ENDMDL
MODEL 6
REMARK VINA RESULT:      -9.0      1.691      2.138
REMARK  Name = 
REMARK  9 active torsions:
REMARK  status: ('A' for Active; 'I' for Inactive)
REMARK    1  A    between atoms: C_2  and  O_3
REMARK    2  A    between atoms: C_2  and  C_4
REMARK    3  A    between atoms: C_8  and  C_9
REMARK    4  A    between atoms: C_9  and  C_21
REMARK    5  A    between atoms: N_10  and  O_11
REMARK    6  A    between atoms: O_11  and  C_12
REMARK    7  A    between atoms: C_12  and  C_13
REMARK    8  A    between atoms: C_13  and  C_14
REMARK    9  A    between atoms: C_25  and  C_26
REMARK                            x       y       z     vdW  Elec       q    Type
REMARK                         _______ _______ _______ _____ _____    ______ ____
ROOT
ATOM      1  C   UNL     1       3.463   6.041  17.876  0.00  0.00    +0.000 C 
ATOM      2  N   UNL     1       3.090   7.288  17.736  0.00  0.00    +0.000 NA
ENDROOT
BRANCH   1   7
ATOM      3  C   UNL     1       6.581   5.049  15.890  0.00  0.00    +0.000 A 
ATOM      4  C   UNL     1       7.519   4.893  16.915  0.00  0.00    +0.000 A 
ATOM      5  C   UNL     1       7.143   5.147  18.234  0.00  0.00    +0.000 A 
ATOM      6  C   UNL     1       5.833   5.542  18.525  0.00  0.00    +0.000 A 
ATOM      7  C   UNL     1       4.890   5.710  17.501  0.00  0.00    +0.000 A 
ATOM      8  C   UNL     1       5.288   5.506  16.174  0.00  0.00    +0.000 A 
BRANCH   3  10
ATOM      9  O   UNL     1       6.413   3.801  13.873  0.00  0.00    +0.000 OA
ATOM     10  C   UNL     1       6.914   4.730  14.477  0.00  0.00    +0.000 C 
BRANCH  10  11
ATOM     11  O   UNL     1       7.886   5.516  13.964  0.00  0.00    +0.000 OA
ATOM     12  H   UNL     1       8.624   5.716  14.565  0.00  0.00    +0.000 HD
ENDBRANCH  10  11
ENDBRANCH   3  10
ENDBRANCH   1   7
BRANCH   1  13
ATOM     13  C   UNL     1       2.586   4.942  18.420  0.00  0.00    +0.000 A 
ATOM     14  C   UNL     1       1.681   4.269  17.587  0.00  0.00    +0.000 A 
ATOM     15  C   UNL     1       0.855   3.268  18.101  0.00  0.00    +0.000 A 
ATOM     16  C   UNL     1       0.975   2.878  19.434  0.00  0.00    +0.000 A 
ATOM     17  C   UNL     1       1.901   3.506  20.275  0.00  0.00    +0.000 A 
ATOM     18  C   UNL     1       2.669   4.567  19.768  0.00  0.00    +0.000 A 
BRANCH  17  19
ATOM     19  C   UNL     1       2.120   3.047  21.695  0.00  0.00    +0.000 C 
ATOM     20  F   UNL     1       3.158   2.177  21.833  0.00  0.00    +0.000 F 
ATOM     21  F   UNL     1       2.388   4.083  22.537  0.00  0.00    +0.000 F 
ATOM     22  F   UNL     1       1.030   2.418  22.215  0.00  0.00    +0.000 F 
ENDBRANCH  17  19
ENDBRANCH   1  13
BRANCH   2  23
ATOM     23  O   UNL     1       1.810   7.538  18.249  0.00  0.00    +0.000 OA
BRANCH  23  24
ATOM     24  C   UNL     1       1.837   8.700  19.078  0.00  0.00    +0.000 C 
BRANCH  24  25
ATOM     25  C   UNL     1       1.583   9.916  18.185  0.00  0.00    +0.000 C 
BRANCH  25  26
ATOM     26  C   UNL     1       0.179  10.448  18.318  0.00  0.00    +0.000 A 
ATOM     27  C   UNL     1      -0.083  11.597  19.077  0.00  0.00    +0.000 A 
ATOM     28  C   UNL     1      -1.394  12.054  19.238  0.00  0.00    +0.000 A 
ATOM     29  C   UNL     1      -2.446  11.364  18.639  0.00  0.00    +0.000 A 
ATOM     30 CL   UNL     1      -4.063  11.909  18.861  0.00  0.00    +0.000 Cl
ATOM     31  C   UNL     1      -2.199  10.230  17.870  0.00  0.00    +0.000 A 
ATOM     32  C   UNL     1      -0.889   9.773  17.709  0.00  0.00    +0.000 A 
ENDBRANCH  25  26
ENDBRANCH  24  25
ENDBRANCH  23  24
ENDBRANCH   2  23
TORSDOF 9
ENDMDL
MODEL 7
REMARK VINA RESULT:      -8.9      1.526      2.013
REMARK  Name = 
REMARK  9 active torsions:
REMARK  status: ('A' for Active; 'I' for Inactive)
REMARK    1  A    between atoms: C_2  and  O_3
REMARK    2  A    between atoms: C_2  and  C_4
REMARK    3  A    between atoms: C_8  and  C_9
REMARK    4  A    between atoms: C_9  and  C_21
REMARK    5  A    between atoms: N_10  and  O_11
REMARK    6  A    between atoms: O_11  and  C_12
REMARK    7  A    between atoms: C_12  and  C_13
REMARK    8  A    between atoms: C_13  and  C_14
REMARK    9  A    between atoms: C_25  and  C_26
REMARK                            x       y       z     vdW  Elec       q    Type
REMARK                         _______ _______ _______ _____ _____    ______ ____
ROOT
ATOM      1  C   UNL     1       3.696   6.514  17.856  0.00  0.00    +0.000 C 
ATOM      2  N   UNL     1       3.344   7.688  17.397  0.00  0.00    +0.000 NA
ENDROOT
BRANCH   1   7
ATOM      3  C   UNL     1       6.655   5.154  15.847  0.00  0.00    +0.000 A 
ATOM      4  C   UNL     1       7.576   4.887  16.864  0.00  0.00    +0.000 A 
ATOM      5  C   UNL     1       7.245   5.186  18.186  0.00  0.00    +0.000 A 
ATOM      6  C   UNL     1       5.994   5.735  18.487  0.00  0.00    +0.000 A 
ATOM      7  C   UNL     1       5.069   6.014  17.470  0.00  0.00    +0.000 A 
ATOM      8  C   UNL     1       5.429   5.762  16.140  0.00  0.00    +0.000 A 
BRANCH   3  10
ATOM      9  O   UNL     1       6.400   3.860  13.867  0.00  0.00    +0.000 OA
ATOM     10  C   UNL     1       6.936   4.795  14.432  0.00  0.00    +0.000 C 
BRANCH  10  11
ATOM     11  O   UNL     1       7.902   5.552  13.868  0.00  0.00    +0.000 OA
ATOM     12  H   UNL     1       8.342   5.163  13.093  0.00  0.00    +0.000 HD
ENDBRANCH  10  11
ENDBRANCH   3  10
ENDBRANCH   1   7
BRANCH   1  13
ATOM     13  C   UNL     1       2.847   5.663  18.767  0.00  0.00    +0.000 A 
ATOM     14  C   UNL     1       2.322   6.190  19.956  0.00  0.00    +0.000 A 
ATOM     15  C   UNL     1       1.557   5.391  20.807  0.00  0.00    +0.000 A 
ATOM     16  C   UNL     1       1.246   4.081  20.445  0.00  0.00    +0.000 A 
ATOM     17  C   UNL     1       1.723   3.546  19.242  0.00  0.00    +0.000 A 
ATOM     18  C   UNL     1       2.560   4.333  18.434  0.00  0.00    +0.000 A 
BRANCH  17  19
ATOM     19  C   UNL     1       1.331   2.166  18.779  0.00  0.00    +0.000 C 
ATOM     20  F   UNL     1       1.588   1.189  19.692  0.00  0.00    +0.000 F 
ATOM     21  F   UNL     1      -0.000   2.074  18.502  0.00  0.00    +0.000 F 
ATOM     22  F   UNL     1       1.974   1.793  17.638  0.00  0.00    +0.000 F 
ENDBRANCH  17  19
ENDBRANCH   1  13
BRANCH   2  23
ATOM     23  O   UNL     1       2.128   8.142  17.926  0.00  0.00    +0.000 OA
BRANCH  23  24
ATOM     24  C   UNL     1       2.100   9.570  17.925  0.00  0.00    +0.000 C 
BRANCH  24  25
ATOM     25  C   UNL     1       0.635  10.007  17.900  0.00  0.00    +0.000 C 
BRANCH  25  26
ATOM     26  C   UNL     1       0.133  10.426  19.258  0.00  0.00    +0.000 A 
ATOM     27  C   UNL     1       0.614   9.809  20.422  0.00  0.00    +0.000 A 
ATOM     28  C   UNL     1       0.105  10.167  21.673  0.00  0.00    +0.000 A 
ATOM     29  C   UNL     1      -0.884  11.144  21.765  0.00  0.00    +0.000 A 
ATOM     30 CL   UNL     1      -1.532  11.563  23.303  0.00  0.00    +0.000 Cl
ATOM     31  C   UNL     1      -1.360  11.775  20.620  0.00  0.00    +0.000 A 
ATOM     32  C   UNL     1      -0.852  11.418  19.368  0.00  0.00    +0.000 A 
ENDBRANCH  25  26
ENDBRANCH  24  25
ENDBRANCH  23  24
ENDBRANCH   2  23
TORSDOF 9
ENDMDL
MODEL 8
REMARK VINA RESULT:      -8.9      1.533      2.181
REMARK  Name = 
REMARK  9 active torsions:
REMARK  status: ('A' for Active; 'I' for Inactive)
REMARK    1  A    between atoms: C_2  and  O_3
REMARK    2  A    between atoms: C_2  and  C_4
REMARK    3  A    between atoms: C_8  and  C_9
REMARK    4  A    between atoms: C_9  and  C_21
REMARK    5  A    between atoms: N_10  and  O_11
REMARK    6  A    between atoms: O_11  and  C_12
REMARK    7  A    between atoms: C_12  and  C_13
REMARK    8  A    between atoms: C_13  and  C_14
REMARK    9  A    between atoms: C_25  and  C_26
REMARK                            x       y       z     vdW  Elec       q    Type
REMARK                         _______ _______ _______ _____ _____    ______ ____
ROOT
ATOM      1  C   UNL     1       3.645   6.558  17.776  0.00  0.00    +0.000 C 
ATOM      2  N   UNL     1       3.263   7.708  17.282  0.00  0.00    +0.000 NA
ENDROOT
BRANCH   1   7
ATOM      3  C   UNL     1       6.643   5.212  15.813  0.00  0.00    +0.000 A 
ATOM      4  C   UNL     1       7.571   5.008  16.839  0.00  0.00    +0.000 A 
ATOM      5  C   UNL     1       7.231   5.344  18.149  0.00  0.00    +0.000 A 
ATOM      6  C   UNL     1       5.965   5.868  18.432  0.00  0.00    +0.000 A 
ATOM      7  C   UNL     1       5.032   6.084  17.407  0.00  0.00    +0.000 A 
ATOM      8  C   UNL     1       5.399   5.796  16.086  0.00  0.00    +0.000 A 
BRANCH   3  10
ATOM      9  O   UNL     1       6.383   3.877  13.863  0.00  0.00    +0.000 OA
ATOM     10  C   UNL     1       6.933   4.812  14.412  0.00  0.00    +0.000 C 
BRANCH  10  11
ATOM     11  O   UNL     1       7.926   5.531  13.844  0.00  0.00    +0.000 OA
ATOM     12  H   UNL     1       8.323   6.217  14.407  0.00  0.00    +0.000 HD
ENDBRANCH  10  11
ENDBRANCH   3  10
ENDBRANCH   1   7
BRANCH   1  13
ATOM     13  C   UNL     1       2.818   5.712  18.710  0.00  0.00    +0.000 A 
ATOM     14  C   UNL     1       2.305   6.250  19.899  0.00  0.00    +0.000 A 
ATOM     15  C   UNL     1       1.559   5.455  20.771  0.00  0.00    +0.000 A 
ATOM     16  C   UNL     1       1.255   4.137  20.432  0.00  0.00    +0.000 A 
ATOM     17  C   UNL     1       1.721   3.591  19.230  0.00  0.00    +0.000 A 
ATOM     18  C   UNL     1       2.539   4.374  18.399  0.00  0.00    +0.000 A 
BRANCH  17  19
ATOM     19  C   UNL     1       1.336   2.201  18.791  0.00  0.00    +0.000 C 
ATOM     20  F   UNL     1       0.014   2.070  18.490  0.00  0.00    +0.000 F 
ATOM     21  F   UNL     1       2.011   1.806  17.675  0.00  0.00    +0.000 F 
ATOM     22  F   UNL     1       1.601   1.259  19.738  0.00  0.00    +0.000 F 
ENDBRANCH  17  19
ENDBRANCH   1  13
BRANCH   2  23
ATOM     23  O   UNL     1       2.034   8.145  17.796  0.00  0.00    +0.000 OA
BRANCH  23  24
ATOM     24  C   UNL     1       2.037   9.567  17.922  0.00  0.00    +0.000 C 
BRANCH  24  25
ATOM     25  C   UNL     1       0.586  10.044  17.861  0.00  0.00    +0.000 C 
BRANCH  25  26
ATOM     26  C   UNL     1       0.028  10.376  19.221  0.00  0.00    +0.000 A 
ATOM     27  C   UNL     1      -0.794  11.498  19.405  0.00  0.00    +0.000 A 
ATOM     28  C   UNL     1      -1.263  11.829  20.679  0.00  0.00    +0.000 A 
ATOM     29  C   UNL     1      -0.916  11.038  21.772  0.00  0.00    +0.000 A 
ATOM     30 CL   UNL     1      -1.470  11.462  23.345  0.00  0.00    +0.000 Cl
ATOM     31  C   UNL     1      -0.114   9.913  21.602  0.00  0.00    +0.000 A 
ATOM     32  C   UNL     1       0.356   9.582  20.329  0.00  0.00    +0.000 A 
ENDBRANCH  25  26
ENDBRANCH  24  25
ENDBRANCH  23  24
ENDBRANCH   2  23
TORSDOF 9
ENDMDL
MODEL 9
REMARK VINA RESULT:      -8.9      1.689      2.145
REMARK  Name = 
REMARK  9 active torsions:
REMARK  status: ('A' for Active; 'I' for Inactive)
REMARK    1  A    between atoms: C_2  and  O_3
REMARK    2  A    between atoms: C_2  and  C_4
REMARK    3  A    between atoms: C_8  and  C_9
REMARK    4  A    between atoms: C_9  and  C_21
REMARK    5  A    between atoms: N_10  and  O_11
REMARK    6  A    between atoms: O_11  and  C_12
REMARK    7  A    between atoms: C_12  and  C_13
REMARK    8  A    between atoms: C_13  and  C_14
REMARK    9  A    between atoms: C_25  and  C_26
REMARK                            x       y       z     vdW  Elec       q    Type
REMARK                         _______ _______ _______ _____ _____    ______ ____
ROOT
ATOM      1  C   UNL     1       3.607   6.112  17.876  0.00  0.00    +0.000 C 
ATOM      2  N   UNL     1       3.310   7.383  17.779  0.00  0.00    +0.000 NA
ENDROOT
BRANCH   1   7
ATOM      3  C   UNL     1       6.622   5.023  15.787  0.00  0.00    +0.000 A 
ATOM      4  C   UNL     1       7.558   4.738  16.786  0.00  0.00    +0.000 A 
ATOM      5  C   UNL     1       7.216   4.938  18.124  0.00  0.00    +0.000 A 
ATOM      6  C   UNL     1       5.941   5.407  18.458  0.00  0.00    +0.000 A 
ATOM      7  C   UNL     1       5.001   5.704  17.461  0.00  0.00    +0.000 A 
ATOM      8  C   UNL     1       5.369   5.553  16.118  0.00  0.00    +0.000 A 
BRANCH   3  10
ATOM      9  O   UNL     1       6.358   3.900  13.707  0.00  0.00    +0.000 OA
ATOM     10  C   UNL     1       6.916   4.767  14.352  0.00  0.00    +0.000 C 
BRANCH  10  11
ATOM     11  O   UNL     1       7.919   5.530  13.866  0.00  0.00    +0.000 OA
ATOM     12  H   UNL     1       8.422   5.142  13.129  0.00  0.00    +0.000 HD
ENDBRANCH  10  11
ENDBRANCH   3  10
ENDBRANCH   1   7
BRANCH   1  13
ATOM     13  C   UNL     1       2.674   5.055  18.410  0.00  0.00    +0.000 A 
ATOM     14  C   UNL     1       1.726   4.448  17.573  0.00  0.00    +0.000 A 
ATOM     15  C   UNL     1       0.849   3.486  18.078  0.00  0.00    +0.000 A 
ATOM     16  C   UNL     1       0.957   3.067  19.404  0.00  0.00    +0.000 A 
ATOM     17  C   UNL     1       1.924   3.628  20.247  0.00  0.00    +0.000 A 
ATOM     18  C   UNL     1       2.746   4.653  19.750  0.00  0.00    +0.000 A 
BRANCH  17  19
ATOM     19  C   UNL     1       2.127   3.133  21.657  0.00  0.00    +0.000 C 
ATOM     20  F   UNL     1       1.041   2.496  22.174  0.00  0.00    +0.000 F 
ATOM     21  F   UNL     1       3.157   2.246  21.748  0.00  0.00    +0.000 F 
ATOM     22  F   UNL     1       2.424   4.138  22.527  0.00  0.00    +0.000 F 
ENDBRANCH  17  19
ENDBRANCH   1  13
BRANCH   2  23
ATOM     23  O   UNL     1       2.059   7.698  18.328  0.00  0.00    +0.000 OA
BRANCH  23  24
ATOM     24  C   UNL     1       1.736   9.061  18.054  0.00  0.00    +0.000 C 
BRANCH  24  25
ATOM     25  C   UNL     1       1.005   9.622  19.274  0.00  0.00    +0.000 C 
BRANCH  25  26
ATOM     26  C   UNL     1       0.688  11.089  19.135  0.00  0.00    +0.000 A 
ATOM     27  C   UNL     1      -0.620  11.560  19.324  0.00  0.00    +0.000 A 
ATOM     28  C   UNL     1      -0.916  12.913  19.142  0.00  0.00    +0.000 A 
ATOM     29  C   UNL     1       0.093  13.800  18.773  0.00  0.00    +0.000 A 
ATOM     30 CL   UNL     1      -0.277  15.461  18.520  0.00  0.00    +0.000 Cl
ATOM     31  C   UNL     1       1.399  13.349  18.597  0.00  0.00    +0.000 A 
ATOM     32  C   UNL     1       1.695  11.995  18.779  0.00  0.00    +0.000 A 
ENDBRANCH  25  26
ENDBRANCH  24  25
ENDBRANCH  23  24
ENDBRANCH   2  23
TORSDOF 9
ENDMDL
