MODEL 1
REMARK VINA RESULT:      -6.9      0.000      0.000
REMARK  Name = 
REMARK  13 active torsions:
REMARK  status: ('A' for Active; 'I' for Inactive)
REMARK    1  A    between atoms: N_4  and  C_5
REMARK    2  A    between atoms: C_5  and  C_6
REMARK    3  A    between atoms: C_6  and  C_7
REMARK    4  A    between atoms: C_7  and  C_8
REMARK    5  A    between atoms: C_8  and  N_9
REMARK    6  A    between atoms: C_8  and  C_23
REMARK    7  A    between atoms: C_10  and  C_12
REMARK    8  A    between atoms: C_12  and  C_13
REMARK    9  A    between atoms: C_12  and  N_18
REMARK   10  A    between atoms: C_13  and  C_14
REMARK   11  A    between atoms: C_14  and  C_15
REMARK   12  A    between atoms: C_19  and  C_21
REMARK   13  A    between atoms: C_21  and  S_22
REMARK                            x       y       z     vdW  Elec       q    Type
REMARK                         _______ _______ _______ _____ _____    ______ ____
ROOT
ATOM      1  N   UNL     1       4.056   5.511  17.790  0.00  0.00    +0.000 N 
ATOM      2  C   UNL     1       4.821   6.235  16.905  0.00  0.00    +0.000 C 
ATOM      3  O   UNL     1       4.332   7.131  16.218  0.00  0.00    +0.000 OA
ATOM      4  H   UNL     1       4.560   5.050  18.538  0.00  0.00    +0.000 HD
ENDROOT
BRANCH   1   5
ATOM      5  C   UNL     1       2.644   5.829  18.053  0.00  0.00    +0.000 C 
BRANCH   5   6
ATOM      6  C   UNL     1       2.535   6.418  19.480  0.00  0.00    +0.000 C 
ATOM      7  N   UNL     1       3.011   5.609  20.474  0.00  0.00    +0.000 N 
ATOM      8  O   UNL     1       2.067   7.521  19.743  0.00  0.00    +0.000 OA
ATOM      9  H   UNL     1       3.339   4.666  20.278  0.00  0.00    +0.000 HD
ATOM     10  H   UNL     1       2.933   5.914  21.434  0.00  0.00    +0.000 HD
ENDBRANCH   5   6
BRANCH   5  11
ATOM     11  C   UNL     1       1.822   4.550  17.867  0.00  0.00    +0.000 C 
BRANCH  11  12
ATOM     12  C   UNL     1       2.541   3.436  17.101  0.00  0.00    +0.000 C 
BRANCH  12  13
ATOM     13  C   UNL     1       2.568   2.166  17.952  0.00  0.00    +0.000 C 
BRANCH  13  17
ATOM     14  N   UNL     1       3.159   2.677  20.718  0.00  0.00    +0.000 NA
ATOM     15  C   UNL     1       4.017   2.146  19.927  0.00  0.00    +0.000 C 
ATOM     16  N   UNL     1       5.200   1.654  20.346  0.00  0.00    +0.000 N 
ATOM     17  N   UNL     1       3.863   2.004  18.591  0.00  0.00    +0.000 N 
ATOM     18  H   UNL     1       3.506   2.636  21.676  0.00  0.00    +0.000 HD
ATOM     19  H   UNL     1       5.478   1.953  21.271  0.00  0.00    +0.000 HD
ATOM     20  H   UNL     1       5.950   1.794  19.681  0.00  0.00    +0.000 HD
ATOM     21  H   UNL     1       4.407   1.251  18.191  0.00  0.00    +0.000 HD
ENDBRANCH  13  17
ENDBRANCH  12  13
ENDBRANCH  11  12
ENDBRANCH   5  11
ENDBRANCH   1   5
BRANCH   2  22
ATOM     22  C   UNL     1       6.323   5.839  16.811  0.00  0.00    +0.000 C 
BRANCH  22  23
ATOM     23  N   UNL     1       6.787   5.750  15.418  0.00  0.00    +0.000 N 
ATOM     24  C   UNL     1       6.663   4.580  14.698  0.00  0.00    +0.000 C 
ATOM     25  O   UNL     1       6.156   3.566  15.168  0.00  0.00    +0.000 OA
ATOM     26  H   UNL     1       7.063   6.603  14.943  0.00  0.00    +0.000 HD
BRANCH  24  27
ATOM     27  C   UNL     1       7.099   4.673  13.249  0.00  0.00    +0.000 C 
BRANCH  27  28
ATOM     28  S   UNL     1       6.233   3.390  12.299  0.00  0.00    +0.000 S 
ATOM     29  H   UNL     1       7.278   2.549  12.202  0.00  0.00    +0.000 HD
ENDBRANCH  27  28
ENDBRANCH  24  27
ENDBRANCH  22  23
BRANCH  22  30
ATOM     30  C   UNL     1       7.237   6.792  17.598  0.00  0.00    +0.000 C 
BRANCH  30  31
ATOM     31  C   UNL     1       8.199   6.076  18.548  0.00  0.00    +0.000 C 
BRANCH  31  32
ATOM     32  C   UNL     1       7.510   5.498  19.764  0.00  0.00    +0.000 C 
ATOM     33  N   UNL     1       8.363   5.230  20.796  0.00  0.00    +0.000 N 
ATOM     34  O   UNL     1       6.309   5.283  19.850  0.00  0.00    +0.000 OA
ATOM     35  H   UNL     1       9.369   5.279  20.699  0.00  0.00    +0.000 HD
ATOM     36  H   UNL     1       7.981   4.792  21.626  0.00  0.00    +0.000 HD
ENDBRANCH  31  32
ENDBRANCH  30  31
ENDBRANCH  22  30
ENDBRANCH   2  22
TORSDOF 13
ENDMDL
MODEL 2
REMARK VINA RESULT:      -6.8      1.615      1.931
REMARK  Name = 
REMARK  13 active torsions:
REMARK  status: ('A' for Active; 'I' for Inactive)
REMARK    1  A    between atoms: N_4  and  C_5
REMARK    2  A    between atoms: C_5  and  C_6
REMARK    3  A    between atoms: C_6  and  C_7
REMARK    4  A    between atoms: C_7  and  C_8
REMARK    5  A    between atoms: C_8  and  N_9
REMARK    6  A    between atoms: C_8  and  C_23
REMARK    7  A    between atoms: C_10  and  C_12
REMARK    8  A    between atoms: C_12  and  C_13
REMARK    9  A    between atoms: C_12  and  N_18
REMARK   10  A    between atoms: C_13  and  C_14
REMARK   11  A    between atoms: C_14  and  C_15
REMARK   12  A    between atoms: C_19  and  C_21
REMARK   13  A    between atoms: C_21  and  S_22
REMARK                            x       y       z     vdW  Elec       q    Type
REMARK                         _______ _______ _______ _____ _____    ______ ____
ROOT
ATOM      1  N   UNL     1       3.513   6.151  18.720  0.00  0.00    +0.000 N 
ATOM      2  C   UNL     1       3.764   5.313  17.658  0.00  0.00    +0.000 C 
ATOM      3  O   UNL     1       2.932   4.488  17.281  0.00  0.00    +0.000 OA
ATOM      4  H   UNL     1       4.067   6.999  18.755  0.00  0.00    +0.000 HD
ENDROOT
BRANCH   1   5
ATOM      5  C   UNL     1       2.207   6.196  19.396  0.00  0.00    +0.000 C 
BRANCH   5   6
ATOM      6  C   UNL     1       1.970   7.639  19.901  0.00  0.00    +0.000 C 
ATOM      7  N   UNL     1       1.866   7.763  21.259  0.00  0.00    +0.000 N 
ATOM      8  O   UNL     1       1.876   8.624  19.176  0.00  0.00    +0.000 OA
ATOM      9  H   UNL     1       1.874   6.948  21.868  0.00  0.00    +0.000 HD
ATOM     10  H   UNL     1       1.669   8.671  21.656  0.00  0.00    +0.000 HD
ENDBRANCH   5   6
BRANCH   5  11
ATOM     11  C   UNL     1       2.216   5.159  20.522  0.00  0.00    +0.000 C 
BRANCH  11  12
ATOM     12  C   UNL     1       1.048   4.169  20.489  0.00  0.00    +0.000 C 
BRANCH  12  13
ATOM     13  C   UNL     1       1.573   2.769  20.174  0.00  0.00    +0.000 C 
BRANCH  13  17
ATOM     14  N   UNL     1       3.352   1.374  18.398  0.00  0.00    +0.000 NA
ATOM     15  C   UNL     1       3.785   2.151  19.320  0.00  0.00    +0.000 C 
ATOM     16  N   UNL     1       5.082   2.493  19.446  0.00  0.00    +0.000 N 
ATOM     17  N   UNL     1       3.022   2.728  20.276  0.00  0.00    +0.000 N 
ATOM     18  H   UNL     1       4.124   1.098  17.791  0.00  0.00    +0.000 HD
ATOM     19  H   UNL     1       5.726   1.907  18.932  0.00  0.00    +0.000 HD
ATOM     20  H   UNL     1       5.378   2.595  20.409  0.00  0.00    +0.000 HD
ATOM     21  H   UNL     1       3.412   3.580  20.657  0.00  0.00    +0.000 HD
ENDBRANCH  13  17
ENDBRANCH  12  13
ENDBRANCH  11  12
ENDBRANCH   5  11
ENDBRANCH   1   5
BRANCH   2  22
ATOM     22  C   UNL     1       5.160   5.454  16.985  0.00  0.00    +0.000 C 
BRANCH  22  23
ATOM     23  N   UNL     1       5.098   5.256  15.530  0.00  0.00    +0.000 N 
ATOM     24  C   UNL     1       5.680   4.156  14.934  0.00  0.00    +0.000 C 
ATOM     25  O   UNL     1       6.266   3.290  15.576  0.00  0.00    +0.000 OA
ATOM     26  H   UNL     1       4.491   5.858  14.983  0.00  0.00    +0.000 HD
BRANCH  24  27
ATOM     27  C   UNL     1       5.450   4.042  13.440  0.00  0.00    +0.000 C 
BRANCH  27  28
ATOM     28  S   UNL     1       7.057   4.114  12.597  0.00  0.00    +0.000 S 
ATOM     29  H   UNL     1       7.669   4.881  13.517  0.00  0.00    +0.000 HD
ENDBRANCH  27  28
ENDBRANCH  24  27
ENDBRANCH  22  23
BRANCH  22  30
ATOM     30  C   UNL     1       5.831   6.804  17.293  0.00  0.00    +0.000 C 
BRANCH  30  31
ATOM     31  C   UNL     1       7.264   6.672  17.809  0.00  0.00    +0.000 C 
BRANCH  31  32
ATOM     32  C   UNL     1       7.481   5.431  18.646  0.00  0.00    +0.000 C 
ATOM     33  N   UNL     1       7.997   4.382  17.939  0.00  0.00    +0.000 N 
ATOM     34  O   UNL     1       7.233   5.341  19.840  0.00  0.00    +0.000 OA
ATOM     35  H   UNL     1       8.087   4.396  16.931  0.00  0.00    +0.000 HD
ATOM     36  H   UNL     1       8.120   3.499  18.421  0.00  0.00    +0.000 HD
ENDBRANCH  31  32
ENDBRANCH  30  31
ENDBRANCH  22  30
ENDBRANCH   2  22
TORSDOF 13
ENDMDL
MODEL 3
REMARK VINA RESULT:      -6.8      1.072      1.309
REMARK  Name = 
REMARK  13 active torsions:
REMARK  status: ('A' for Active; 'I' for Inactive)
REMARK    1  A    between atoms: N_4  and  C_5
REMARK    2  A    between atoms: C_5  and  C_6
REMARK    3  A    between atoms: C_6  and  C_7
REMARK    4  A    between atoms: C_7  and  C_8
REMARK    5  A    between atoms: C_8  and  N_9
REMARK    6  A    between atoms: C_8  and  C_23
REMARK    7  A    between atoms: C_10  and  C_12
REMARK    8  A    between atoms: C_12  and  C_13
REMARK    9  A    between atoms: C_12  and  N_18
REMARK   10  A    between atoms: C_13  and  C_14
REMARK   11  A    between atoms: C_14  and  C_15
REMARK   12  A    between atoms: C_19  and  C_21
REMARK   13  A    between atoms: C_21  and  S_22
REMARK                            x       y       z     vdW  Elec       q    Type
REMARK                         _______ _______ _______ _____ _____    ______ ____
ROOT
ATOM      1  N   UNL     1       3.653   5.383  17.671  0.00  0.00    +0.000 N 
ATOM      2  C   UNL     1       4.393   6.431  17.173  0.00  0.00    +0.000 C 
ATOM      3  O   UNL     1       3.911   7.556  17.050  0.00  0.00    +0.000 OA
ATOM      4  H   UNL     1       4.182   4.609  18.054  0.00  0.00    +0.000 HD
ENDROOT
BRANCH   1   5
ATOM      5  C   UNL     1       2.288   5.561  18.189  0.00  0.00    +0.000 C 
BRANCH   5   6
ATOM      6  C   UNL     1       2.380   5.921  19.691  0.00  0.00    +0.000 C 
ATOM      7  N   UNL     1       3.536   5.527  20.307  0.00  0.00    +0.000 N 
ATOM      8  O   UNL     1       1.509   6.512  20.320  0.00  0.00    +0.000 OA
ATOM      9  H   UNL     1       4.237   4.977  19.816  0.00  0.00    +0.000 HD
ATOM     10  H   UNL     1       3.646   5.694  21.297  0.00  0.00    +0.000 HD
ENDBRANCH   5   6
BRANCH   5  11
ATOM     11  C   UNL     1       1.505   4.271  17.928  0.00  0.00    +0.000 C 
BRANCH  11  12
ATOM     12  C   UNL     1       0.974   3.580  19.187  0.00  0.00    +0.000 C 
BRANCH  12  13
ATOM     13  C   UNL     1       1.597   2.189  19.308  0.00  0.00    +0.000 C 
BRANCH  13  17
ATOM     14  N   UNL     1       4.060   1.508  17.991  0.00  0.00    +0.000 NA
ATOM     15  C   UNL     1       4.038   2.051  19.151  0.00  0.00    +0.000 C 
ATOM     16  N   UNL     1       5.148   2.477  19.786  0.00  0.00    +0.000 N 
ATOM     17  N   UNL     1       2.927   2.271  19.889  0.00  0.00    +0.000 N 
ATOM     18  H   UNL     1       5.017   1.485  17.641  0.00  0.00    +0.000 HD
ATOM     19  H   UNL     1       6.015   2.118  19.409  0.00  0.00    +0.000 HD
ATOM     20  H   UNL     1       5.111   2.347  20.789  0.00  0.00    +0.000 HD
ATOM     21  H   UNL     1       3.017   3.024  20.557  0.00  0.00    +0.000 HD
ENDBRANCH  13  17
ENDBRANCH  12  13
ENDBRANCH  11  12
ENDBRANCH   5  11
ENDBRANCH   1   5
BRANCH   2  22
ATOM     22  C   UNL     1       5.856   6.101  16.755  0.00  0.00    +0.000 C 
BRANCH  22  23
ATOM     23  N   UNL     1       5.981   5.866  15.309  0.00  0.00    +0.000 N 
ATOM     24  C   UNL     1       7.000   5.089  14.798  0.00  0.00    +0.000 C 
ATOM     25  O   UNL     1       7.841   4.550  15.511  0.00  0.00    +0.000 OA
ATOM     26  H   UNL     1       5.222   6.157  14.703  0.00  0.00    +0.000 HD
BRANCH  24  27
ATOM     27  C   UNL     1       6.940   4.861  13.301  0.00  0.00    +0.000 C 
BRANCH  27  28
ATOM     28  S   UNL     1       5.756   3.526  12.964  0.00  0.00    +0.000 S 
ATOM     29  H   UNL     1       4.787   4.313  12.463  0.00  0.00    +0.000 HD
ENDBRANCH  27  28
ENDBRANCH  24  27
ENDBRANCH  22  23
BRANCH  22  30
ATOM     30  C   UNL     1       6.854   7.189  17.188  0.00  0.00    +0.000 C 
BRANCH  30  31
ATOM     31  C   UNL     1       7.762   6.764  18.343  0.00  0.00    +0.000 C 
BRANCH  31  32
ATOM     32  C   UNL     1       7.370   5.433  18.945  0.00  0.00    +0.000 C 
ATOM     33  N   UNL     1       7.925   4.361  18.304  0.00  0.00    +0.000 N 
ATOM     34  O   UNL     1       6.634   5.293  19.912  0.00  0.00    +0.000 OA
ATOM     35  H   UNL     1       8.428   4.449  17.431  0.00  0.00    +0.000 HD
ATOM     36  H   UNL     1       7.666   3.434  18.619  0.00  0.00    +0.000 HD
ENDBRANCH  31  32
ENDBRANCH  30  31
ENDBRANCH  22  30
ENDBRANCH   2  22
TORSDOF 13
ENDMDL
MODEL 4
REMARK VINA RESULT:      -6.8      1.258      1.425
REMARK  Name = 
REMARK  13 active torsions:
REMARK  status: ('A' for Active; 'I' for Inactive)
REMARK    1  A    between atoms: N_4  and  C_5
REMARK    2  A    between atoms: C_5  and  C_6
REMARK    3  A    between atoms: C_6  and  C_7
REMARK    4  A    between atoms: C_7  and  C_8
REMARK    5  A    between atoms: C_8  and  N_9
REMARK    6  A    between atoms: C_8  and  C_23
REMARK    7  A    between atoms: C_10  and  C_12
REMARK    8  A    between atoms: C_12  and  C_13
REMARK    9  A    between atoms: C_12  and  N_18
REMARK   10  A    between atoms: C_13  and  C_14
REMARK   11  A    between atoms: C_14  and  C_15
REMARK   12  A    between atoms: C_19  and  C_21
REMARK   13  A    between atoms: C_21  and  S_22
REMARK                            x       y       z     vdW  Elec       q    Type
REMARK                         _______ _______ _______ _____ _____    ______ ____
ROOT
ATOM      1  N   UNL     1       3.833   5.498  17.523  0.00  0.00    +0.000 N 
ATOM      2  C   UNL     1       4.608   6.528  17.042  0.00  0.00    +0.000 C 
ATOM      3  O   UNL     1       4.127   7.636  16.802  0.00  0.00    +0.000 OA
ATOM      4  H   UNL     1       4.329   4.758  18.005  0.00  0.00    +0.000 HD
ENDROOT
BRANCH   1   5
ATOM      5  C   UNL     1       2.419   5.681  17.886  0.00  0.00    +0.000 C 
BRANCH   5   6
ATOM      6  C   UNL     1       2.353   6.184  19.348  0.00  0.00    +0.000 C 
ATOM      7  N   UNL     1       2.194   7.536  19.484  0.00  0.00    +0.000 N 
ATOM      8  O   UNL     1       2.432   5.463  20.337  0.00  0.00    +0.000 OA
ATOM      9  H   UNL     1       2.195   8.153  18.676  0.00  0.00    +0.000 HD
ATOM     10  H   UNL     1       2.184   7.938  20.411  0.00  0.00    +0.000 HD
ENDBRANCH   5   6
BRANCH   5  11
ATOM     11  C   UNL     1       1.696   4.348  17.677  0.00  0.00    +0.000 C 
BRANCH  11  12
ATOM     12  C   UNL     1       2.621   3.138  17.516  0.00  0.00    +0.000 C 
BRANCH  12  13
ATOM     13  C   UNL     1       2.214   2.048  18.508  0.00  0.00    +0.000 C 
BRANCH  13  17
ATOM     14  N   UNL     1       0.548   2.944  20.671  0.00  0.00    +0.000 NA
ATOM     15  C   UNL     1       1.788   2.670  20.838  0.00  0.00    +0.000 C 
ATOM     16  N   UNL     1       2.379   2.638  22.049  0.00  0.00    +0.000 N 
ATOM     17  N   UNL     1       2.663   2.380  19.849  0.00  0.00    +0.000 N 
ATOM     18  H   UNL     1       0.106   3.097  21.578  0.00  0.00    +0.000 HD
ATOM     19  H   UNL     1       1.854   3.085  22.788  0.00  0.00    +0.000 HD
ATOM     20  H   UNL     1       3.336   2.968  22.037  0.00  0.00    +0.000 HD
ATOM     21  H   UNL     1       3.454   1.824  20.147  0.00  0.00    +0.000 HD
ENDBRANCH  13  17
ENDBRANCH  12  13
ENDBRANCH  11  12
ENDBRANCH   5  11
ENDBRANCH   1   5
BRANCH   2  22
ATOM     22  C   UNL     1       6.110   6.202  16.798  0.00  0.00    +0.000 C 
BRANCH  22  23
ATOM     23  N   UNL     1       6.411   6.001  15.373  0.00  0.00    +0.000 N 
ATOM     24  C   UNL     1       6.577   4.735  14.850  0.00  0.00    +0.000 C 
ATOM     25  O   UNL     1       6.475   3.721  15.533  0.00  0.00    +0.000 OA
ATOM     26  H   UNL     1       6.345   6.796  14.746  0.00  0.00    +0.000 HD
BRANCH  24  27
ATOM     27  C   UNL     1       6.787   4.686  13.350  0.00  0.00    +0.000 C 
BRANCH  27  28
ATOM     28  S   UNL     1       5.784   3.334  12.667  0.00  0.00    +0.000 S 
ATOM     29  H   UNL     1       4.591   3.921  12.870  0.00  0.00    +0.000 HD
ENDBRANCH  27  28
ENDBRANCH  24  27
ENDBRANCH  22  23
BRANCH  22  30
ATOM     30  C   UNL     1       7.050   7.275  17.376  0.00  0.00    +0.000 C 
BRANCH  30  31
ATOM     31  C   UNL     1       7.994   6.745  18.456  0.00  0.00    +0.000 C 
BRANCH  31  32
ATOM     32  C   UNL     1       7.595   5.382  18.975  0.00  0.00    +0.000 C 
ATOM     33  N   UNL     1       8.014   4.353  18.179  0.00  0.00    +0.000 N 
ATOM     34  O   UNL     1       6.963   5.183  20.003  0.00  0.00    +0.000 OA
ATOM     35  H   UNL     1       8.422   4.503  17.265  0.00  0.00    +0.000 HD
ATOM     36  H   UNL     1       7.738   3.412  18.435  0.00  0.00    +0.000 HD
ENDBRANCH  31  32
ENDBRANCH  30  31
ENDBRANCH  22  30
ENDBRANCH   2  22
TORSDOF 13
ENDMDL
MODEL 5
REMARK VINA RESULT:      -6.7      1.134      1.143
REMARK  Name = 
REMARK  13 active torsions:
REMARK  status: ('A' for Active; 'I' for Inactive)
REMARK    1  A    between atoms: N_4  and  C_5
REMARK    2  A    between atoms: C_5  and  C_6
REMARK    3  A    between atoms: C_6  and  C_7
REMARK    4  A    between atoms: C_7  and  C_8
REMARK    5  A    between atoms: C_8  and  N_9
REMARK    6  A    between atoms: C_8  and  C_23
REMARK    7  A    between atoms: C_10  and  C_12
REMARK    8  A    between atoms: C_12  and  C_13
REMARK    9  A    between atoms: C_12  and  N_18
REMARK   10  A    between atoms: C_13  and  C_14
REMARK   11  A    between atoms: C_14  and  C_15
REMARK   12  A    between atoms: C_19  and  C_21
REMARK   13  A    between atoms: C_21  and  S_22
REMARK                            x       y       z     vdW  Elec       q    Type
REMARK                         _______ _______ _______ _____ _____    ______ ____
ROOT
ATOM      1  N   UNL     1       3.714   5.473  17.921  0.00  0.00    +0.000 N 
ATOM      2  C   UNL     1       4.472   6.481  17.370  0.00  0.00    +0.000 C 
ATOM      3  O   UNL     1       3.977   7.568  17.075  0.00  0.00    +0.000 OA
ATOM      4  H   UNL     1       4.224   4.766  18.437  0.00  0.00    +0.000 HD
ENDROOT
BRANCH   1   5
ATOM      5  C   UNL     1       2.303   5.664  18.294  0.00  0.00    +0.000 C 
BRANCH   5   6
ATOM      6  C   UNL     1       2.228   5.869  19.826  0.00  0.00    +0.000 C 
ATOM      7  N   UNL     1       2.424   7.156  20.244  0.00  0.00    +0.000 N 
ATOM      8  O   UNL     1       2.012   4.976  20.638  0.00  0.00    +0.000 OA
ATOM      9  H   UNL     1       2.672   7.894  19.589  0.00  0.00    +0.000 HD
ATOM     10  H   UNL     1       2.429   7.355  21.234  0.00  0.00    +0.000 HD
ENDBRANCH   5   6
BRANCH   5  11
ATOM     11  C   UNL     1       1.512   4.445  17.812  0.00  0.00    +0.000 C 
BRANCH  11  12
ATOM     12  C   UNL     1       2.361   3.352  17.155  0.00  0.00    +0.000 C 
BRANCH  12  13
ATOM     13  C   UNL     1       2.431   2.136  18.078  0.00  0.00    +0.000 C 
BRANCH  13  17
ATOM     14  N   UNL     1       3.271   2.482  20.805  0.00  0.00    +0.000 NA
ATOM     15  C   UNL     1       4.056   2.014  19.907  0.00  0.00    +0.000 C 
ATOM     16  N   UNL     1       5.277   1.514  20.184  0.00  0.00    +0.000 N 
ATOM     17  N   UNL     1       3.781   1.953  18.585  0.00  0.00    +0.000 N 
ATOM     18  H   UNL     1       3.704   2.386  21.724  0.00  0.00    +0.000 HD
ATOM     19  H   UNL     1       5.637   1.759  21.097  0.00  0.00    +0.000 HD
ATOM     20  H   UNL     1       5.961   1.706  19.463  0.00  0.00    +0.000 HD
ATOM     21  H   UNL     1       4.292   1.235  18.090  0.00  0.00    +0.000 HD
ENDBRANCH  13  17
ENDBRANCH  12  13
ENDBRANCH  11  12
ENDBRANCH   5  11
ENDBRANCH   1   5
BRANCH   2  22
ATOM     22  C   UNL     1       5.974   6.154  17.123  0.00  0.00    +0.000 C 
BRANCH  22  23
ATOM     23  N   UNL     1       6.220   5.674  15.756  0.00  0.00    +0.000 N 
ATOM     24  C   UNL     1       5.989   4.359  15.410  0.00  0.00    +0.000 C 
ATOM     25  O   UNL     1       5.562   3.531  16.208  0.00  0.00    +0.000 OA
ATOM     26  H   UNL     1       6.418   6.354  15.031  0.00  0.00    +0.000 HD
BRANCH  24  27
ATOM     27  C   UNL     1       6.198   4.038  13.943  0.00  0.00    +0.000 C 
BRANCH  27  28
ATOM     28  S   UNL     1       7.609   5.006  13.333  0.00  0.00    +0.000 S 
ATOM     29  H   UNL     1       6.922   6.142  13.113  0.00  0.00    +0.000 HD
ENDBRANCH  27  28
ENDBRANCH  24  27
ENDBRANCH  22  23
BRANCH  22  30
ATOM     30  C   UNL     1       6.896   7.349  17.423  0.00  0.00    +0.000 C 
BRANCH  30  31
ATOM     31  C   UNL     1       8.062   7.006  18.351  0.00  0.00    +0.000 C 
BRANCH  31  32
ATOM     32  C   UNL     1       7.994   5.594  18.890  0.00  0.00    +0.000 C 
ATOM     33  N   UNL     1       7.793   5.537  20.241  0.00  0.00    +0.000 N 
ATOM     34  O   UNL     1       8.100   4.581  18.213  0.00  0.00    +0.000 OA
ATOM     35  H   UNL     1       7.832   6.357  20.833  0.00  0.00    +0.000 HD
ATOM     36  H   UNL     1       7.789   4.625  20.682  0.00  0.00    +0.000 HD
ENDBRANCH  31  32
ENDBRANCH  30  31
ENDBRANCH  22  30
ENDBRANCH   2  22
TORSDOF 13
ENDMDL
MODEL 6
REMARK VINA RESULT:      -6.7      3.213      6.212
REMARK  Name = 
REMARK  13 active torsions:
REMARK  status: ('A' for Active; 'I' for Inactive)
REMARK    1  A    between atoms: N_4  and  C_5
REMARK    2  A    between atoms: C_5  and  C_6
REMARK    3  A    between atoms: C_6  and  C_7
REMARK    4  A    between atoms: C_7  and  C_8
REMARK    5  A    between atoms: C_8  and  N_9
REMARK    6  A    between atoms: C_8  and  C_23
REMARK    7  A    between atoms: C_10  and  C_12
REMARK    8  A    between atoms: C_12  and  C_13
REMARK    9  A    between atoms: C_12  and  N_18
REMARK   10  A    between atoms: C_13  and  C_14
REMARK   11  A    between atoms: C_14  and  C_15
REMARK   12  A    between atoms: C_19  and  C_21
REMARK   13  A    between atoms: C_21  and  S_22
REMARK                            x       y       z     vdW  Elec       q    Type
REMARK                         _______ _______ _______ _____ _____    ______ ____
ROOT
ATOM      1  N   UNL     1       5.543   5.480  17.553  0.00  0.00    +0.000 N 
ATOM      2  C   UNL     1       5.031   5.403  18.827  0.00  0.00    +0.000 C 
ATOM      3  O   UNL     1       5.762   5.247  19.805  0.00  0.00    +0.000 OA
ATOM      4  H   UNL     1       4.955   5.935  16.865  0.00  0.00    +0.000 HD
ENDROOT
BRANCH   1   5
ATOM      5  C   UNL     1       6.990   5.494  17.285  0.00  0.00    +0.000 C 
BRANCH   5   6
ATOM      6  C   UNL     1       7.544   6.883  17.678  0.00  0.00    +0.000 C 
ATOM      7  N   UNL     1       8.250   6.912  18.849  0.00  0.00    +0.000 N 
ATOM      8  O   UNL     1       7.388   7.907  17.019  0.00  0.00    +0.000 OA
ATOM      9  H   UNL     1       8.331   6.087  19.439  0.00  0.00    +0.000 HD
ATOM     10  H   UNL     1       8.606   7.795  19.186  0.00  0.00    +0.000 HD
ENDBRANCH   5   6
BRANCH   5  11
ATOM     11  C   UNL     1       7.207   5.155  15.808  0.00  0.00    +0.000 C 
BRANCH  11  12
ATOM     12  C   UNL     1       6.263   4.085  15.253  0.00  0.00    +0.000 C 
BRANCH  12  13
ATOM     13  C   UNL     1       6.122   4.261  13.741  0.00  0.00    +0.000 C 
BRANCH  13  17
ATOM     14  N   UNL     1       4.501   3.299  11.571  0.00  0.00    +0.000 NA
ATOM     15  C   UNL     1       5.549   2.675  11.964  0.00  0.00    +0.000 C 
ATOM     16  N   UNL     1       6.060   1.610  11.314  0.00  0.00    +0.000 N 
ATOM     17  N   UNL     1       6.279   2.987  13.059  0.00  0.00    +0.000 N 
ATOM     18  H   UNL     1       4.158   2.882  10.706  0.00  0.00    +0.000 HD
ATOM     19  H   UNL     1       5.432   1.180  10.649  0.00  0.00    +0.000 HD
ATOM     20  H   UNL     1       6.460   0.917  11.934  0.00  0.00    +0.000 HD
ATOM     21  H   UNL     1       7.242   2.682  13.014  0.00  0.00    +0.000 HD
ENDBRANCH  13  17
ENDBRANCH  12  13
ENDBRANCH  11  12
ENDBRANCH   5  11
ENDBRANCH   1   5
BRANCH   2  22
ATOM     22  C   UNL     1       3.482   5.500  18.953  0.00  0.00    +0.000 C 
BRANCH  22  23
ATOM     23  N   UNL     1       2.930   6.612  18.165  0.00  0.00    +0.000 N 
ATOM     24  C   UNL     1       2.249   7.647  18.771  0.00  0.00    +0.000 C 
ATOM     25  O   UNL     1       2.078   7.703  19.985  0.00  0.00    +0.000 OA
ATOM     26  H   UNL     1       3.185   6.687  17.186  0.00  0.00    +0.000 HD
BRANCH  24  27
ATOM     27  C   UNL     1       1.824   8.765  17.839  0.00  0.00    +0.000 C 
BRANCH  27  28
ATOM     28  S   UNL     1       1.040  10.075  18.824  0.00  0.00    +0.000 S 
ATOM     29  H   UNL     1       1.006  10.994  17.843  0.00  0.00    +0.000 HD
ENDBRANCH  27  28
ENDBRANCH  24  27
ENDBRANCH  22  23
BRANCH  22  30
ATOM     30  C   UNL     1       2.774   4.191  18.563  0.00  0.00    +0.000 C 
BRANCH  30  31
ATOM     31  C   UNL     1       2.792   3.133  19.667  0.00  0.00    +0.000 C 
BRANCH  31  32
ATOM     32  C   UNL     1       3.883   2.102  19.481  0.00  0.00    +0.000 C 
ATOM     33  N   UNL     1       3.655   1.253  18.435  0.00  0.00    +0.000 N 
ATOM     34  O   UNL     1       4.884   2.011  20.177  0.00  0.00    +0.000 OA
ATOM     35  H   UNL     1       2.777   1.230  17.932  0.00  0.00    +0.000 HD
ATOM     36  H   UNL     1       4.318   0.501  18.281  0.00  0.00    +0.000 HD
ENDBRANCH  31  32
ENDBRANCH  30  31
ENDBRANCH  22  30
ENDBRANCH   2  22
TORSDOF 13
ENDMDL
MODEL 7
REMARK VINA RESULT:      -6.6      3.306      6.344
REMARK  Name = 
REMARK  13 active torsions:
REMARK  status: ('A' for Active; 'I' for Inactive)
REMARK    1  A    between atoms: N_4  and  C_5
REMARK    2  A    between atoms: C_5  and  C_6
REMARK    3  A    between atoms: C_6  and  C_7
REMARK    4  A    between atoms: C_7  and  C_8
REMARK    5  A    between atoms: C_8  and  N_9
REMARK    6  A    between atoms: C_8  and  C_23
REMARK    7  A    between atoms: C_10  and  C_12
REMARK    8  A    between atoms: C_12  and  C_13
REMARK    9  A    between atoms: C_12  and  N_18
REMARK   10  A    between atoms: C_13  and  C_14
REMARK   11  A    between atoms: C_14  and  C_15
REMARK   12  A    between atoms: C_19  and  C_21
REMARK   13  A    between atoms: C_21  and  S_22
REMARK                            x       y       z     vdW  Elec       q    Type
REMARK                         _______ _______ _______ _____ _____    ______ ____
ROOT
ATOM      1  N   UNL     1       5.433   5.870  17.606  0.00  0.00    +0.000 N 
ATOM      2  C   UNL     1       4.536   5.318  18.491  0.00  0.00    +0.000 C 
ATOM      3  O   UNL     1       4.899   4.534  19.368  0.00  0.00    +0.000 OA
ATOM      4  H   UNL     1       5.140   6.730  17.157  0.00  0.00    +0.000 HD
ENDROOT
BRANCH   1   5
ATOM      5  C   UNL     1       6.884   5.654  17.718  0.00  0.00    +0.000 C 
BRANCH   5   6
ATOM      6  C   UNL     1       7.578   7.034  17.795  0.00  0.00    +0.000 C 
ATOM      7  N   UNL     1       8.401   7.205  18.874  0.00  0.00    +0.000 N 
ATOM      8  O   UNL     1       7.432   7.934  16.974  0.00  0.00    +0.000 OA
ATOM      9  H   UNL     1       8.479   6.495  19.598  0.00  0.00    +0.000 HD
ATOM     10  H   UNL     1       8.854   8.098  19.009  0.00  0.00    +0.000 HD
ENDBRANCH   5   6
BRANCH   5  11
ATOM     11  C   UNL     1       7.337   4.820  16.516  0.00  0.00    +0.000 C 
BRANCH  11  12
ATOM     12  C   UNL     1       6.552   5.080  15.227  0.00  0.00    +0.000 C 
BRANCH  12  13
ATOM     13  C   UNL     1       6.232   3.749  14.546  0.00  0.00    +0.000 C 
BRANCH  13  17
ATOM     14  N   UNL     1       6.496   2.503  11.969  0.00  0.00    +0.000 NA
ATOM     15  C   UNL     1       5.482   3.225  12.274  0.00  0.00    +0.000 C 
ATOM     16  N   UNL     1       4.399   3.346  11.481  0.00  0.00    +0.000 N 
ATOM     17  N   UNL     1       5.354   3.953  13.406  0.00  0.00    +0.000 N 
ATOM     18  H   UNL     1       6.330   2.037  11.077  0.00  0.00    +0.000 HD
ATOM     19  H   UNL     1       4.537   3.039  10.527  0.00  0.00    +0.000 HD
ATOM     20  H   UNL     1       3.984   4.269  11.506  0.00  0.00    +0.000 HD
ATOM     21  H   UNL     1       4.396   4.132  13.676  0.00  0.00    +0.000 HD
ENDBRANCH  13  17
ENDBRANCH  12  13
ENDBRANCH  11  12
ENDBRANCH   5  11
ENDBRANCH   1   5
BRANCH   2  22
ATOM     22  C   UNL     1       3.045   5.721  18.301  0.00  0.00    +0.000 C 
BRANCH  22  23
ATOM     23  N   UNL     1       2.125   4.750  18.910  0.00  0.00    +0.000 N 
ATOM     24  C   UNL     1       1.671   3.657  18.203  0.00  0.00    +0.000 C 
ATOM     25  O   UNL     1       2.011   3.431  17.046  0.00  0.00    +0.000 OA
ATOM     26  H   UNL     1       1.946   4.810  19.907  0.00  0.00    +0.000 HD
BRANCH  24  27
ATOM     27  C   UNL     1       0.805   2.697  18.996  0.00  0.00    +0.000 C 
BRANCH  27  28
ATOM     28  S   UNL     1       1.248   2.833  20.753  0.00  0.00    +0.000 S 
ATOM     29  H   UNL     1       0.727   1.651  21.126  0.00  0.00    +0.000 HD
ENDBRANCH  27  28
ENDBRANCH  24  27
ENDBRANCH  22  23
BRANCH  22  30
ATOM     30  C   UNL     1       2.740   7.129  18.841  0.00  0.00    +0.000 C 
BRANCH  30  31
ATOM     31  C   UNL     1       2.125   8.065  17.799  0.00  0.00    +0.000 C 
BRANCH  31  32
ATOM     32  C   UNL     1       1.600   9.352  18.396  0.00  0.00    +0.000 C 
ATOM     33  N   UNL     1       1.941  10.463  17.678  0.00  0.00    +0.000 N 
ATOM     34  O   UNL     1       0.930   9.427  19.416  0.00  0.00    +0.000 OA
ATOM     35  H   UNL     1       2.598  10.434  16.909  0.00  0.00    +0.000 HD
ATOM     36  H   UNL     1       1.669  11.368  18.045  0.00  0.00    +0.000 HD
ENDBRANCH  31  32
ENDBRANCH  30  31
ENDBRANCH  22  30
ENDBRANCH   2  22
TORSDOF 13
ENDMDL
MODEL 8
REMARK VINA RESULT:      -6.5      3.289      6.375
REMARK  Name = 
REMARK  13 active torsions:
REMARK  status: ('A' for Active; 'I' for Inactive)
REMARK    1  A    between atoms: N_4  and  C_5
REMARK    2  A    between atoms: C_5  and  C_6
REMARK    3  A    between atoms: C_6  and  C_7
REMARK    4  A    between atoms: C_7  and  C_8
REMARK    5  A    between atoms: C_8  and  N_9
REMARK    6  A    between atoms: C_8  and  C_23
REMARK    7  A    between atoms: C_10  and  C_12
REMARK    8  A    between atoms: C_12  and  C_13
REMARK    9  A    between atoms: C_12  and  N_18
REMARK   10  A    between atoms: C_13  and  C_14
REMARK   11  A    between atoms: C_14  and  C_15
REMARK   12  A    between atoms: C_19  and  C_21
REMARK   13  A    between atoms: C_21  and  S_22
REMARK                            x       y       z     vdW  Elec       q    Type
REMARK                         _______ _______ _______ _____ _____    ______ ____
ROOT
ATOM      1  N   UNL     1       5.547   4.965  17.737  0.00  0.00    +0.000 N 
ATOM      2  C   UNL     1       4.952   4.916  18.976  0.00  0.00    +0.000 C 
ATOM      3  O   UNL     1       5.613   4.733  19.999  0.00  0.00    +0.000 OA
ATOM      4  H   UNL     1       5.023   5.442  17.013  0.00  0.00    +0.000 HD
ENDROOT
BRANCH   1   5
ATOM      5  C   UNL     1       7.007   4.916  17.561  0.00  0.00    +0.000 C 
BRANCH   5   6
ATOM      6  C   UNL     1       7.560   6.356  17.683  0.00  0.00    +0.000 C 
ATOM      7  N   UNL     1       8.101   6.663  18.900  0.00  0.00    +0.000 N 
ATOM      8  O   UNL     1       7.537   7.188  16.783  0.00  0.00    +0.000 OA
ATOM      9  H   UNL     1       8.067   6.006  19.677  0.00  0.00    +0.000 HD
ATOM     10  H   UNL     1       8.445   7.599  19.063  0.00  0.00    +0.000 HD
ENDBRANCH   5   6
BRANCH   5  11
ATOM     11  C   UNL     1       7.304   4.270  16.206  0.00  0.00    +0.000 C 
BRANCH  11  12
ATOM     12  C   UNL     1       6.131   4.284  15.221  0.00  0.00    +0.000 C 
BRANCH  12  13
ATOM     13  C   UNL     1       6.654   4.072  13.800  0.00  0.00    +0.000 C 
BRANCH  13  17
ATOM     14  N   UNL     1       6.249   2.108  11.740  0.00  0.00    +0.000 NA
ATOM     15  C   UNL     1       5.379   3.014  11.996  0.00  0.00    +0.000 C 
ATOM     16  N   UNL     1       4.155   3.039  11.432  0.00  0.00    +0.000 N 
ATOM     17  N   UNL     1       5.557   4.049  12.847  0.00  0.00    +0.000 N 
ATOM     18  H   UNL     1       5.856   1.429  11.088  0.00  0.00    +0.000 HD
ATOM     19  H   UNL     1       4.054   2.454  10.614  0.00  0.00    +0.000 HD
ATOM     20  H   UNL     1       3.818   3.976  11.248  0.00  0.00    +0.000 HD
ATOM     21  H   UNL     1       4.698   4.422  13.228  0.00  0.00    +0.000 HD
ENDBRANCH  13  17
ENDBRANCH  12  13
ENDBRANCH  11  12
ENDBRANCH   5  11
ENDBRANCH   1   5
BRANCH   2  22
ATOM     22  C   UNL     1       3.405   5.079  19.004  0.00  0.00    +0.000 C 
BRANCH  22  23
ATOM     23  N   UNL     1       2.951   6.210  18.181  0.00  0.00    +0.000 N 
ATOM     24  C   UNL     1       2.407   7.339  18.758  0.00  0.00    +0.000 C 
ATOM     25  O   UNL     1       2.282   7.466  19.972  0.00  0.00    +0.000 OA
ATOM     26  H   UNL     1       3.181   6.215  17.193  0.00  0.00    +0.000 HD
BRANCH  24  27
ATOM     27  C   UNL     1       2.075   8.456  17.787  0.00  0.00    +0.000 C 
BRANCH  27  28
ATOM     28  S   UNL     1       1.135   9.733  18.671  0.00  0.00    +0.000 S 
ATOM     29  H   UNL     1       1.833  10.781  18.200  0.00  0.00    +0.000 HD
ENDBRANCH  27  28
ENDBRANCH  24  27
ENDBRANCH  22  23
BRANCH  22  30
ATOM     30  C   UNL     1       2.667   3.800  18.573  0.00  0.00    +0.000 C 
BRANCH  30  31
ATOM     31  C   UNL     1       2.754   2.668  19.597  0.00  0.00    +0.000 C 
BRANCH  31  32
ATOM     32  C   UNL     1       1.893   2.906  20.817  0.00  0.00    +0.000 C 
ATOM     33  N   UNL     1       0.595   3.208  20.517  0.00  0.00    +0.000 N 
ATOM     34  O   UNL     1       2.286   2.840  21.974  0.00  0.00    +0.000 OA
ATOM     35  H   UNL     1       0.283   3.394  19.572  0.00  0.00    +0.000 HD
ATOM     36  H   UNL     1      -0.030   3.433  21.283  0.00  0.00    +0.000 HD
ENDBRANCH  31  32
ENDBRANCH  30  31
ENDBRANCH  22  30
ENDBRANCH   2  22
TORSDOF 13
ENDMDL
MODEL 9
REMARK VINA RESULT:      -6.4      2.664      3.666
REMARK  Name = 
REMARK  13 active torsions:
REMARK  status: ('A' for Active; 'I' for Inactive)
REMARK    1  A    between atoms: N_4  and  C_5
REMARK    2  A    between atoms: C_5  and  C_6
REMARK    3  A    between atoms: C_6  and  C_7
REMARK    4  A    between atoms: C_7  and  C_8
REMARK    5  A    between atoms: C_8  and  N_9
REMARK    6  A    between atoms: C_8  and  C_23
REMARK    7  A    between atoms: C_10  and  C_12
REMARK    8  A    between atoms: C_12  and  C_13
REMARK    9  A    between atoms: C_12  and  N_18
REMARK   10  A    between atoms: C_13  and  C_14
REMARK   11  A    between atoms: C_14  and  C_15
REMARK   12  A    between atoms: C_19  and  C_21
REMARK   13  A    between atoms: C_21  and  S_22
REMARK                            x       y       z     vdW  Elec       q    Type
REMARK                         _______ _______ _______ _____ _____    ______ ____
ROOT
ATOM      1  N   UNL     1       5.662   5.741  18.635  0.00  0.00    +0.000 N 
ATOM      2  C   UNL     1       6.996   5.980  18.871  0.00  0.00    +0.000 C 
ATOM      3  O   UNL     1       7.528   5.660  19.934  0.00  0.00    +0.000 OA
ATOM      4  H   UNL     1       5.383   5.711  17.661  0.00  0.00    +0.000 HD
ENDROOT
BRANCH   1   5
ATOM      5  C   UNL     1       4.817   4.994  19.580  0.00  0.00    +0.000 C 
BRANCH   5   6
ATOM      6  C   UNL     1       4.815   3.505  19.159  0.00  0.00    +0.000 C 
ATOM      7  N   UNL     1       4.789   3.288  17.809  0.00  0.00    +0.000 N 
ATOM      8  O   UNL     1       4.835   2.561  19.942  0.00  0.00    +0.000 OA
ATOM      9  H   UNL     1       4.704   4.059  17.151  0.00  0.00    +0.000 HD
ATOM     10  H   UNL     1       4.744   2.340  17.464  0.00  0.00    +0.000 HD
ENDBRANCH   5   6
BRANCH   5  11
ATOM     11  C   UNL     1       3.421   5.622  19.573  0.00  0.00    +0.000 C 
BRANCH  11  12
ATOM     12  C   UNL     1       2.498   5.139  20.695  0.00  0.00    +0.000 C 
BRANCH  12  13
ATOM     13  C   UNL     1       1.134   4.769  20.111  0.00  0.00    +0.000 C 
BRANCH  13  17
ATOM     14  N   UNL     1       1.449   3.534  17.535  0.00  0.00    +0.000 NA
ATOM     15  C   UNL     1       1.352   2.845  18.611  0.00  0.00    +0.000 C 
ATOM     16  N   UNL     1       1.531   1.509  18.650  0.00  0.00    +0.000 N 
ATOM     17  N   UNL     1       1.064   3.344  19.834  0.00  0.00    +0.000 N 
ATOM     18  H   UNL     1       1.703   2.923  16.759  0.00  0.00    +0.000 HD
ATOM     19  H   UNL     1       1.497   1.052  17.748  0.00  0.00    +0.000 HD
ATOM     20  H   UNL     1       0.926   1.043  19.314  0.00  0.00    +0.000 HD
ATOM     21  H   UNL     1       1.401   2.778  20.601  0.00  0.00    +0.000 HD
ENDBRANCH  13  17
ENDBRANCH  12  13
ENDBRANCH  11  12
ENDBRANCH   5  11
ENDBRANCH   1   5
BRANCH   2  22
ATOM     22  C   UNL     1       7.779   6.696  17.732  0.00  0.00    +0.000 C 
BRANCH  22  23
ATOM     23  N   UNL     1       7.362   6.237  16.398  0.00  0.00    +0.000 N 
ATOM     24  C   UNL     1       7.469   4.911  16.034  0.00  0.00    +0.000 C 
ATOM     25  O   UNL     1       7.903   4.051  16.793  0.00  0.00    +0.000 OA
ATOM     26  H   UNL     1       6.853   6.880  15.802  0.00  0.00    +0.000 HD
BRANCH  24  27
ATOM     27  C   UNL     1       6.911   4.578  14.665  0.00  0.00    +0.000 C 
BRANCH  27  28
ATOM     28  S   UNL     1       5.104   4.753  14.717  0.00  0.00    +0.000 S 
ATOM     29  H   UNL     1       5.057   5.958  14.122  0.00  0.00    +0.000 HD
ENDBRANCH  27  28
ENDBRANCH  24  27
ENDBRANCH  22  23
BRANCH  22  30
ATOM     30  C   UNL     1       7.665   8.228  17.808  0.00  0.00    +0.000 C 
BRANCH  30  31
ATOM     31  C   UNL     1       8.745   8.880  18.673  0.00  0.00    +0.000 C 
BRANCH  31  32
ATOM     32  C   UNL     1       8.900  10.361  18.408  0.00  0.00    +0.000 C 
ATOM     33  N   UNL     1       9.927  10.933  19.105  0.00  0.00    +0.000 N 
ATOM     34  O   UNL     1       8.197  11.014  17.650  0.00  0.00    +0.000 OA
ATOM     35  H   UNL     1      10.434  10.441  19.830  0.00  0.00    +0.000 HD
ATOM     36  H   UNL     1      10.060  11.934  19.019  0.00  0.00    +0.000 HD
ENDBRANCH  31  32
ENDBRANCH  30  31
ENDBRANCH  22  30
ENDBRANCH   2  22
TORSDOF 13
ENDMDL
