MODEL 1
REMARK VINA RESULT:      -7.2      0.000      0.000
REMARK  Name = 
REMARK  4 active torsions:
REMARK  status: ('A' for Active; 'I' for Inactive)
REMARK    1  A    between atoms: C_1  and  O_2
REMARK    2  A    between atoms: O_2  and  C_3
REMARK    3  A    between atoms: C_7  and  C_8
REMARK    4  A    between atoms: C_8  and  N_9
REMARK                            x       y       z     vdW  Elec       q    Type
REMARK                         _______ _______ _______ _____ _____    ______ ____
ROOT
ATOM      1  N   UNL     1       3.345   4.167  19.091  0.00  0.00    +0.000 NA
ATOM      2  C   UNL     1       2.366   4.371  18.034  0.00  0.00    +0.000 C 
ATOM      3  C   UNL     1       1.582   5.612  18.426  0.00  0.00    +0.000 C 
ATOM      4  C   UNL     1       2.543   6.481  19.255  0.00  0.00    +0.000 C 
ATOM      5  C   UNL     1       1.789   7.278  20.351  0.00  0.00    +0.000 C 
ATOM      6  C   UNL     1       0.876   8.388  19.772  0.00  0.00    +0.000 C 
ATOM      7  N   UNL     1       1.593   9.220  18.813  0.00  0.00    +0.000 N 
ATOM      8  C   UNL     1       1.698  10.587  18.927  0.00  0.00    +0.000 A 
ATOM      9  N   UNL     1       1.334  11.195  20.068  0.00  0.00    +0.000 NA
ATOM     10  C   UNL     1       1.549  12.530  20.162  0.00  0.00    +0.000 A 
ATOM     11  C   UNL     1       2.092  13.286  19.157  0.00  0.00    +0.000 A 
ATOM     12  F   UNL     1       2.306  14.600  19.283  0.00  0.00    +0.000 F 
ATOM     13  C   UNL     1       2.400  12.606  18.015  0.00  0.00    +0.000 A 
ATOM     14  N   UNL     1       2.213  11.275  17.883  0.00  0.00    +0.000 NA
ATOM     15  C   UNL     1       2.344   8.558  17.765  0.00  0.00    +0.000 C 
ATOM     16  C   UNL     1       3.272   7.530  18.404  0.00  0.00    +0.000 C 
ATOM     17  C   UNL     1       3.590   5.453  19.770  0.00  0.00    +0.000 C 
ENDROOT
BRANCH   1  18
ATOM     18  C   UNL     1       4.547   3.454  18.600  0.00  0.00    +0.000 C 
BRANCH  18  23
ATOM     19  C   UNL     1       6.804   5.868  16.560  0.00  0.00    +0.000 A 
ATOM     20  C   UNL     1       6.555   5.385  15.273  0.00  0.00    +0.000 A 
ATOM     21  C   UNL     1       5.676   4.326  15.063  0.00  0.00    +0.000 A 
ATOM     22  C   UNL     1       5.029   3.734  16.152  0.00  0.00    +0.000 A 
ATOM     23  C   UNL     1       5.260   4.194  17.465  0.00  0.00    +0.000 A 
ATOM     24  C   UNL     1       6.165   5.270  17.660  0.00  0.00    +0.000 A 
BRANCH  19  26
ATOM     25  C   UNL     1       7.731   7.830  17.618  0.00  0.00    +0.000 C 
ATOM     26  O   UNL     1       7.691   6.907  16.548  0.00  0.00    +0.000 OA
ENDBRANCH  19  26
ENDBRANCH  18  23
ENDBRANCH   1  18
TORSDOF 3
ENDMDL
MODEL 2
REMARK VINA RESULT:      -6.8      2.595      3.875
REMARK  Name = 
REMARK  4 active torsions:
REMARK  status: ('A' for Active; 'I' for Inactive)
REMARK    1  A    between atoms: C_1  and  O_2
REMARK    2  A    between atoms: O_2  and  C_3
REMARK    3  A    between atoms: C_7  and  C_8
REMARK    4  A    between atoms: C_8  and  N_9
REMARK                            x       y       z     vdW  Elec       q    Type
REMARK                         _______ _______ _______ _____ _____    ______ ____
ROOT
ATOM      1  N   UNL     1       6.166   4.684  16.857  0.00  0.00    +0.000 NA
ATOM      2  C   UNL     1       4.930   4.618  16.090  0.00  0.00    +0.000 C 
ATOM      3  C   UNL     1       3.810   4.872  17.085  0.00  0.00    +0.000 C 
ATOM      4  C   UNL     1       4.406   5.765  18.184  0.00  0.00    +0.000 C 
ATOM      5  C   UNL     1       3.772   5.465  19.568  0.00  0.00    +0.000 C 
ATOM      6  C   UNL     1       2.289   5.903  19.661  0.00  0.00    +0.000 C 
ATOM      7  N   UNL     1       2.110   7.276  19.203  0.00  0.00    +0.000 N 
ATOM      8  C   UNL     1       1.535   8.261  19.974  0.00  0.00    +0.000 A 
ATOM      9  N   UNL     1       1.321   8.049  21.283  0.00  0.00    +0.000 NA
ATOM     10  C   UNL     1       0.843   9.086  22.014  0.00  0.00    +0.000 A 
ATOM     11  C   UNL     1       0.548  10.316  21.489  0.00  0.00    +0.000 A 
ATOM     12  F   UNL     1       0.090  11.325  22.237  0.00  0.00    +0.000 F 
ATOM     13  C   UNL     1       0.754  10.443  20.146  0.00  0.00    +0.000 A 
ATOM     14  N   UNL     1       1.239   9.441  19.382  0.00  0.00    +0.000 NA
ATOM     15  C   UNL     1       2.688   7.651  17.929  0.00  0.00    +0.000 C 
ATOM     16  C   UNL     1       4.162   7.258  17.928  0.00  0.00    +0.000 C 
ATOM     17  C   UNL     1       5.933   5.490  18.070  0.00  0.00    +0.000 C 
ENDROOT
BRANCH   1  18
ATOM     18  C   UNL     1       7.315   5.093  16.017  0.00  0.00    +0.000 C 
BRANCH  18  23
ATOM     19  C   UNL     1       6.118   3.496  12.685  0.00  0.00    +0.000 A 
ATOM     20  C   UNL     1       6.859   4.263  11.782  0.00  0.00    +0.000 A 
ATOM     21  C   UNL     1       7.730   5.252  12.229  0.00  0.00    +0.000 A 
ATOM     22  C   UNL     1       7.870   5.486  13.600  0.00  0.00    +0.000 A 
ATOM     23  C   UNL     1       7.135   4.734  14.539  0.00  0.00    +0.000 A 
ATOM     24  C   UNL     1       6.247   3.733  14.065  0.00  0.00    +0.000 A 
BRANCH  19  26
ATOM     25  C   UNL     1       4.218   3.004  11.280  0.00  0.00    +0.000 C 
ATOM     26  O   UNL     1       5.330   2.582  12.045  0.00  0.00    +0.000 OA
ENDBRANCH  19  26
ENDBRANCH  18  23
ENDBRANCH   1  18
TORSDOF 3
ENDMDL
MODEL 3
REMARK VINA RESULT:      -6.8      0.790      1.606
REMARK  Name = 
REMARK  4 active torsions:
REMARK  status: ('A' for Active; 'I' for Inactive)
REMARK    1  A    between atoms: C_1  and  O_2
REMARK    2  A    between atoms: O_2  and  C_3
REMARK    3  A    between atoms: C_7  and  C_8
REMARK    4  A    between atoms: C_8  and  N_9
REMARK                            x       y       z     vdW  Elec       q    Type
REMARK                         _______ _______ _______ _____ _____    ______ ____
ROOT
ATOM      1  N   UNL     1       3.327   4.167  19.246  0.00  0.00    +0.000 NA
ATOM      2  C   UNL     1       2.387   4.355  18.151  0.00  0.00    +0.000 C 
ATOM      3  C   UNL     1       1.582   5.595  18.502  0.00  0.00    +0.000 C 
ATOM      4  C   UNL     1       2.506   6.477  19.356  0.00  0.00    +0.000 C 
ATOM      5  C   UNL     1       1.706   7.280  20.416  0.00  0.00    +0.000 C 
ATOM      6  C   UNL     1       0.809   8.379  19.793  0.00  0.00    +0.000 C 
ATOM      7  N   UNL     1       1.556   9.205  18.852  0.00  0.00    +0.000 N 
ATOM      8  C   UNL     1       1.649  10.574  18.957  0.00  0.00    +0.000 A 
ATOM      9  N   UNL     1       1.239  11.191  20.078  0.00  0.00    +0.000 NA
ATOM     10  C   UNL     1       1.443  12.528  20.166  0.00  0.00    +0.000 A 
ATOM     11  C   UNL     1       2.018  13.278  19.175  0.00  0.00    +0.000 A 
ATOM     12  F   UNL     1       2.219  14.594  19.295  0.00  0.00    +0.000 F 
ATOM     13  C   UNL     1       2.372  12.589  18.051  0.00  0.00    +0.000 A 
ATOM     14  N   UNL     1       2.198  11.256  17.926  0.00  0.00    +0.000 NA
ATOM     15  C   UNL     1       2.350   8.539  17.839  0.00  0.00    +0.000 C 
ATOM     16  C   UNL     1       3.260   7.522  18.523  0.00  0.00    +0.000 C 
ATOM     17  C   UNL     1       3.539   5.461  19.921  0.00  0.00    +0.000 C 
ENDROOT
BRANCH   1  18
ATOM     18  C   UNL     1       4.550   3.457  18.806  0.00  0.00    +0.000 C 
BRANCH  18  23
ATOM     19  C   UNL     1       6.600   5.318  16.083  0.00  0.00    +0.000 A 
ATOM     20  C   UNL     1       7.353   6.165  16.899  0.00  0.00    +0.000 A 
ATOM     21  C   UNL     1       7.220   6.129  18.284  0.00  0.00    +0.000 A 
ATOM     22  C   UNL     1       6.322   5.234  18.872  0.00  0.00    +0.000 A 
ATOM     23  C   UNL     1       5.543   4.367  18.079  0.00  0.00    +0.000 A 
ATOM     24  C   UNL     1       5.687   4.423  16.667  0.00  0.00    +0.000 A 
BRANCH  19  26
ATOM     25  C   UNL     1       6.688   4.464  13.826  0.00  0.00    +0.000 C 
ATOM     26  O   UNL     1       6.881   5.509  14.759  0.00  0.00    +0.000 OA
ENDBRANCH  19  26
ENDBRANCH  18  23
ENDBRANCH   1  18
TORSDOF 3
ENDMDL
MODEL 4
REMARK VINA RESULT:      -6.7      4.590      8.579
REMARK  Name = 
REMARK  4 active torsions:
REMARK  status: ('A' for Active; 'I' for Inactive)
REMARK    1  A    between atoms: C_1  and  O_2
REMARK    2  A    between atoms: O_2  and  C_3
REMARK    3  A    between atoms: C_7  and  C_8
REMARK    4  A    between atoms: C_8  and  N_9
REMARK                            x       y       z     vdW  Elec       q    Type
REMARK                         _______ _______ _______ _____ _____    ______ ____
ROOT
ATOM      1  N   UNL     1      -0.791  11.953  20.175  0.00  0.00    +0.000 NA
ATOM      2  C   UNL     1       0.643  12.204  20.158  0.00  0.00    +0.000 C 
ATOM      3  C   UNL     1       1.297  10.906  20.600  0.00  0.00    +0.000 C 
ATOM      4  C   UNL     1       0.346   9.778  20.169  0.00  0.00    +0.000 C 
ATOM      5  C   UNL     1       0.386   8.587  21.163  0.00  0.00    +0.000 C 
ATOM      6  C   UNL     1       1.730   7.816  21.129  0.00  0.00    +0.000 C 
ATOM      7  N   UNL     1       2.111   7.471  19.764  0.00  0.00    +0.000 N 
ATOM      8  C   UNL     1       2.369   6.183  19.354  0.00  0.00    +0.000 A 
ATOM      9  N   UNL     1       2.053   5.149  20.151  0.00  0.00    +0.000 NA
ATOM     10  C   UNL     1       2.240   3.900  19.658  0.00  0.00    +0.000 A 
ATOM     11  C   UNL     1       2.749   3.641  18.413  0.00  0.00    +0.000 A 
ATOM     12  F   UNL     1       2.910   2.398  17.948  0.00  0.00    +0.000 F 
ATOM     13  C   UNL     1       3.084   4.741  17.678  0.00  0.00    +0.000 A 
ATOM     14  N   UNL     1       2.904   6.001  18.125  0.00  0.00    +0.000 NA
ATOM     15  C   UNL     1       2.081   8.518  18.763  0.00  0.00    +0.000 C 
ATOM     16  C   UNL     1       0.713   9.190  18.799  0.00  0.00    +0.000 C 
ATOM     17  C   UNL     1      -1.024  10.503  20.042  0.00  0.00    +0.000 C 
ENDROOT
BRANCH   1  18
ATOM     18  C   UNL     1      -1.513  12.817  19.212  0.00  0.00    +0.000 C 
BRANCH  18  23
ATOM     19  C   UNL     1      -2.841  10.643  16.281  0.00  0.00    +0.000 A 
ATOM     20  C   UNL     1      -4.182  10.541  16.658  0.00  0.00    +0.000 A 
ATOM     21  C   UNL     1      -4.652  11.167  17.810  0.00  0.00    +0.000 A 
ATOM     22  C   UNL     1      -3.773  11.908  18.605  0.00  0.00    +0.000 A 
ATOM     23  C   UNL     1      -2.412  12.027  18.257  0.00  0.00    +0.000 A 
ATOM     24  C   UNL     1      -1.950  11.378  17.082  0.00  0.00    +0.000 A 
BRANCH  19  26
ATOM     25  C   UNL     1      -3.402  10.156  13.984  0.00  0.00    +0.000 C 
ATOM     26  O   UNL     1      -2.588   9.962  15.124  0.00  0.00    +0.000 OA
ENDBRANCH  19  26
ENDBRANCH  18  23
ENDBRANCH   1  18
TORSDOF 3
ENDMDL
MODEL 5
REMARK VINA RESULT:      -6.6      5.054      8.962
REMARK  Name = 
REMARK  4 active torsions:
REMARK  status: ('A' for Active; 'I' for Inactive)
REMARK    1  A    between atoms: C_1  and  O_2
REMARK    2  A    between atoms: O_2  and  C_3
REMARK    3  A    between atoms: C_7  and  C_8
REMARK    4  A    between atoms: C_8  and  N_9
REMARK                            x       y       z     vdW  Elec       q    Type
REMARK                         _______ _______ _______ _____ _____    ______ ____
ROOT
ATOM      1  N   UNL     1      -0.773  11.874  20.174  0.00  0.00    +0.000 NA
ATOM      2  C   UNL     1       0.658  12.140  20.183  0.00  0.00    +0.000 C 
ATOM      3  C   UNL     1       1.322  10.839  20.601  0.00  0.00    +0.000 C 
ATOM      4  C   UNL     1       0.389   9.712  20.129  0.00  0.00    +0.000 C 
ATOM      5  C   UNL     1       0.430   8.497  21.094  0.00  0.00    +0.000 C 
ATOM      6  C   UNL     1       1.782   7.742  21.059  0.00  0.00    +0.000 C 
ATOM      7  N   UNL     1       2.184   7.435  19.691  0.00  0.00    +0.000 N 
ATOM      8  C   UNL     1       2.462   6.161  19.252  0.00  0.00    +0.000 A 
ATOM      9  N   UNL     1       2.148   5.103  20.019  0.00  0.00    +0.000 NA
ATOM     10  C   UNL     1       2.355   3.869  19.498  0.00  0.00    +0.000 A 
ATOM     11  C   UNL     1       2.883   3.647  18.254  0.00  0.00    +0.000 A 
ATOM     12  F   UNL     1       3.063   2.417  17.760  0.00  0.00    +0.000 F 
ATOM     13  C   UNL     1       3.214   4.768  17.550  0.00  0.00    +0.000 A 
ATOM     14  N   UNL     1       3.014   6.015  18.026  0.00  0.00    +0.000 NA
ATOM     15  C   UNL     1       2.155   8.506  18.715  0.00  0.00    +0.000 C 
ATOM     16  C   UNL     1       0.779   9.162  18.750  0.00  0.00    +0.000 C 
ATOM     17  C   UNL     1      -0.988  10.424  20.003  0.00  0.00    +0.000 C 
ENDROOT
BRANCH   1  18
ATOM     18  C   UNL     1      -1.492  12.753  19.224  0.00  0.00    +0.000 C 
BRANCH  18  23
ATOM     19  C   UNL     1      -4.691  11.133  17.732  0.00  0.00    +0.000 A 
ATOM     20  C   UNL     1      -4.165  10.643  16.534  0.00  0.00    +0.000 A 
ATOM     21  C   UNL     1      -2.819  10.813  16.221  0.00  0.00    +0.000 A 
ATOM     22  C   UNL     1      -1.977  11.481  17.114  0.00  0.00    +0.000 A 
ATOM     23  C   UNL     1      -2.476  11.992  18.331  0.00  0.00    +0.000 A 
ATOM     24  C   UNL     1      -3.852  11.815  18.630  0.00  0.00    +0.000 A 
BRANCH  19  26
ATOM     25  C   UNL     1      -6.958  11.907  18.029  0.00  0.00    +0.000 C 
ATOM     26  O   UNL     1      -6.025  10.861  17.847  0.00  0.00    +0.000 OA
ENDBRANCH  19  26
ENDBRANCH  18  23
ENDBRANCH   1  18
TORSDOF 3
ENDMDL
MODEL 6
REMARK VINA RESULT:      -6.5      1.194      1.791
REMARK  Name = 
REMARK  4 active torsions:
REMARK  status: ('A' for Active; 'I' for Inactive)
REMARK    1  A    between atoms: C_1  and  O_2
REMARK    2  A    between atoms: O_2  and  C_3
REMARK    3  A    between atoms: C_7  and  C_8
REMARK    4  A    between atoms: C_8  and  N_9
REMARK                            x       y       z     vdW  Elec       q    Type
REMARK                         _______ _______ _______ _____ _____    ______ ____
ROOT
ATOM      1  N   UNL     1       3.565   4.736  18.605  0.00  0.00    +0.000 NA
ATOM      2  C   UNL     1       2.407   4.881  17.736  0.00  0.00    +0.000 C 
ATOM      3  C   UNL     1       1.521   5.925  18.394  0.00  0.00    +0.000 C 
ATOM      4  C   UNL     1       2.463   6.853  19.179  0.00  0.00    +0.000 C 
ATOM      5  C   UNL     1       1.787   7.394  20.466  0.00  0.00    +0.000 C 
ATOM      6  C   UNL     1       0.636   8.388  20.173  0.00  0.00    +0.000 C 
ATOM      7  N   UNL     1       1.053   9.423  19.234  0.00  0.00    +0.000 N 
ATOM      8  C   UNL     1       0.969  10.769  19.506  0.00  0.00    +0.000 A 
ATOM      9  N   UNL     1       0.710  11.186  20.757  0.00  0.00    +0.000 NA
ATOM     10  C   UNL     1       0.734  12.521  20.988  0.00  0.00    +0.000 A 
ATOM     11  C   UNL     1       0.985  13.458  20.021  0.00  0.00    +0.000 A 
ATOM     12  F   UNL     1       1.017  14.769  20.281  0.00  0.00    +0.000 F 
ATOM     13  C   UNL     1       1.200  12.961  18.768  0.00  0.00    +0.000 A 
ATOM     14  N   UNL     1       1.196  11.639  18.495  0.00  0.00    +0.000 NA
ATOM     15  C   UNL     1       1.713   9.009  18.012  0.00  0.00    +0.000 C 
ATOM     16  C   UNL     1       2.876   8.091  18.372  0.00  0.00    +0.000 C 
ATOM     17  C   UNL     1       3.722   5.968  19.401  0.00  0.00    +0.000 C 
ENDROOT
BRANCH   1  18
ATOM     18  C   UNL     1       4.763   4.290  17.857  0.00  0.00    +0.000 C 
BRANCH  18  23
ATOM     19  C   UNL     1       7.364   7.165  17.636  0.00  0.00    +0.000 A 
ATOM     20  C   UNL     1       8.214   6.789  18.679  0.00  0.00    +0.000 A 
ATOM     21  C   UNL     1       7.970   5.636  19.421  0.00  0.00    +0.000 A 
ATOM     22  C   UNL     1       6.860   4.841  19.123  0.00  0.00    +0.000 A 
ATOM     23  C   UNL     1       5.979   5.193  18.080  0.00  0.00    +0.000 A 
ATOM     24  C   UNL     1       6.241   6.375  17.337  0.00  0.00    +0.000 A 
BRANCH  19  26
ATOM     25  C   UNL     1       8.188   9.428  17.815  0.00  0.00    +0.000 C 
ATOM     26  O   UNL     1       7.781   8.320  17.036  0.00  0.00    +0.000 OA
ENDBRANCH  19  26
ENDBRANCH  18  23
ENDBRANCH   1  18
TORSDOF 3
ENDMDL
MODEL 7
REMARK VINA RESULT:      -6.5      3.154      4.908
REMARK  Name = 
REMARK  4 active torsions:
REMARK  status: ('A' for Active; 'I' for Inactive)
REMARK    1  A    between atoms: C_1  and  O_2
REMARK    2  A    between atoms: O_2  and  C_3
REMARK    3  A    between atoms: C_7  and  C_8
REMARK    4  A    between atoms: C_8  and  N_9
REMARK                            x       y       z     vdW  Elec       q    Type
REMARK                         _______ _______ _______ _____ _____    ______ ____
ROOT
ATOM      1  N   UNL     1       1.735   8.255  18.592  0.00  0.00    +0.000 NA
ATOM      2  C   UNL     1       1.180   9.189  17.624  0.00  0.00    +0.000 C 
ATOM      3  C   UNL     1       0.162  10.022  18.384  0.00  0.00    +0.000 C 
ATOM      4  C   UNL     1       0.649  10.069  19.841  0.00  0.00    +0.000 C 
ATOM      5  C   UNL     1      -0.538  10.122  20.838  0.00  0.00    +0.000 C 
ATOM      6  C   UNL     1      -1.313  11.462  20.785  0.00  0.00    +0.000 C 
ATOM      7  N   UNL     1      -0.409  12.603  20.869  0.00  0.00    +0.000 N 
ATOM      8  C   UNL     1      -0.520  13.587  21.824  0.00  0.00    +0.000 A 
ATOM      9  N   UNL     1      -1.339  13.414  22.874  0.00  0.00    +0.000 NA
ATOM     10  C   UNL     1      -1.336  14.371  23.834  0.00  0.00    +0.000 A 
ATOM     11  C   UNL     1      -0.568  15.504  23.777  0.00  0.00    +0.000 A 
ATOM     12  F   UNL     1      -0.577  16.426  24.746  0.00  0.00    +0.000 F 
ATOM     13  C   UNL     1       0.207  15.629  22.662  0.00  0.00    +0.000 A 
ATOM     14  N   UNL     1       0.245  14.695  21.688  0.00  0.00    +0.000 NA
ATOM     15  C   UNL     1       0.742  12.627  19.988  0.00  0.00    +0.000 C 
ATOM     16  C   UNL     1       1.499  11.312  20.139  0.00  0.00    +0.000 C 
ATOM     17  C   UNL     1       1.562   8.814  19.947  0.00  0.00    +0.000 C 
ENDROOT
BRANCH   1  18
ATOM     18  C   UNL     1       3.111   7.840  18.233  0.00  0.00    +0.000 C 
BRANCH  18  23
ATOM     19  C   UNL     1       2.353   4.068  17.707  0.00  0.00    +0.000 A 
ATOM     20  C   UNL     1       3.530   3.684  17.062  0.00  0.00    +0.000 A 
ATOM     21  C   UNL     1       4.546   4.604  16.816  0.00  0.00    +0.000 A 
ATOM     22  C   UNL     1       4.391   5.933  17.220  0.00  0.00    +0.000 A 
ATOM     23  C   UNL     1       3.214   6.356  17.871  0.00  0.00    +0.000 A 
ATOM     24  C   UNL     1       2.186   5.405  18.108  0.00  0.00    +0.000 A 
BRANCH  19  26
ATOM     25  C   UNL     1       0.867   2.768  19.098  0.00  0.00    +0.000 C 
ATOM     26  O   UNL     1       1.490   3.019  17.853  0.00  0.00    +0.000 OA
ENDBRANCH  19  26
ENDBRANCH  18  23
ENDBRANCH   1  18
TORSDOF 3
ENDMDL
MODEL 8
REMARK VINA RESULT:      -6.4      3.756      5.955
REMARK  Name = 
REMARK  4 active torsions:
REMARK  status: ('A' for Active; 'I' for Inactive)
REMARK    1  A    between atoms: C_1  and  O_2
REMARK    2  A    between atoms: O_2  and  C_3
REMARK    3  A    between atoms: C_7  and  C_8
REMARK    4  A    between atoms: C_8  and  N_9
REMARK                            x       y       z     vdW  Elec       q    Type
REMARK                         _______ _______ _______ _____ _____    ______ ____
ROOT
ATOM      1  N   UNL     1       2.100   9.122  17.612  0.00  0.00    +0.000 NA
ATOM      2  C   UNL     1       2.622  10.462  17.837  0.00  0.00    +0.000 C 
ATOM      3  C   UNL     1       1.413  11.338  18.121  0.00  0.00    +0.000 C 
ATOM      4  C   UNL     1       0.359  10.418  18.759  0.00  0.00    +0.000 C 
ATOM      5  C   UNL     1      -1.081  10.850  18.377  0.00  0.00    +0.000 C 
ATOM      6  C   UNL     1      -1.498  12.199  19.016  0.00  0.00    +0.000 C 
ATOM      7  N   UNL     1      -1.228  12.214  20.449  0.00  0.00    +0.000 N 
ATOM      8  C   UNL     1      -2.191  12.471  21.398  0.00  0.00    +0.000 A 
ATOM      9  N   UNL     1      -3.488  12.493  21.048  0.00  0.00    +0.000 NA
ATOM     10  C   UNL     1      -4.399  12.654  22.038  0.00  0.00    +0.000 A 
ATOM     11  C   UNL     1      -4.070  12.817  23.358  0.00  0.00    +0.000 A 
ATOM     12  F   UNL     1      -4.992  12.961  24.315  0.00  0.00    +0.000 F 
ATOM     13  C   UNL     1      -2.733  12.823  23.630  0.00  0.00    +0.000 A 
ATOM     14  N   UNL     1      -1.792  12.654  22.677  0.00  0.00    +0.000 NA
ATOM     15  C   UNL     1       0.087  11.803  20.900  0.00  0.00    +0.000 C 
ATOM     16  C   UNL     1       0.408  10.441  20.293  0.00  0.00    +0.000 C 
ATOM     17  C   UNL     1       0.788   9.004  18.275  0.00  0.00    +0.000 C 
ENDROOT
BRANCH   1  18
ATOM     18  C   UNL     1       3.095   8.079  17.952  0.00  0.00    +0.000 C 
BRANCH  18  23
ATOM     19  C   UNL     1       1.592   4.544  18.522  0.00  0.00    +0.000 A 
ATOM     20  C   UNL     1       1.397   4.595  19.903  0.00  0.00    +0.000 A 
ATOM     21  C   UNL     1       1.722   5.738  20.631  0.00  0.00    +0.000 A 
ATOM     22  C   UNL     1       2.251   6.851  19.973  0.00  0.00    +0.000 A 
ATOM     23  C   UNL     1       2.465   6.832  18.580  0.00  0.00    +0.000 A 
ATOM     24  C   UNL     1       2.134   5.657  17.856  0.00  0.00    +0.000 A 
BRANCH  19  26
ATOM     25  C   UNL     1       1.780   2.137  18.475  0.00  0.00    +0.000 C 
ATOM     26  O   UNL     1       1.208   3.340  18.001  0.00  0.00    +0.000 OA
ENDBRANCH  19  26
ENDBRANCH  18  23
ENDBRANCH   1  18
TORSDOF 3
ENDMDL
MODEL 9
REMARK VINA RESULT:      -6.4      5.181      9.854
REMARK  Name = 
REMARK  4 active torsions:
REMARK  status: ('A' for Active; 'I' for Inactive)
REMARK    1  A    between atoms: C_1  and  O_2
REMARK    2  A    between atoms: O_2  and  C_3
REMARK    3  A    between atoms: C_7  and  C_8
REMARK    4  A    between atoms: C_8  and  N_9
REMARK                            x       y       z     vdW  Elec       q    Type
REMARK                         _______ _______ _______ _____ _____    ______ ____
ROOT
ATOM      1  N   UNL     1      -0.331  12.116  20.627  0.00  0.00    +0.000 NA
ATOM      2  C   UNL     1      -1.238  11.009  20.366  0.00  0.00    +0.000 C 
ATOM      3  C   UNL     1      -0.535  10.125  19.349  0.00  0.00    +0.000 C 
ATOM      4  C   UNL     1       0.972  10.314  19.588  0.00  0.00    +0.000 C 
ATOM      5  C   UNL     1       1.777  10.198  18.266  0.00  0.00    +0.000 C 
ATOM      6  C   UNL     1       1.788   8.761  17.688  0.00  0.00    +0.000 C 
ATOM      7  N   UNL     1       2.159   7.782  18.703  0.00  0.00    +0.000 N 
ATOM      8  C   UNL     1       3.209   6.905  18.560  0.00  0.00    +0.000 A 
ATOM      9  N   UNL     1       4.092   7.073  17.561  0.00  0.00    +0.000 NA
ATOM     10  C   UNL     1       5.160   6.239  17.525  0.00  0.00    +0.000 A 
ATOM     11  C   UNL     1       5.372   5.233  18.429  0.00  0.00    +0.000 A 
ATOM     12  F   UNL     1       6.443   4.434  18.376  0.00  0.00    +0.000 F 
ATOM     13  C   UNL     1       4.413   5.099  19.391  0.00  0.00    +0.000 A 
ATOM     14  N   UNL     1       3.340   5.914  19.471  0.00  0.00    +0.000 NA
ATOM     15  C   UNL     1       1.472   7.829  19.979  0.00  0.00    +0.000 C 
ATOM     16  C   UNL     1       1.558   9.250  20.527  0.00  0.00    +0.000 C 
ATOM     17  C   UNL     1       1.045  11.693  20.302  0.00  0.00    +0.000 C 
ENDROOT
BRANCH   1  18
ATOM     18  C   UNL     1      -0.531  12.686  21.979  0.00  0.00    +0.000 C 
BRANCH  18  23
ATOM     19  C   UNL     1      -4.134  12.741  23.428  0.00  0.00    +0.000 A 
ATOM     20  C   UNL     1      -4.634  13.861  22.761  0.00  0.00    +0.000 A 
ATOM     21  C   UNL     1      -3.844  14.569  21.858  0.00  0.00    +0.000 A 
ATOM     22  C   UNL     1      -2.532  14.158  21.613  0.00  0.00    +0.000 A 
ATOM     23  C   UNL     1      -1.993  13.034  22.273  0.00  0.00    +0.000 A 
ATOM     24  C   UNL     1      -2.811  12.327  23.193  0.00  0.00    +0.000 A 
BRANCH  19  26
ATOM     25  C   UNL     1      -6.410  12.627  24.224  0.00  0.00    +0.000 C 
ATOM     26  O   UNL     1      -5.066  12.191  24.262  0.00  0.00    +0.000 OA
ENDBRANCH  19  26
ENDBRANCH  18  23
ENDBRANCH   1  18
TORSDOF 3
ENDMDL
