MODEL 1
REMARK VINA RESULT:      -7.9      0.000      0.000
REMARK  Name = 
REMARK  3 active torsions:
REMARK  status: ('A' for Active; 'I' for Inactive)
REMARK    1  A    between atoms: S_2  and  C_4
REMARK    2  A    between atoms: S_2  and  N_7
REMARK    3  A    between atoms: N_15  and  C_16
REMARK                            x       y       z     vdW  Elec       q    Type
REMARK                         _______ _______ _______ _____ _____    ______ ____
ROOT
ATOM      1  N   UNL     1       2.170   5.403  18.516  0.00  0.00    +0.000 NA
ATOM      2  C   UNL     1       1.647   4.292  17.675  0.00  0.00    +0.000 C 
ATOM      3  C   UNL     1       2.795   3.440  17.120  0.00  0.00    +0.000 C 
ATOM      4  O   UNL     1       3.748   4.210  16.390  0.00  0.00    +0.000 OA
ATOM      5  C   UNL     1       4.318   5.342  17.092  0.00  0.00    +0.000 C 
ATOM      6  C   UNL     1       5.331   4.961  18.187  0.00  0.00    +0.000 C 
ATOM      7  C   UNL     1       6.475   4.119  17.661  0.00  0.00    +0.000 C 
ATOM      8  C   UNL     1       7.256   4.945  16.665  0.00  0.00    +0.000 C 
ATOM      9  N   UNL     1       6.365   5.408  15.601  0.00  0.00    +0.000 N 
ATOM     10  C   UNL     1       5.128   6.134  16.001  0.00  0.00    +0.000 C 
ATOM     11  C   UNL     1       3.169   6.211  17.694  0.00  0.00    +0.000 C 
ENDROOT
BRANCH   9  12
ATOM     12  C   UNL     1       6.555   4.938  14.310  0.00  0.00    +0.000 A 
ATOM     13  C   UNL     1       7.608   5.419  13.516  0.00  0.00    +0.000 A 
ATOM     14  C   UNL     1       7.885   4.878  12.254  0.00  0.00    +0.000 A 
ATOM     15  C   UNL     1       7.102   3.846  11.751  0.00  0.00    +0.000 A 
ATOM     16  C   UNL     1       6.038   3.380  12.509  0.00  0.00    +0.000 A 
ATOM     17  F   UNL     1       5.274   2.387  12.035  0.00  0.00    +0.000 F 
ATOM     18  C   UNL     1       5.762   3.918  13.762  0.00  0.00    +0.000 A 
ENDBRANCH   9  12
BRANCH   1  20
ATOM     19  O   UNL     1       1.656   5.658  20.996  0.00  0.00    +0.000 OA
ATOM     20  S   UNL     1       2.603   5.007  20.123  0.00  0.00    +0.000 S 
ATOM     21  O   UNL     1       4.031   5.206  20.278  0.00  0.00    +0.000 OA
BRANCH  20  22
ATOM     22  C   UNL     1       2.464   3.214  20.385  0.00  0.00    +0.000 C 
ATOM     23  C   UNL     1       2.198   2.914  21.856  0.00  0.00    +0.000 C 
ATOM     24  C   UNL     1       1.129   2.692  20.827  0.00  0.00    +0.000 C 
ENDBRANCH  20  22
ENDBRANCH   1  20
TORSDOF 3
ENDMDL
MODEL 2
REMARK VINA RESULT:      -7.4      1.121      1.525
REMARK  Name = 
REMARK  3 active torsions:
REMARK  status: ('A' for Active; 'I' for Inactive)
REMARK    1  A    between atoms: S_2  and  C_4
REMARK    2  A    between atoms: S_2  and  N_7
REMARK    3  A    between atoms: N_15  and  C_16
REMARK                            x       y       z     vdW  Elec       q    Type
REMARK                         _______ _______ _______ _____ _____    ______ ____
ROOT
ATOM      1  N   UNL     1       1.904   5.377  18.538  0.00  0.00    +0.000 NA
ATOM      2  C   UNL     1       1.494   4.242  17.669  0.00  0.00    +0.000 C 
ATOM      3  C   UNL     1       2.714   3.425  17.226  0.00  0.00    +0.000 C 
ATOM      4  O   UNL     1       3.701   4.220  16.573  0.00  0.00    +0.000 OA
ATOM      5  C   UNL     1       4.169   5.378  17.308  0.00  0.00    +0.000 C 
ATOM      6  C   UNL     1       5.094   5.042  18.491  0.00  0.00    +0.000 C 
ATOM      7  C   UNL     1       6.307   4.236  18.077  0.00  0.00    +0.000 C 
ATOM      8  C   UNL     1       7.144   5.079  17.144  0.00  0.00    +0.000 C 
ATOM      9  N   UNL     1       6.336   5.502  16.000  0.00  0.00    +0.000 N 
ATOM     10  C   UNL     1       5.044   6.188  16.282  0.00  0.00    +0.000 C 
ATOM     11  C   UNL     1       2.943   6.212  17.797  0.00  0.00    +0.000 C 
ENDROOT
BRANCH   9  12
ATOM     12  C   UNL     1       6.653   5.027  14.737  0.00  0.00    +0.000 A 
ATOM     13  C   UNL     1       6.087   3.838  14.251  0.00  0.00    +0.000 A 
ATOM     14  C   UNL     1       6.306   3.400  12.939  0.00  0.00    +0.000 A 
ATOM     15  C   UNL     1       7.111   4.142  12.082  0.00  0.00    +0.000 A 
ATOM     16  C   UNL     1       7.704   5.302  12.555  0.00  0.00    +0.000 A 
ATOM     17  F   UNL     1       8.484   6.025  11.741  0.00  0.00    +0.000 F 
ATOM     18  C   UNL     1       7.487   5.737  13.859  0.00  0.00    +0.000 A 
ENDBRANCH   9  12
BRANCH   1  20
ATOM     19  O   UNL     1       1.892   6.192  20.951  0.00  0.00    +0.000 OA
ATOM     20  S   UNL     1       2.208   5.011  20.181  0.00  0.00    +0.000 S 
ATOM     21  O   UNL     1       3.506   4.373  20.279  0.00  0.00    +0.000 OA
BRANCH  20  22
ATOM     22  C   UNL     1       1.112   3.672  20.738  0.00  0.00    +0.000 C 
ATOM     23  C   UNL     1       1.769   2.317  20.498  0.00  0.00    +0.000 C 
ATOM     24  C   UNL     1       1.586   2.840  21.893  0.00  0.00    +0.000 C 
ENDBRANCH  20  22
ENDBRANCH   1  20
TORSDOF 3
ENDMDL
MODEL 3
REMARK VINA RESULT:      -7.2      1.009      1.241
REMARK  Name = 
REMARK  3 active torsions:
REMARK  status: ('A' for Active; 'I' for Inactive)
REMARK    1  A    between atoms: S_2  and  C_4
REMARK    2  A    between atoms: S_2  and  N_7
REMARK    3  A    between atoms: N_15  and  C_16
REMARK                            x       y       z     vdW  Elec       q    Type
REMARK                         _______ _______ _______ _____ _____    ______ ____
ROOT
ATOM      1  N   UNL     1       2.668   3.825  18.777  0.00  0.00    +0.000 NA
ATOM      2  C   UNL     1       2.621   2.525  18.055  0.00  0.00    +0.000 C 
ATOM      3  C   UNL     1       3.980   2.201  17.423  0.00  0.00    +0.000 C 
ATOM      4  O   UNL     1       4.444   3.235  16.556  0.00  0.00    +0.000 OA
ATOM      5  C   UNL     1       4.514   4.561  17.135  0.00  0.00    +0.000 C 
ATOM      6  C   UNL     1       5.670   4.755  18.131  0.00  0.00    +0.000 C 
ATOM      7  C   UNL     1       7.023   4.442  17.528  0.00  0.00    +0.000 C 
ATOM      8  C   UNL     1       7.289   5.427  16.414  0.00  0.00    +0.000 C 
ATOM      9  N   UNL     1       6.208   5.363  15.430  0.00  0.00    +0.000 N 
ATOM     10  C   UNL     1       4.812   5.520  15.924  0.00  0.00    +0.000 C 
ATOM     11  C   UNL     1       3.150   4.904  17.812  0.00  0.00    +0.000 C 
ENDROOT
BRANCH   9  12
ATOM     12  C   UNL     1       6.486   4.903  14.152  0.00  0.00    +0.000 A 
ATOM     13  C   UNL     1       7.525   5.466  13.393  0.00  0.00    +0.000 A 
ATOM     14  C   UNL     1       7.895   4.943  12.148  0.00  0.00    +0.000 A 
ATOM     15  C   UNL     1       7.221   3.845  11.625  0.00  0.00    +0.000 A 
ATOM     16  C   UNL     1       6.172   3.296  12.346  0.00  0.00    +0.000 A 
ATOM     17  F   UNL     1       5.513   2.239  11.853  0.00  0.00    +0.000 F 
ATOM     18  C   UNL     1       5.804   3.816  13.583  0.00  0.00    +0.000 A 
ENDBRANCH   9  12
BRANCH   1  20
ATOM     19  O   UNL     1       4.002   5.076  20.549  0.00  0.00    +0.000 OA
ATOM     20  S   UNL     1       3.350   3.804  20.345  0.00  0.00    +0.000 S 
ATOM     21  O   UNL     1       4.066   2.555  20.520  0.00  0.00    +0.000 OA
BRANCH  20  22
ATOM     22  C   UNL     1       2.042   3.640  21.596  0.00  0.00    +0.000 C 
ATOM     23  C   UNL     1       0.723   3.258  20.934  0.00  0.00    +0.000 C 
ATOM     24  C   UNL     1       1.457   2.273  21.796  0.00  0.00    +0.000 C 
ENDBRANCH  20  22
ENDBRANCH   1  20
TORSDOF 3
ENDMDL
MODEL 4
REMARK VINA RESULT:      -6.7     10.519     11.777
REMARK  Name = 
REMARK  3 active torsions:
REMARK  status: ('A' for Active; 'I' for Inactive)
REMARK    1  A    between atoms: S_2  and  C_4
REMARK    2  A    between atoms: S_2  and  N_7
REMARK    3  A    between atoms: N_15  and  C_16
REMARK                            x       y       z     vdW  Elec       q    Type
REMARK                         _______ _______ _______ _____ _____    ______ ____
ROOT
ATOM      1  N   UNL     1       3.543  15.208  18.986  0.00  0.00    +0.000 NA
ATOM      2  C   UNL     1       3.784  14.676  20.354  0.00  0.00    +0.000 C 
ATOM      3  C   UNL     1       5.191  15.041  20.842  0.00  0.00    +0.000 C 
ATOM      4  O   UNL     1       6.214  14.602  19.950  0.00  0.00    +0.000 OA
ATOM      5  C   UNL     1       6.081  15.034  18.573  0.00  0.00    +0.000 C 
ATOM      6  C   UNL     1       6.398  16.523  18.346  0.00  0.00    +0.000 C 
ATOM      7  C   UNL     1       7.785  16.907  18.819  0.00  0.00    +0.000 C 
ATOM      8  C   UNL     1       8.798  16.153  17.991  0.00  0.00    +0.000 C 
ATOM      9  N   UNL     1       8.549  14.715  18.093  0.00  0.00    +0.000 N 
ATOM     10  C   UNL     1       7.176  14.227  17.784  0.00  0.00    +0.000 C 
ATOM     11  C   UNL     1       4.645  14.701  18.061  0.00  0.00    +0.000 C 
ENDROOT
BRANCH   9  12
ATOM     12  C   UNL     1       9.490  13.910  18.716  0.00  0.00    +0.000 A 
ATOM     13  C   UNL     1       9.584  13.861  20.116  0.00  0.00    +0.000 A 
ATOM     14  C   UNL     1      10.449  12.973  20.766  0.00  0.00    +0.000 A 
ATOM     15  C   UNL     1      11.255  12.116  20.023  0.00  0.00    +0.000 A 
ATOM     16  C   UNL     1      11.199  12.173  18.640  0.00  0.00    +0.000 A 
ATOM     17  F   UNL     1      11.970  11.355  17.913  0.00  0.00    +0.000 F 
ATOM     18  C   UNL     1      10.339  13.057  17.994  0.00  0.00    +0.000 A 
ENDBRANCH   9  12
BRANCH   1  20
ATOM     19  O   UNL     1       3.214  17.237  17.482  0.00  0.00    +0.000 OA
ATOM     20  S   UNL     1       3.112  16.859  18.873  0.00  0.00    +0.000 S 
ATOM     21  O   UNL     1       3.818  17.592  19.906  0.00  0.00    +0.000 OA
BRANCH  20  22
ATOM     22  C   UNL     1       1.386  17.094  19.389  0.00  0.00    +0.000 C 
ATOM     23  C   UNL     1       0.843  18.408  18.840  0.00  0.00    +0.000 C 
ATOM     24  C   UNL     1       0.345  17.096  18.308  0.00  0.00    +0.000 C 
ENDBRANCH  20  22
ENDBRANCH   1  20
TORSDOF 3
ENDMDL
MODEL 5
REMARK VINA RESULT:      -6.5      9.227     11.175
REMARK  Name = 
REMARK  3 active torsions:
REMARK  status: ('A' for Active; 'I' for Inactive)
REMARK    1  A    between atoms: S_2  and  C_4
REMARK    2  A    between atoms: S_2  and  N_7
REMARK    3  A    between atoms: N_15  and  C_16
REMARK                            x       y       z     vdW  Elec       q    Type
REMARK                         _______ _______ _______ _____ _____    ______ ____
ROOT
ATOM      1  N   UNL     1       2.855  14.737  19.349  0.00  0.00    +0.000 NA
ATOM      2  C   UNL     1       1.851  15.638  18.722  0.00  0.00    +0.000 C 
ATOM      3  C   UNL     1       0.426  15.216  19.099  0.00  0.00    +0.000 C 
ATOM      4  O   UNL     1       0.150  13.856  18.768  0.00  0.00    +0.000 OA
ATOM      5  C   UNL     1       1.073  12.875  19.301  0.00  0.00    +0.000 C 
ATOM      6  C   UNL     1       0.930  12.629  20.813  0.00  0.00    +0.000 C 
ATOM      7  C   UNL     1      -0.470  12.209  21.209  0.00  0.00    +0.000 C 
ATOM      8  C   UNL     1      -0.772  10.879  20.559  0.00  0.00    +0.000 C 
ATOM      9  N   UNL     1      -0.609  10.989  19.109  0.00  0.00    +0.000 N 
ATOM     10  C   UNL     1       0.684  11.524  18.597  0.00  0.00    +0.000 C 
ATOM     11  C   UNL     1       2.535  13.299  18.956  0.00  0.00    +0.000 C 
ENDROOT
BRANCH   9  12
ATOM     12  C   UNL     1      -1.721  10.855  18.293  0.00  0.00    +0.000 A 
ATOM     13  C   UNL     1      -2.894  11.583  18.549  0.00  0.00    +0.000 A 
ATOM     14  C   UNL     1      -3.988  11.547  17.675  0.00  0.00    +0.000 A 
ATOM     15  C   UNL     1      -3.936  10.767  16.525  0.00  0.00    +0.000 A 
ATOM     16  C   UNL     1      -2.798  10.017  16.274  0.00  0.00    +0.000 A 
ATOM     17  F   UNL     1      -2.736   9.260  15.171  0.00  0.00    +0.000 F 
ATOM     18  C   UNL     1      -1.711  10.052  17.142  0.00  0.00    +0.000 A 
ENDBRANCH   9  12
BRANCH   1  20
ATOM     19  O   UNL     1       3.686  13.798  21.565  0.00  0.00    +0.000 OA
ATOM     20  S   UNL     1       3.239  15.044  20.988  0.00  0.00    +0.000 S 
ATOM     21  O   UNL     1       2.155  15.802  21.581  0.00  0.00    +0.000 OA
BRANCH  20  22
ATOM     22  C   UNL     1       4.607  16.233  21.099  0.00  0.00    +0.000 C 
ATOM     23  C   UNL     1       5.866  15.654  20.464  0.00  0.00    +0.000 C 
ATOM     24  C   UNL     1       5.134  16.789  19.809  0.00  0.00    +0.000 C 
ENDBRANCH  20  22
ENDBRANCH   1  20
TORSDOF 3
ENDMDL
MODEL 6
REMARK VINA RESULT:      -6.4      8.013      9.922
REMARK  Name = 
REMARK  3 active torsions:
REMARK  status: ('A' for Active; 'I' for Inactive)
REMARK    1  A    between atoms: S_2  and  C_4
REMARK    2  A    between atoms: S_2  and  N_7
REMARK    3  A    between atoms: N_15  and  C_16
REMARK                            x       y       z     vdW  Elec       q    Type
REMARK                         _______ _______ _______ _____ _____    ______ ____
ROOT
ATOM      1  N   UNL     1      -1.719  14.134  21.401  0.00  0.00    +0.000 NA
ATOM      2  C   UNL     1      -2.446  13.616  20.211  0.00  0.00    +0.000 C 
ATOM      3  C   UNL     1      -2.453  12.082  20.199  0.00  0.00    +0.000 C 
ATOM      4  O   UNL     1      -1.141  11.526  20.261  0.00  0.00    +0.000 OA
ATOM      5  C   UNL     1      -0.317  11.972  21.367  0.00  0.00    +0.000 C 
ATOM      6  C   UNL     1      -0.725  11.390  22.732  0.00  0.00    +0.000 C 
ATOM      7  C   UNL     1      -0.737   9.876  22.745  0.00  0.00    +0.000 C 
ATOM      8  C   UNL     1       0.672   9.385  22.507  0.00  0.00    +0.000 C 
ATOM      9  N   UNL     1       1.181   9.931  21.249  0.00  0.00    +0.000 N 
ATOM     10  C   UNL     1       1.119  11.407  21.060  0.00  0.00    +0.000 C 
ATOM     11  C   UNL     1      -0.318  13.532  21.419  0.00  0.00    +0.000 C 
ENDROOT
BRANCH   9  12
ATOM     12  C   UNL     1       1.444   9.067  20.197  0.00  0.00    +0.000 A 
ATOM     13  C   UNL     1       1.374   9.510  18.866  0.00  0.00    +0.000 A 
ATOM     14  C   UNL     1       1.746   8.687  17.796  0.00  0.00    +0.000 A 
ATOM     15  C   UNL     1       2.186   7.390  18.034  0.00  0.00    +0.000 A 
ATOM     16  C   UNL     1       2.231   6.926  19.339  0.00  0.00    +0.000 A 
ATOM     17  F   UNL     1       2.651   5.678  19.582  0.00  0.00    +0.000 F 
ATOM     18  C   UNL     1       1.862   7.743  20.403  0.00  0.00    +0.000 A 
ENDBRANCH   9  12
BRANCH   1  20
ATOM     19  O   UNL     1      -3.469  15.308  22.830  0.00  0.00    +0.000 OA
ATOM     20  S   UNL     1      -2.588  14.164  22.874  0.00  0.00    +0.000 S 
ATOM     21  O   UNL     1      -1.652  13.976  23.965  0.00  0.00    +0.000 OA
BRANCH  20  22
ATOM     22  C   UNL     1      -3.616  12.674  23.026  0.00  0.00    +0.000 C 
ATOM     23  C   UNL     1      -4.192  12.569  24.434  0.00  0.00    +0.000 C 
ATOM     24  C   UNL     1      -5.082  12.879  23.266  0.00  0.00    +0.000 C 
ENDBRANCH  20  22
ENDBRANCH   1  20
TORSDOF 3
ENDMDL
MODEL 7
REMARK VINA RESULT:      -6.4      8.076     10.371
REMARK  Name = 
REMARK  3 active torsions:
REMARK  status: ('A' for Active; 'I' for Inactive)
REMARK    1  A    between atoms: S_2  and  C_4
REMARK    2  A    between atoms: S_2  and  N_7
REMARK    3  A    between atoms: N_15  and  C_16
REMARK                            x       y       z     vdW  Elec       q    Type
REMARK                         _______ _______ _______ _____ _____    ______ ____
ROOT
ATOM      1  N   UNL     1       1.609  15.103  20.261  0.00  0.00    +0.000 NA
ATOM      2  C   UNL     1       2.592  14.898  19.164  0.00  0.00    +0.000 C 
ATOM      3  C   UNL     1       2.142  13.768  18.230  0.00  0.00    +0.000 C 
ATOM      4  O   UNL     1       1.907  12.543  18.922  0.00  0.00    +0.000 OA
ATOM      5  C   UNL     1       0.982  12.613  20.035  0.00  0.00    +0.000 C 
ATOM      6  C   UNL     1      -0.493  12.764  19.620  0.00  0.00    +0.000 C 
ATOM      7  C   UNL     1      -0.960  11.658  18.698  0.00  0.00    +0.000 C 
ATOM      8  C   UNL     1      -0.890  10.349  19.450  0.00  0.00    +0.000 C 
ATOM      9  N   UNL     1       0.471  10.133  19.940  0.00  0.00    +0.000 N 
ATOM     10  C   UNL     1       1.096  11.216  20.749  0.00  0.00    +0.000 C 
ATOM     11  C   UNL     1       1.401  13.777  20.986  0.00  0.00    +0.000 C 
ENDROOT
BRANCH   9  12
ATOM     12  C   UNL     1       1.213   9.080  19.428  0.00  0.00    +0.000 A 
ATOM     13  C   UNL     1       1.779   9.154  18.145  0.00  0.00    +0.000 A 
ATOM     14  C   UNL     1       2.624   8.151  17.654  0.00  0.00    +0.000 A 
ATOM     15  C   UNL     1       2.913   7.038  18.435  0.00  0.00    +0.000 A 
ATOM     16  C   UNL     1       2.338   6.934  19.692  0.00  0.00    +0.000 A 
ATOM     17  F   UNL     1       2.607   5.866  20.455  0.00  0.00    +0.000 F 
ATOM     18  C   UNL     1       1.498   7.930  20.181  0.00  0.00    +0.000 A 
ENDBRANCH   9  12
BRANCH   1  20
ATOM     19  O   UNL     1      -0.802  15.682  20.843  0.00  0.00    +0.000 OA
ATOM     20  S   UNL     1       0.218  16.023  19.879  0.00  0.00    +0.000 S 
ATOM     21  O   UNL     1      -0.028  15.917  18.454  0.00  0.00    +0.000 OA
BRANCH  20  22
ATOM     22  C   UNL     1       0.574  17.797  20.047  0.00  0.00    +0.000 C 
ATOM     23  C   UNL     1       0.933  18.130  21.491  0.00  0.00    +0.000 C 
ATOM     24  C   UNL     1       1.978  18.178  20.415  0.00  0.00    +0.000 C 
ENDBRANCH  20  22
ENDBRANCH   1  20
TORSDOF 3
ENDMDL
MODEL 8
REMARK VINA RESULT:      -6.4      1.430      1.755
REMARK  Name = 
REMARK  3 active torsions:
REMARK  status: ('A' for Active; 'I' for Inactive)
REMARK    1  A    between atoms: S_2  and  C_4
REMARK    2  A    between atoms: S_2  and  N_7
REMARK    3  A    between atoms: N_15  and  C_16
REMARK                            x       y       z     vdW  Elec       q    Type
REMARK                         _______ _______ _______ _____ _____    ______ ____
ROOT
ATOM      1  N   UNL     1       2.063   3.610  18.730  0.00  0.00    +0.000 NA
ATOM      2  C   UNL     1       2.119   2.342  17.954  0.00  0.00    +0.000 C 
ATOM      3  C   UNL     1       3.542   2.072  17.451  0.00  0.00    +0.000 C 
ATOM      4  O   UNL     1       4.066   3.151  16.679  0.00  0.00    +0.000 OA
ATOM      5  C   UNL     1       4.046   4.452  17.316  0.00  0.00    +0.000 C 
ATOM      6  C   UNL     1       5.091   4.625  18.432  0.00  0.00    +0.000 C 
ATOM      7  C   UNL     1       6.506   4.365  17.957  0.00  0.00    +0.000 C 
ATOM      8  C   UNL     1       6.858   5.402  16.916  0.00  0.00    +0.000 C 
ATOM      9  N   UNL     1       5.884   5.360  15.826  0.00  0.00    +0.000 N 
ATOM     10  C   UNL     1       4.442   5.468  16.182  0.00  0.00    +0.000 C 
ATOM     11  C   UNL     1       2.613   4.739  17.865  0.00  0.00    +0.000 C 
ENDROOT
BRANCH   9  12
ATOM     12  C   UNL     1       6.300   4.961  14.565  0.00  0.00    +0.000 A 
ATOM     13  C   UNL     1       7.467   5.490  13.990  0.00  0.00    +0.000 A 
ATOM     14  C   UNL     1       7.965   5.019  12.769  0.00  0.00    +0.000 A 
ATOM     15  C   UNL     1       7.295   4.011  12.085  0.00  0.00    +0.000 A 
ATOM     16  C   UNL     1       6.124   3.499  12.622  0.00  0.00    +0.000 A 
ATOM     17  F   UNL     1       5.468   2.529  11.973  0.00  0.00    +0.000 F 
ATOM     18  C   UNL     1       5.629   3.967  13.836  0.00  0.00    +0.000 A 
ENDBRANCH   9  12
BRANCH   1  20
ATOM     19  O   UNL     1       3.975   3.148  20.346  0.00  0.00    +0.000 OA
ATOM     20  S   UNL     1       2.584   3.534  20.358  0.00  0.00    +0.000 S 
ATOM     21  O   UNL     1       1.602   2.789  21.122  0.00  0.00    +0.000 OA
BRANCH  20  22
ATOM     22  C   UNL     1       2.466   5.174  21.131  0.00  0.00    +0.000 C 
ATOM     23  C   UNL     1       2.422   6.261  20.063  0.00  0.00    +0.000 C 
ATOM     24  C   UNL     1       1.207   5.953  20.888  0.00  0.00    +0.000 C 
ENDBRANCH  20  22
ENDBRANCH   1  20
TORSDOF 3
ENDMDL
MODEL 9
REMARK VINA RESULT:      -6.4      1.810      2.316
REMARK  Name = 
REMARK  3 active torsions:
REMARK  status: ('A' for Active; 'I' for Inactive)
REMARK    1  A    between atoms: S_2  and  C_4
REMARK    2  A    between atoms: S_2  and  N_7
REMARK    3  A    between atoms: N_15  and  C_16
REMARK                            x       y       z     vdW  Elec       q    Type
REMARK                         _______ _______ _______ _____ _____    ______ ____
ROOT
ATOM      1  N   UNL     1       1.904   3.578  18.735  0.00  0.00    +0.000 NA
ATOM      2  C   UNL     1       2.074   2.288  18.012  0.00  0.00    +0.000 C 
ATOM      3  C   UNL     1       3.541   2.069  17.623  0.00  0.00    +0.000 C 
ATOM      4  O   UNL     1       4.073   3.144  16.852  0.00  0.00    +0.000 OA
ATOM      5  C   UNL     1       3.947   4.464  17.436  0.00  0.00    +0.000 C 
ATOM      6  C   UNL     1       4.899   4.724  18.617  0.00  0.00    +0.000 C 
ATOM      7  C   UNL     1       6.354   4.514  18.256  0.00  0.00    +0.000 C 
ATOM      8  C   UNL     1       6.736   5.531  17.205  0.00  0.00    +0.000 C 
ATOM      9  N   UNL     1       5.848   5.406  16.050  0.00  0.00    +0.000 N 
ATOM     10  C   UNL     1       4.379   5.459  16.297  0.00  0.00    +0.000 C 
ATOM     11  C   UNL     1       2.466   4.701  17.869  0.00  0.00    +0.000 C 
ENDROOT
BRANCH   9  12
ATOM     12  C   UNL     1       6.373   4.985  14.838  0.00  0.00    +0.000 A 
ATOM     13  C   UNL     1       5.739   3.981  14.088  0.00  0.00    +0.000 A 
ATOM     14  C   UNL     1       6.189   3.621  12.812  0.00  0.00    +0.000 A 
ATOM     15  C   UNL     1       7.297   4.253  12.259  0.00  0.00    +0.000 A 
ATOM     16  C   UNL     1       7.954   5.224  12.998  0.00  0.00    +0.000 A 
ATOM     17  F   UNL     1       9.024   5.839  12.479  0.00  0.00    +0.000 F 
ATOM     18  C   UNL     1       7.508   5.582  14.267  0.00  0.00    +0.000 A 
ENDBRANCH   9  12
BRANCH   1  20
ATOM     19  O   UNL     1       3.590   2.931  20.530  0.00  0.00    +0.000 OA
ATOM     20  S   UNL     1       2.307   3.581  20.397  0.00  0.00    +0.000 S 
ATOM     21  O   UNL     1       1.154   3.132  21.152  0.00  0.00    +0.000 OA
BRANCH  20  22
ATOM     22  C   UNL     1       2.480   5.287  20.996  0.00  0.00    +0.000 C 
ATOM     23  C   UNL     1       2.136   6.275  19.888  0.00  0.00    +0.000 C 
ATOM     24  C   UNL     1       1.230   6.113  21.073  0.00  0.00    +0.000 C 
ENDBRANCH  20  22
ENDBRANCH   1  20
TORSDOF 3
ENDMDL
