MODEL 1
REMARK VINA RESULT:      -7.1      0.000      0.000
REMARK  Name = 
REMARK  5 active torsions:
REMARK  status: ('A' for Active; 'I' for Inactive)
REMARK    1  A    between atoms: C_1  and  C_2
REMARK    2  A    between atoms: C_4  and  C_5
REMARK    3  A    between atoms: N_6  and  C_7
REMARK    4  A    between atoms: C_10  and  C_12
REMARK    5  A    between atoms: C_17  and  C_18
REMARK                            x       y       z     vdW  Elec       q    Type
REMARK                         _______ _______ _______ _____ _____    ______ ____
ROOT
ATOM      1  C   UNL     1       3.578   6.470  19.433  0.00  0.00    +0.000 C 
ATOM      2  C   UNL     1       3.272   7.177  18.088  0.00  0.00    +0.000 C 
ATOM      3  N   UNL     1       2.176   7.827  18.796  0.00  0.00    +0.000 N 
ATOM      4  C   UNL     1       1.604   9.023  18.499  0.00  0.00    +0.000 C 
ATOM      5  O   UNL     1       1.930   9.643  17.476  0.00  0.00    +0.000 OA
ATOM      6  C   UNL     1       2.088   6.766  19.780  0.00  0.00    +0.000 C 
ENDROOT
BRANCH   4   7
ATOM      7  C   UNL     1       0.694   9.695  19.460  0.00  0.00    +0.000 A 
ATOM      8  C   UNL     1       1.241   9.971  20.656  0.00  0.00    +0.000 A 
ATOM      9  N   UNL     1       0.657  10.696  21.665  0.00  0.00    +0.000 NA
ATOM     10  C   UNL     1      -0.382  11.360  21.304  0.00  0.00    +0.000 A 
ATOM     11  S   UNL     1      -1.191  12.530  22.316  0.00  0.00    +0.000 S 
ATOM     12  C   UNL     1      -2.063  13.141  20.925  0.00  0.00    +0.000 A 
ATOM     13  C   UNL     1      -2.733  14.468  21.018  0.00  0.00    +0.000 C 
ATOM     14  C   UNL     1      -1.900  12.336  19.859  0.00  0.00    +0.000 A 
ATOM     15  N   UNL     1      -0.980  11.318  20.064  0.00  0.00    +0.000 N 
ATOM     16  C   UNL     1      -0.608  10.341  19.143  0.00  0.00    +0.000 A 
ATOM     17  O   UNL     1      -1.264  10.022  18.156  0.00  0.00    +0.000 OA
ENDBRANCH   4   7
BRANCH   1  23
ATOM     18  C   UNL     1       3.351   1.742  18.262  0.00  0.00    +0.000 C 
ATOM     19  C   UNL     1       3.849   3.068  18.679  0.00  0.00    +0.000 A 
ATOM     20  N   UNL     1       5.184   3.338  18.768  0.00  0.00    +0.000 NA
ATOM     21  C   UNL     1       5.223   4.611  19.105  0.00  0.00    +0.000 A 
ATOM     22  C   UNL     1       6.456   5.409  19.288  0.00  0.00    +0.000 C 
ATOM     23  N   UNL     1       3.931   5.088  19.218  0.00  0.00    +0.000 N 
ATOM     24  N   UNL     1       3.046   4.103  18.962  0.00  0.00    +0.000 NA
ENDBRANCH   1  23
TORSDOF 2
ENDMDL
MODEL 2
REMARK VINA RESULT:      -6.8      3.224      8.429
REMARK  Name = 
REMARK  5 active torsions:
REMARK  status: ('A' for Active; 'I' for Inactive)
REMARK    1  A    between atoms: C_1  and  C_2
REMARK    2  A    between atoms: C_4  and  C_5
REMARK    3  A    between atoms: N_6  and  C_7
REMARK    4  A    between atoms: C_10  and  C_12
REMARK    5  A    between atoms: C_17  and  C_18
REMARK                            x       y       z     vdW  Elec       q    Type
REMARK                         _______ _______ _______ _____ _____    ______ ____
ROOT
ATOM      1  C   UNL     1      -2.017  10.991  17.631  0.00  0.00    +0.000 C 
ATOM      2  C   UNL     1      -1.237  11.905  18.610  0.00  0.00    +0.000 C 
ATOM      3  N   UNL     1      -0.519  10.700  19.004  0.00  0.00    +0.000 N 
ATOM      4  C   UNL     1       0.733  10.626  19.526  0.00  0.00    +0.000 C 
ATOM      5  O   UNL     1       1.358  11.657  19.818  0.00  0.00    +0.000 OA
ATOM      6  C   UNL     1      -1.603   9.832  18.587  0.00  0.00    +0.000 C 
ENDROOT
BRANCH   4   7
ATOM      7  C   UNL     1       1.447   9.328  19.619  0.00  0.00    +0.000 A 
ATOM      8  C   UNL     1       1.265   8.666  20.774  0.00  0.00    +0.000 A 
ATOM      9  N   UNL     1       1.707   7.397  21.057  0.00  0.00    +0.000 NA
ATOM     10  C   UNL     1       2.092   6.730  20.029  0.00  0.00    +0.000 A 
ATOM     11  S   UNL     1       2.494   5.032  20.063  0.00  0.00    +0.000 S 
ATOM     12  C   UNL     1       2.431   4.975  18.314  0.00  0.00    +0.000 A 
ATOM     13  C   UNL     1       2.340   3.651  17.637  0.00  0.00    +0.000 C 
ATOM     14  C   UNL     1       2.348   6.212  17.791  0.00  0.00    +0.000 A 
ATOM     15  N   UNL     1       2.183   7.209  18.741  0.00  0.00    +0.000 N 
ATOM     16  C   UNL     1       2.066   8.576  18.495  0.00  0.00    +0.000 A 
ATOM     17  O   UNL     1       2.425   9.136  17.463  0.00  0.00    +0.000 OA
ENDBRANCH   4   7
BRANCH   1  23
ATOM     18  C   UNL     1      -6.351  12.915  18.771  0.00  0.00    +0.000 C 
ATOM     19  C   UNL     1      -5.268  12.197  18.068  0.00  0.00    +0.000 A 
ATOM     20  N   UNL     1      -5.404  11.782  16.774  0.00  0.00    +0.000 NA
ATOM     21  C   UNL     1      -4.233  11.248  16.494  0.00  0.00    +0.000 A 
ATOM     22  C   UNL     1      -3.844  10.682  15.182  0.00  0.00    +0.000 C 
ATOM     23  N   UNL     1      -3.416  11.340  17.605  0.00  0.00    +0.000 N 
ATOM     24  N   UNL     1      -4.076  11.932  18.621  0.00  0.00    +0.000 NA
ENDBRANCH   1  23
TORSDOF 2
ENDMDL
MODEL 3
REMARK VINA RESULT:      -6.8      2.140      2.816
REMARK  Name = 
REMARK  5 active torsions:
REMARK  status: ('A' for Active; 'I' for Inactive)
REMARK    1  A    between atoms: C_1  and  C_2
REMARK    2  A    between atoms: C_4  and  C_5
REMARK    3  A    between atoms: N_6  and  C_7
REMARK    4  A    between atoms: C_10  and  C_12
REMARK    5  A    between atoms: C_17  and  C_18
REMARK                            x       y       z     vdW  Elec       q    Type
REMARK                         _______ _______ _______ _____ _____    ______ ____
ROOT
ATOM      1  C   UNL     1       2.492   6.034  18.092  0.00  0.00    +0.000 C 
ATOM      2  C   UNL     1       2.768   6.353  19.583  0.00  0.00    +0.000 C 
ATOM      3  N   UNL     1       2.201   7.666  19.301  0.00  0.00    +0.000 N 
ATOM      4  C   UNL     1       1.602   8.506  20.185  0.00  0.00    +0.000 C 
ATOM      5  O   UNL     1       1.581   8.240  21.397  0.00  0.00    +0.000 OA
ATOM      6  C   UNL     1       2.517   7.579  17.889  0.00  0.00    +0.000 C 
ENDROOT
BRANCH   4   7
ATOM      7  C   UNL     1       0.823   9.680  19.716  0.00  0.00    +0.000 A 
ATOM      8  C   UNL     1      -0.330   9.890  20.373  0.00  0.00    +0.000 A 
ATOM      9  N   UNL     1      -1.162  10.971  20.221  0.00  0.00    +0.000 NA
ATOM     10  C   UNL     1      -0.636  11.957  19.585  0.00  0.00    +0.000 A 
ATOM     11  S   UNL     1      -1.381  13.528  19.435  0.00  0.00    +0.000 S 
ATOM     12  C   UNL     1       0.139  14.204  18.886  0.00  0.00    +0.000 A 
ATOM     13  C   UNL     1       0.318  15.682  18.898  0.00  0.00    +0.000 C 
ATOM     14  C   UNL     1       1.035  13.233  18.626  0.00  0.00    +0.000 A 
ATOM     15  N   UNL     1       0.605  11.965  18.988  0.00  0.00    +0.000 N 
ATOM     16  C   UNL     1       1.316  10.777  18.840  0.00  0.00    +0.000 A 
ATOM     17  O   UNL     1       2.263  10.617  18.075  0.00  0.00    +0.000 OA
ENDBRANCH   4   7
BRANCH   1  23
ATOM     18  C   UNL     1       6.935   4.718  16.573  0.00  0.00    +0.000 C 
ATOM     19  C   UNL     1       5.494   4.702  16.899  0.00  0.00    +0.000 A 
ATOM     20  N   UNL     1       4.768   3.545  16.888  0.00  0.00    +0.000 NA
ATOM     21  C   UNL     1       3.570   3.925  17.280  0.00  0.00    +0.000 A 
ATOM     22  C   UNL     1       2.411   3.026  17.477  0.00  0.00    +0.000 C 
ATOM     23  N   UNL     1       3.583   5.287  17.515  0.00  0.00    +0.000 N 
ATOM     24  N   UNL     1       4.806   5.793  17.259  0.00  0.00    +0.000 NA
ENDBRANCH   1  23
TORSDOF 2
ENDMDL
MODEL 4
REMARK VINA RESULT:      -6.6      1.765      1.979
REMARK  Name = 
REMARK  5 active torsions:
REMARK  status: ('A' for Active; 'I' for Inactive)
REMARK    1  A    between atoms: C_1  and  C_2
REMARK    2  A    between atoms: C_4  and  C_5
REMARK    3  A    between atoms: N_6  and  C_7
REMARK    4  A    between atoms: C_10  and  C_12
REMARK    5  A    between atoms: C_17  and  C_18
REMARK                            x       y       z     vdW  Elec       q    Type
REMARK                         _______ _______ _______ _____ _____    ______ ____
ROOT
ATOM      1  C   UNL     1       3.928   6.609  18.112  0.00  0.00    +0.000 C 
ATOM      2  C   UNL     1       3.679   7.824  17.184  0.00  0.00    +0.000 C 
ATOM      3  N   UNL     1       2.523   8.102  18.027  0.00  0.00    +0.000 N 
ATOM      4  C   UNL     1       1.931   9.307  18.235  0.00  0.00    +0.000 C 
ATOM      5  O   UNL     1       2.296  10.309  17.601  0.00  0.00    +0.000 OA
ATOM      6  C   UNL     1       2.411   6.720  18.452  0.00  0.00    +0.000 C 
ENDROOT
BRANCH   4   7
ATOM      7  C   UNL     1       0.945   9.496  19.328  0.00  0.00    +0.000 A 
ATOM      8  C   UNL     1       1.347   9.057  20.532  0.00  0.00    +0.000 A 
ATOM      9  N   UNL     1       0.681   9.229  21.721  0.00  0.00    +0.000 NA
ATOM     10  C   UNL     1      -0.261  10.101  21.676  0.00  0.00    +0.000 A 
ATOM     11  S   UNL     1      -1.124  10.677  23.080  0.00  0.00    +0.000 S 
ATOM     12  C   UNL     1      -1.769  12.010  22.146  0.00  0.00    +0.000 A 
ATOM     13  C   UNL     1      -2.365  13.172  22.861  0.00  0.00    +0.000 C 
ATOM     14  C   UNL     1      -1.516  11.850  20.833  0.00  0.00    +0.000 A 
ATOM     15  N   UNL     1      -0.694  10.769  20.552  0.00  0.00    +0.000 N 
ATOM     16  C   UNL     1      -0.264  10.363  19.290  0.00  0.00    +0.000 A 
ATOM     17  O   UNL     1      -0.803  10.673  18.232  0.00  0.00    +0.000 OA
ENDBRANCH   4   7
BRANCH   1  23
ATOM     18  C   UNL     1       5.965   3.765  14.715  0.00  0.00    +0.000 C 
ATOM     19  C   UNL     1       5.243   4.229  15.917  0.00  0.00    +0.000 A 
ATOM     20  N   UNL     1       4.908   3.373  16.927  0.00  0.00    +0.000 NA
ATOM     21  C   UNL     1       4.342   4.156  17.823  0.00  0.00    +0.000 A 
ATOM     22  C   UNL     1       3.834   3.717  19.142  0.00  0.00    +0.000 C 
ATOM     23  N   UNL     1       4.337   5.455  17.349  0.00  0.00    +0.000 N 
ATOM     24  N   UNL     1       4.898   5.507  16.124  0.00  0.00    +0.000 NA
ENDBRANCH   1  23
TORSDOF 2
ENDMDL
MODEL 5
REMARK VINA RESULT:      -6.6      2.076      2.764
REMARK  Name = 
REMARK  5 active torsions:
REMARK  status: ('A' for Active; 'I' for Inactive)
REMARK    1  A    between atoms: C_1  and  C_2
REMARK    2  A    between atoms: C_4  and  C_5
REMARK    3  A    between atoms: N_6  and  C_7
REMARK    4  A    between atoms: C_10  and  C_12
REMARK    5  A    between atoms: C_17  and  C_18
REMARK                            x       y       z     vdW  Elec       q    Type
REMARK                         _______ _______ _______ _____ _____    ______ ____
ROOT
ATOM      1  C   UNL     1       2.608   6.057  18.004  0.00  0.00    +0.000 C 
ATOM      2  C   UNL     1       2.553   5.935  19.548  0.00  0.00    +0.000 C 
ATOM      3  N   UNL     1       2.221   7.354  19.546  0.00  0.00    +0.000 N 
ATOM      4  C   UNL     1       1.524   8.034  20.494  0.00  0.00    +0.000 C 
ATOM      5  O   UNL     1       1.185   7.477  21.549  0.00  0.00    +0.000 OA
ATOM      6  C   UNL     1       2.854   7.574  18.260  0.00  0.00    +0.000 C 
ENDROOT
BRANCH   4   7
ATOM      7  C   UNL     1       1.016   9.404  20.234  0.00  0.00    +0.000 A 
ATOM      8  C   UNL     1       0.690   9.651  18.955  0.00  0.00    +0.000 A 
ATOM      9  N   UNL     1       0.082  10.787  18.480  0.00  0.00    +0.000 NA
ATOM     10  C   UNL     1      -0.430  11.533  19.393  0.00  0.00    +0.000 A 
ATOM     11  S   UNL     1      -1.444  12.915  19.066  0.00  0.00    +0.000 S 
ATOM     12  C   UNL     1      -1.951  12.948  20.742  0.00  0.00    +0.000 A 
ATOM     13  C   UNL     1      -3.162  13.730  21.115  0.00  0.00    +0.000 C 
ATOM     14  C   UNL     1      -1.204  12.116  21.491  0.00  0.00    +0.000 A 
ATOM     15  N   UNL     1      -0.328  11.335  20.752  0.00  0.00    +0.000 N 
ATOM     16  C   UNL     1       0.562  10.388  21.254  0.00  0.00    +0.000 A 
ATOM     17  O   UNL     1       0.952  10.339  22.417  0.00  0.00    +0.000 OA
ENDBRANCH   4   7
BRANCH   1  23
ATOM     18  C   UNL     1       7.106   4.677  16.722  0.00  0.00    +0.000 C 
ATOM     19  C   UNL     1       5.648   4.690  16.952  0.00  0.00    +0.000 A 
ATOM     20  N   UNL     1       4.895   3.555  16.844  0.00  0.00    +0.000 NA
ATOM     21  C   UNL     1       3.683   3.953  17.174  0.00  0.00    +0.000 A 
ATOM     22  C   UNL     1       2.491   3.080  17.257  0.00  0.00    +0.000 C 
ATOM     23  N   UNL     1       3.715   5.303  17.468  0.00  0.00    +0.000 N 
ATOM     24  N   UNL     1       4.965   5.785  17.314  0.00  0.00    +0.000 NA
ENDBRANCH   1  23
TORSDOF 2
ENDMDL
MODEL 6
REMARK VINA RESULT:      -6.6      2.670      8.556
REMARK  Name = 
REMARK  5 active torsions:
REMARK  status: ('A' for Active; 'I' for Inactive)
REMARK    1  A    between atoms: C_1  and  C_2
REMARK    2  A    between atoms: C_4  and  C_5
REMARK    3  A    between atoms: N_6  and  C_7
REMARK    4  A    between atoms: C_10  and  C_12
REMARK    5  A    between atoms: C_17  and  C_18
REMARK                            x       y       z     vdW  Elec       q    Type
REMARK                         _______ _______ _______ _____ _____    ______ ____
ROOT
ATOM      1  C   UNL     1      -0.480  10.124  19.845  0.00  0.00    +0.000 C 
ATOM      2  C   UNL     1       0.490  10.416  18.673  0.00  0.00    +0.000 C 
ATOM      3  N   UNL     1       1.258   9.277  19.159  0.00  0.00    +0.000 N 
ATOM      4  C   UNL     1       2.087   8.480  18.436  0.00  0.00    +0.000 C 
ATOM      5  O   UNL     1       2.345   8.744  17.252  0.00  0.00    +0.000 OA
ATOM      6  C   UNL     1       0.736   9.409  20.505  0.00  0.00    +0.000 C 
ENDROOT
BRANCH   4   7
ATOM      7  C   UNL     1       2.584   7.194  18.987  0.00  0.00    +0.000 A 
ATOM      8  C   UNL     1       1.883   6.720  20.031  0.00  0.00    +0.000 A 
ATOM      9  N   UNL     1       2.056   5.498  20.634  0.00  0.00    +0.000 NA
ATOM     10  C   UNL     1       2.774   4.674  19.959  0.00  0.00    +0.000 A 
ATOM     11  S   UNL     1       2.977   2.991  20.376  0.00  0.00    +0.000 S 
ATOM     12  C   UNL     1       3.640   2.670  18.788  0.00  0.00    +0.000 A 
ATOM     13  C   UNL     1       3.724   1.261  18.311  0.00  0.00    +0.000 C 
ATOM     14  C   UNL     1       3.888   3.815  18.125  0.00  0.00    +0.000 A 
ATOM     15  N   UNL     1       3.432   4.949  18.781  0.00  0.00    +0.000 N 
ATOM     16  C   UNL     1       3.546   6.264  18.336  0.00  0.00    +0.000 A 
ATOM     17  O   UNL     1       4.347   6.652  17.490  0.00  0.00    +0.000 OA
ENDBRANCH   4   7
BRANCH   1  23
ATOM     18  C   UNL     1      -0.625  14.181  22.548  0.00  0.00    +0.000 C 
ATOM     19  C   UNL     1      -0.973  13.112  21.590  0.00  0.00    +0.000 A 
ATOM     20  N   UNL     1      -2.005  13.250  20.706  0.00  0.00    +0.000 NA
ATOM     21  C   UNL     1      -1.961  12.138  20.002  0.00  0.00    +0.000 A 
ATOM     22  C   UNL     1      -2.855  11.809  18.868  0.00  0.00    +0.000 C 
ATOM     23  N   UNL     1      -0.923  11.351  20.463  0.00  0.00    +0.000 N 
ATOM     24  N   UNL     1      -0.296  11.960  21.490  0.00  0.00    +0.000 NA
ENDBRANCH   1  23
TORSDOF 2
ENDMDL
MODEL 7
REMARK VINA RESULT:      -6.5      3.467      8.473
REMARK  Name = 
REMARK  5 active torsions:
REMARK  status: ('A' for Active; 'I' for Inactive)
REMARK    1  A    between atoms: C_1  and  C_2
REMARK    2  A    between atoms: C_4  and  C_5
REMARK    3  A    between atoms: N_6  and  C_7
REMARK    4  A    between atoms: C_10  and  C_12
REMARK    5  A    between atoms: C_17  and  C_18
REMARK                            x       y       z     vdW  Elec       q    Type
REMARK                         _______ _______ _______ _____ _____    ______ ____
ROOT
ATOM      1  C   UNL     1       1.312   9.147  20.986  0.00  0.00    +0.000 C 
ATOM      2  C   UNL     1       0.700   7.726  20.903  0.00  0.00    +0.000 C 
ATOM      3  N   UNL     1       1.812   7.410  20.014  0.00  0.00    +0.000 N 
ATOM      4  C   UNL     1       2.362   6.187  19.792  0.00  0.00    +0.000 C 
ATOM      5  O   UNL     1       1.858   5.168  20.289  0.00  0.00    +0.000 OA
ATOM      6  C   UNL     1       1.989   8.795  19.627  0.00  0.00    +0.000 C 
ENDROOT
BRANCH   4   7
ATOM      7  C   UNL     1       3.659   6.049  19.085  0.00  0.00    +0.000 A 
ATOM      8  C   UNL     1       4.499   5.147  19.619  0.00  0.00    +0.000 A 
ATOM      9  N   UNL     1       5.698   4.741  19.085  0.00  0.00    +0.000 NA
ATOM     10  C   UNL     1       5.870   5.080  17.858  0.00  0.00    +0.000 A 
ATOM     11  S   UNL     1       7.193   4.517  16.868  0.00  0.00    +0.000 S 
ATOM     12  C   UNL     1       6.367   5.082  15.431  0.00  0.00    +0.000 A 
ATOM     13  C   UNL     1       6.814   4.587  14.099  0.00  0.00    +0.000 C 
ATOM     14  C   UNL     1       5.300   5.838  15.750  0.00  0.00    +0.000 A 
ATOM     15  N   UNL     1       5.024   5.868  17.109  0.00  0.00    +0.000 N 
ATOM     16  C   UNL     1       3.987   6.562  17.728  0.00  0.00    +0.000 A 
ATOM     17  O   UNL     1       3.379   7.505  17.229  0.00  0.00    +0.000 OA
ENDBRANCH   4   7
BRANCH   1  23
ATOM     18  C   UNL     1      -2.039  12.321  19.412  0.00  0.00    +0.000 C 
ATOM     19  C   UNL     1      -1.187  11.487  20.283  0.00  0.00    +0.000 A 
ATOM     20  N   UNL     1      -1.453  11.335  21.614  0.00  0.00    +0.000 NA
ATOM     21  C   UNL     1      -0.526  10.493  22.023  0.00  0.00    +0.000 A 
ATOM     22  C   UNL     1      -0.401   9.964  23.400  0.00  0.00    +0.000 C 
ATOM     23  N   UNL     1       0.280  10.154  20.953  0.00  0.00    +0.000 N 
ATOM     24  N   UNL     1      -0.127  10.797  19.840  0.00  0.00    +0.000 NA
ENDBRANCH   1  23
TORSDOF 2
ENDMDL
MODEL 8
REMARK VINA RESULT:      -6.5      1.688      1.844
REMARK  Name = 
REMARK  5 active torsions:
REMARK  status: ('A' for Active; 'I' for Inactive)
REMARK    1  A    between atoms: C_1  and  C_2
REMARK    2  A    between atoms: C_4  and  C_5
REMARK    3  A    between atoms: N_6  and  C_7
REMARK    4  A    between atoms: C_10  and  C_12
REMARK    5  A    between atoms: C_17  and  C_18
REMARK                            x       y       z     vdW  Elec       q    Type
REMARK                         _______ _______ _______ _____ _____    ______ ____
ROOT
ATOM      1  C   UNL     1       2.921   6.863  19.659  0.00  0.00    +0.000 C 
ATOM      2  C   UNL     1       2.154   7.485  18.465  0.00  0.00    +0.000 C 
ATOM      3  N   UNL     1       1.552   8.378  19.448  0.00  0.00    +0.000 N 
ATOM      4  C   UNL     1       1.054   9.622  19.227  0.00  0.00    +0.000 C 
ATOM      5  O   UNL     1       0.981  10.080  18.077  0.00  0.00    +0.000 OA
ATOM      6  C   UNL     1       1.769   7.443  20.534  0.00  0.00    +0.000 C 
ENDROOT
BRANCH   4   7
ATOM      7  C   UNL     1       0.730  10.527  20.358  0.00  0.00    +0.000 A 
ATOM      8  C   UNL     1       1.181  11.785  20.221  0.00  0.00    +0.000 A 
ATOM      9  N   UNL     1       0.907  12.839  21.058  0.00  0.00    +0.000 NA
ATOM     10  C   UNL     1      -0.063  12.627  21.873  0.00  0.00    +0.000 A 
ATOM     11  S   UNL     1      -0.765  13.857  22.893  0.00  0.00    +0.000 S 
ATOM     12  C   UNL     1      -2.138  12.818  23.213  0.00  0.00    +0.000 A 
ATOM     13  C   UNL     1      -3.376  13.414  23.788  0.00  0.00    +0.000 C 
ATOM     14  C   UNL     1      -1.918  11.570  22.759  0.00  0.00    +0.000 A 
ATOM     15  N   UNL     1      -0.746  11.441  22.028  0.00  0.00    +0.000 N 
ATOM     16  C   UNL     1      -0.263  10.276  21.437  0.00  0.00    +0.000 A 
ATOM     17  O   UNL     1      -0.605   9.138  21.748  0.00  0.00    +0.000 OA
ENDBRANCH   4   7
BRANCH   1  23
ATOM     18  C   UNL     1       1.662   2.190  19.057  0.00  0.00    +0.000 C 
ATOM     19  C   UNL     1       2.450   3.425  19.241  0.00  0.00    +0.000 A 
ATOM     20  N   UNL     1       3.807   3.441  19.077  0.00  0.00    +0.000 NA
ATOM     21  C   UNL     1       4.128   4.705  19.264  0.00  0.00    +0.000 A 
ATOM     22  C   UNL     1       5.494   5.264  19.152  0.00  0.00    +0.000 C 
ATOM     23  N   UNL     1       2.981   5.426  19.539  0.00  0.00    +0.000 N 
ATOM     24  N   UNL     1       1.907   4.612  19.540  0.00  0.00    +0.000 NA
ENDBRANCH   1  23
TORSDOF 2
ENDMDL
MODEL 9
REMARK VINA RESULT:      -6.5      2.638      8.518
REMARK  Name = 
REMARK  5 active torsions:
REMARK  status: ('A' for Active; 'I' for Inactive)
REMARK    1  A    between atoms: C_1  and  C_2
REMARK    2  A    between atoms: C_4  and  C_5
REMARK    3  A    between atoms: N_6  and  C_7
REMARK    4  A    between atoms: C_10  and  C_12
REMARK    5  A    between atoms: C_17  and  C_18
REMARK                            x       y       z     vdW  Elec       q    Type
REMARK                         _______ _______ _______ _____ _____    ______ ____
ROOT
ATOM      1  C   UNL     1      -0.323  10.378  20.161  0.00  0.00    +0.000 C 
ATOM      2  C   UNL     1       0.485  10.586  18.855  0.00  0.00    +0.000 C 
ATOM      3  N   UNL     1       1.274   9.436  19.281  0.00  0.00    +0.000 N 
ATOM      4  C   UNL     1       1.968   8.579  18.486  0.00  0.00    +0.000 C 
ATOM      5  O   UNL     1       2.067   8.787  17.267  0.00  0.00    +0.000 OA
ATOM      6  C   UNL     1       0.949   9.641  20.678  0.00  0.00    +0.000 C 
ENDROOT
BRANCH   4   7
ATOM      7  C   UNL     1       2.492   7.298  19.020  0.00  0.00    +0.000 A 
ATOM      8  C   UNL     1       1.818   6.808  20.074  0.00  0.00    +0.000 A 
ATOM      9  N   UNL     1       2.019   5.586  20.666  0.00  0.00    +0.000 NA
ATOM     10  C   UNL     1       2.735   4.775  19.973  0.00  0.00    +0.000 A 
ATOM     11  S   UNL     1       2.969   3.093  20.376  0.00  0.00    +0.000 S 
ATOM     12  C   UNL     1       3.606   2.789  18.773  0.00  0.00    +0.000 A 
ATOM     13  C   UNL     1       3.699   1.385  18.286  0.00  0.00    +0.000 C 
ATOM     14  C   UNL     1       3.825   3.942  18.113  0.00  0.00    +0.000 A 
ATOM     15  N   UNL     1       3.366   5.066  18.784  0.00  0.00    +0.000 N 
ATOM     16  C   UNL     1       3.454   6.385  18.345  0.00  0.00    +0.000 A 
ATOM     17  O   UNL     1       4.233   6.788  17.486  0.00  0.00    +0.000 OA
ENDBRANCH   4   7
BRANCH   1  23
ATOM     18  C   UNL     1      -1.505  15.062  20.826  0.00  0.00    +0.000 C 
ATOM     19  C   UNL     1      -1.180  13.642  21.069  0.00  0.00    +0.000 A 
ATOM     20  N   UNL     1      -1.374  13.060  22.290  0.00  0.00    +0.000 NA
ATOM     21  C   UNL     1      -1.030  11.804  22.094  0.00  0.00    +0.000 A 
ATOM     22  C   UNL     1      -1.101  10.731  23.111  0.00  0.00    +0.000 C 
ATOM     23  N   UNL     1      -0.634  11.644  20.780  0.00  0.00    +0.000 N 
ATOM     24  N   UNL     1      -0.712  12.818  20.122  0.00  0.00    +0.000 NA
ENDBRANCH   1  23
TORSDOF 2
ENDMDL
