MODEL 1
REMARK VINA RESULT:      -6.4      0.000      0.000
REMARK  Name = 
REMARK  5 active torsions:
REMARK  status: ('A' for Active; 'I' for Inactive)
REMARK    1  A    between atoms: C_1  and  C_2
REMARK    2  A    between atoms: C_6  and  N_7
REMARK    3  A    between atoms: C_8  and  S_9
REMARK    4  A    between atoms: C_13  and  O_14
REMARK    5  A    between atoms: C_17  and  C_18
REMARK                            x       y       z     vdW  Elec       q    Type
REMARK                         _______ _______ _______ _____ _____    ______ ____
ROOT
ATOM      1  N   UNL     1       3.203   7.321  18.346  0.00  0.00    +0.000 NA
ATOM      2  C   UNL     1       3.847   6.193  18.339  0.00  0.00    +0.000 C 
ATOM      3  N   UNL     1       4.807   5.926  17.387  0.00  0.00    +0.000 N 
ATOM      4  C   UNL     1       5.930   6.828  17.192  0.00  0.00    +0.000 C 
ATOM      5  C   UNL     1       7.211   5.992  17.185  0.00  0.00    +0.000 C 
ATOM      6  C   UNL     1       7.145   4.843  16.173  0.00  0.00    +0.000 C 
ATOM      7  C   UNL     1       5.848   4.035  16.278  0.00  0.00    +0.000 C 
ATOM      8  C   UNL     1       4.615   4.932  16.340  0.00  0.00    +0.000 C 
ENDROOT
BRANCH   1  14
ATOM      9  C   UNL     1      -0.179  10.772  19.586  0.00  0.00    +0.000 C 
ATOM     10  C   UNL     1       0.603   9.517  19.888  0.00  0.00    +0.000 A 
ATOM     11  C   UNL     1       0.308   8.813  21.061  0.00  0.00    +0.000 A 
ATOM     12  C   UNL     1       0.922   7.596  21.316  0.00  0.00    +0.000 A 
ATOM     13  C   UNL     1       1.852   7.076  20.412  0.00  0.00    +0.000 A 
ATOM     14  C   UNL     1       2.254   7.793  19.278  0.00  0.00    +0.000 A 
ATOM     15  C   UNL     1       1.585   9.012  18.993  0.00  0.00    +0.000 A 
ATOM     16  C   UNL     1       1.852   9.758  17.708  0.00  0.00    +0.000 C 
ENDBRANCH   1  14
BRANCH   2  17
ATOM     17  S   UNL     1       3.751   4.910  19.539  0.00  0.00    +0.000 S 
ATOM     18  H   UNL     1       4.025   3.907  18.700  0.00  0.00    +0.000 HD
ENDBRANCH   2  17
BRANCH   6  19
ATOM     19  O   UNL     1       7.320   5.337  14.846  0.00  0.00    +0.000 OA
ATOM     20  H   UNL     1       6.526   5.835  14.582  0.00  0.00    +0.000 HD
ENDBRANCH   6  19
TORSDOF 3
ENDMDL
MODEL 2
REMARK VINA RESULT:      -6.4      1.902      2.095
REMARK  Name = 
REMARK  5 active torsions:
REMARK  status: ('A' for Active; 'I' for Inactive)
REMARK    1  A    between atoms: C_1  and  C_2
REMARK    2  A    between atoms: C_6  and  N_7
REMARK    3  A    between atoms: C_8  and  S_9
REMARK    4  A    between atoms: C_13  and  O_14
REMARK    5  A    between atoms: C_17  and  C_18
REMARK                            x       y       z     vdW  Elec       q    Type
REMARK                         _______ _______ _______ _____ _____    ______ ____
ROOT
ATOM      1  N   UNL     1       2.318   7.514  19.442  0.00  0.00    +0.000 NA
ATOM      2  C   UNL     1       2.361   6.219  19.522  0.00  0.00    +0.000 C 
ATOM      3  N   UNL     1       3.231   5.485  18.745  0.00  0.00    +0.000 N 
ATOM      4  C   UNL     1       4.658   5.759  18.767  0.00  0.00    +0.000 C 
ATOM      5  C   UNL     1       5.391   4.431  18.962  0.00  0.00    +0.000 C 
ATOM      6  C   UNL     1       4.968   3.381  17.929  0.00  0.00    +0.000 C 
ATOM      7  C   UNL     1       3.448   3.264  17.790  0.00  0.00    +0.000 C 
ATOM      8  C   UNL     1       2.776   4.628  17.657  0.00  0.00    +0.000 C 
ENDROOT
BRANCH   1  14
ATOM      9  C   UNL     1      -0.752  11.445  19.547  0.00  0.00    +0.000 C 
ATOM     10  C   UNL     1       0.058  10.380  20.245  0.00  0.00    +0.000 A 
ATOM     11  C   UNL     1      -0.030  10.280  21.638  0.00  0.00    +0.000 A 
ATOM     12  C   UNL     1       0.608   9.244  22.303  0.00  0.00    +0.000 A 
ATOM     13  C   UNL     1       1.355   8.305  21.588  0.00  0.00    +0.000 A 
ATOM     14  C   UNL     1       1.556   8.424  20.207  0.00  0.00    +0.000 A 
ATOM     15  C   UNL     1       0.860   9.454  19.523  0.00  0.00    +0.000 A 
ATOM     16  C   UNL     1       0.901   9.546  18.016  0.00  0.00    +0.000 C 
ENDBRANCH   1  14
BRANCH   2  17
ATOM     17  S   UNL     1       1.489   5.197  20.658  0.00  0.00    +0.000 S 
ATOM     18  H   UNL     1       1.707   5.959  21.734  0.00  0.00    +0.000 HD
ENDBRANCH   2  17
BRANCH   6  19
ATOM     19  O   UNL     1       5.566   3.659  16.664  0.00  0.00    +0.000 OA
ATOM     20  H   UNL     1       6.535   3.656  16.759  0.00  0.00    +0.000 HD
ENDBRANCH   6  19
TORSDOF 3
ENDMDL
MODEL 3
REMARK VINA RESULT:      -6.2      3.461      6.827
REMARK  Name = 
REMARK  5 active torsions:
REMARK  status: ('A' for Active; 'I' for Inactive)
REMARK    1  A    between atoms: C_1  and  C_2
REMARK    2  A    between atoms: C_6  and  N_7
REMARK    3  A    between atoms: C_8  and  S_9
REMARK    4  A    between atoms: C_13  and  O_14
REMARK    5  A    between atoms: C_17  and  C_18
REMARK                            x       y       z     vdW  Elec       q    Type
REMARK                         _______ _______ _______ _____ _____    ______ ____
ROOT
ATOM      1  N   UNL     1       1.833   8.021  18.713  0.00  0.00    +0.000 NA
ATOM      2  C   UNL     1       1.304   8.926  19.479  0.00  0.00    +0.000 C 
ATOM      3  N   UNL     1       0.690  10.041  18.948  0.00  0.00    +0.000 N 
ATOM      4  C   UNL     1      -0.387   9.905  17.982  0.00  0.00    +0.000 C 
ATOM      5  C   UNL     1      -1.544  10.797  18.437  0.00  0.00    +0.000 C 
ATOM      6  C   UNL     1      -1.097  12.242  18.683  0.00  0.00    +0.000 C 
ATOM      7  C   UNL     1       0.166  12.334  19.544  0.00  0.00    +0.000 C 
ATOM      8  C   UNL     1       1.257  11.377  19.070  0.00  0.00    +0.000 C 
ENDROOT
BRANCH   1  14
ATOM      9  C   UNL     1       5.499   4.709  18.019  0.00  0.00    +0.000 C 
ATOM     10  C   UNL     1       4.230   5.155  18.705  0.00  0.00    +0.000 A 
ATOM     11  C   UNL     1       3.715   4.362  19.737  0.00  0.00    +0.000 A 
ATOM     12  C   UNL     1       2.618   4.795  20.467  0.00  0.00    +0.000 A 
ATOM     13  C   UNL     1       2.011   6.016  20.162  0.00  0.00    +0.000 A 
ATOM     14  C   UNL     1       2.426   6.792  19.073  0.00  0.00    +0.000 A 
ATOM     15  C   UNL     1       3.581   6.372  18.363  0.00  0.00    +0.000 A 
ATOM     16  C   UNL     1       4.180   7.238  17.281  0.00  0.00    +0.000 C 
ENDBRANCH   1  14
BRANCH   2  17
ATOM     17  S   UNL     1       1.134   8.866  21.229  0.00  0.00    +0.000 S 
ATOM     18  H   UNL     1       1.828   9.980  21.480  0.00  0.00    +0.000 HD
ENDBRANCH   2  17
BRANCH   6  19
ATOM     19  O   UNL     1      -0.907  12.921  17.443  0.00  0.00    +0.000 OA
ATOM     20  H   UNL     1      -1.254  13.828  17.517  0.00  0.00    +0.000 HD
ENDBRANCH   6  19
TORSDOF 3
ENDMDL
MODEL 4
REMARK VINA RESULT:      -6.2      1.094      1.116
REMARK  Name = 
REMARK  5 active torsions:
REMARK  status: ('A' for Active; 'I' for Inactive)
REMARK    1  A    between atoms: C_1  and  C_2
REMARK    2  A    between atoms: C_6  and  N_7
REMARK    3  A    between atoms: C_8  and  S_9
REMARK    4  A    between atoms: C_13  and  O_14
REMARK    5  A    between atoms: C_17  and  C_18
REMARK                            x       y       z     vdW  Elec       q    Type
REMARK                         _______ _______ _______ _____ _____    ______ ____
ROOT
ATOM      1  N   UNL     1       3.166   7.496  18.986  0.00  0.00    +0.000 NA
ATOM      2  C   UNL     1       3.246   6.400  18.295  0.00  0.00    +0.000 C 
ATOM      3  N   UNL     1       4.444   5.983  17.754  0.00  0.00    +0.000 N 
ATOM      4  C   UNL     1       5.615   5.805  18.595  0.00  0.00    +0.000 C 
ATOM      5  C   UNL     1       6.217   4.433  18.283  0.00  0.00    +0.000 C 
ATOM      6  C   UNL     1       6.483   4.248  16.785  0.00  0.00    +0.000 C 
ATOM      7  C   UNL     1       5.285   4.640  15.916  0.00  0.00    +0.000 C 
ATOM      8  C   UNL     1       4.699   5.991  16.320  0.00  0.00    +0.000 C 
ENDROOT
BRANCH   1  14
ATOM      9  C   UNL     1      -0.576  10.794  19.085  0.00  0.00    +0.000 C 
ATOM     10  C   UNL     1       0.225   9.681  19.717  0.00  0.00    +0.000 A 
ATOM     11  C   UNL     1      -0.207   9.161  20.943  0.00  0.00    +0.000 A 
ATOM     12  C   UNL     1       0.434   8.063  21.498  0.00  0.00    +0.000 A 
ATOM     13  C   UNL     1       1.524   7.483  20.846  0.00  0.00    +0.000 A 
ATOM     14  C   UNL     1       2.055   8.032  19.671  0.00  0.00    +0.000 A 
ATOM     15  C   UNL     1       1.365   9.122  19.079  0.00  0.00    +0.000 A 
ATOM     16  C   UNL     1       1.784   9.663  17.733  0.00  0.00    +0.000 C 
ENDBRANCH   1  14
BRANCH   2  17
ATOM     17  S   UNL     1       1.972   5.215  18.036  0.00  0.00    +0.000 S 
ATOM     18  H   UNL     1       1.294   5.927  17.131  0.00  0.00    +0.000 HD
ENDBRANCH   2  17
BRANCH   6  19
ATOM     19  O   UNL     1       7.645   4.977  16.393  0.00  0.00    +0.000 OA
ATOM     20  H   UNL     1       8.270   5.010  17.139  0.00  0.00    +0.000 HD
ENDBRANCH   6  19
TORSDOF 3
ENDMDL
MODEL 5
REMARK VINA RESULT:      -6.1      0.992      1.045
REMARK  Name = 
REMARK  5 active torsions:
REMARK  status: ('A' for Active; 'I' for Inactive)
REMARK    1  A    between atoms: C_1  and  C_2
REMARK    2  A    between atoms: C_6  and  N_7
REMARK    3  A    between atoms: C_8  and  S_9
REMARK    4  A    between atoms: C_13  and  O_14
REMARK    5  A    between atoms: C_17  and  C_18
REMARK                            x       y       z     vdW  Elec       q    Type
REMARK                         _______ _______ _______ _____ _____    ______ ____
ROOT
ATOM      1  N   UNL     1       3.732   7.044  18.159  0.00  0.00    +0.000 NA
ATOM      2  C   UNL     1       3.911   5.948  17.486  0.00  0.00    +0.000 C 
ATOM      3  N   UNL     1       5.008   5.786  16.667  0.00  0.00    +0.000 N 
ATOM      4  C   UNL     1       6.354   5.954  17.187  0.00  0.00    +0.000 C 
ATOM      5  C   UNL     1       7.183   4.744  16.753  0.00  0.00    +0.000 C 
ATOM      6  C   UNL     1       7.118   4.513  15.239  0.00  0.00    +0.000 C 
ATOM      7  C   UNL     1       5.686   4.544  14.695  0.00  0.00    +0.000 C 
ATOM      8  C   UNL     1       4.899   5.745  15.215  0.00  0.00    +0.000 C 
ENDROOT
BRANCH   1  14
ATOM      9  C   UNL     1       0.029  10.077  19.568  0.00  0.00    +0.000 C 
ATOM     10  C   UNL     1       0.910   8.871  19.791  0.00  0.00    +0.000 A 
ATOM     11  C   UNL     1       0.648   8.048  20.892  0.00  0.00    +0.000 A 
ATOM     12  C   UNL     1       1.361   6.871  21.066  0.00  0.00    +0.000 A 
ATOM     13  C   UNL     1       2.355   6.511  20.153  0.00  0.00    +0.000 A 
ATOM     14  C   UNL     1       2.721   7.353  19.096  0.00  0.00    +0.000 A 
ATOM     15  C   UNL     1       1.956   8.530  18.891  0.00  0.00    +0.000 A 
ATOM     16  C   UNL     1       2.189   9.402  17.681  0.00  0.00    +0.000 C 
ENDBRANCH   1  14
BRANCH   2  17
ATOM     17  S   UNL     1       2.947   4.479  17.575  0.00  0.00    +0.000 S 
ATOM     18  H   UNL     1       1.828   5.011  17.073  0.00  0.00    +0.000 HD
ENDBRANCH   2  17
BRANCH   6  19
ATOM     19  O   UNL     1       7.932   5.464  14.556  0.00  0.00    +0.000 OA
ATOM     20  H   UNL     1       8.219   6.151  15.183  0.00  0.00    +0.000 HD
ENDBRANCH   6  19
TORSDOF 3
ENDMDL
MODEL 6
REMARK VINA RESULT:      -6.1      2.790      3.624
REMARK  Name = 
REMARK  5 active torsions:
REMARK  status: ('A' for Active; 'I' for Inactive)
REMARK    1  A    between atoms: C_1  and  C_2
REMARK    2  A    between atoms: C_6  and  N_7
REMARK    3  A    between atoms: C_8  and  S_9
REMARK    4  A    between atoms: C_13  and  O_14
REMARK    5  A    between atoms: C_17  and  C_18
REMARK                            x       y       z     vdW  Elec       q    Type
REMARK                         _______ _______ _______ _____ _____    ______ ____
ROOT
ATOM      1  N   UNL     1       1.899   7.083  19.019  0.00  0.00    +0.000 NA
ATOM      2  C   UNL     1       2.886   6.387  18.543  0.00  0.00    +0.000 C 
ATOM      3  N   UNL     1       2.884   5.010  18.606  0.00  0.00    +0.000 N 
ATOM      4  C   UNL     1       1.780   4.243  18.053  0.00  0.00    +0.000 C 
ATOM      5  C   UNL     1       2.366   3.141  17.169  0.00  0.00    +0.000 C 
ATOM      6  C   UNL     1       3.407   2.297  17.913  0.00  0.00    +0.000 C 
ATOM      7  C   UNL     1       4.441   3.149  18.654  0.00  0.00    +0.000 C 
ATOM      8  C   UNL     1       3.792   4.265  19.468  0.00  0.00    +0.000 C 
ENDROOT
BRANCH   1  14
ATOM      9  C   UNL     1       0.372  11.231  21.332  0.00  0.00    +0.000 C 
ATOM     10  C   UNL     1       0.918  10.516  20.120  0.00  0.00    +0.000 A 
ATOM     11  C   UNL     1       1.278  11.278  19.002  0.00  0.00    +0.000 A 
ATOM     12  C   UNL     1       1.889  10.671  17.914  0.00  0.00    +0.000 A 
ATOM     13  C   UNL     1       2.131   9.296  17.923  0.00  0.00    +0.000 A 
ATOM     14  C   UNL     1       1.696   8.479  18.974  0.00  0.00    +0.000 A 
ATOM     15  C   UNL     1       1.119   9.109  20.107  0.00  0.00    +0.000 A 
ATOM     16  C   UNL     1       0.772   8.313  21.341  0.00  0.00    +0.000 C 
ENDBRANCH   1  14
BRANCH   2  17
ATOM     17  S   UNL     1       4.274   6.991  17.646  0.00  0.00    +0.000 S 
ATOM     18  H   UNL     1       4.038   8.287  17.873  0.00  0.00    +0.000 HD
ENDBRANCH   2  17
BRANCH   6  19
ATOM     19  O   UNL     1       2.765   1.396  18.814  0.00  0.00    +0.000 OA
ATOM     20  H   UNL     1       1.838   1.275  18.542  0.00  0.00    +0.000 HD
ENDBRANCH   6  19
TORSDOF 3
ENDMDL
MODEL 7
REMARK VINA RESULT:      -6.1      1.131      1.139
REMARK  Name = 
REMARK  5 active torsions:
REMARK  status: ('A' for Active; 'I' for Inactive)
REMARK    1  A    between atoms: C_1  and  C_2
REMARK    2  A    between atoms: C_6  and  N_7
REMARK    3  A    between atoms: C_8  and  S_9
REMARK    4  A    between atoms: C_13  and  O_14
REMARK    5  A    between atoms: C_17  and  C_18
REMARK                            x       y       z     vdW  Elec       q    Type
REMARK                         _______ _______ _______ _____ _____    ______ ____
ROOT
ATOM      1  N   UNL     1       3.073   6.444  17.941  0.00  0.00    +0.000 NA
ATOM      2  C   UNL     1       4.124   5.681  17.951  0.00  0.00    +0.000 C 
ATOM      3  N   UNL     1       4.720   5.273  16.777  0.00  0.00    +0.000 N 
ATOM      4  C   UNL     1       5.157   6.246  15.789  0.00  0.00    +0.000 C 
ATOM      5  C   UNL     1       6.595   5.904  15.394  0.00  0.00    +0.000 C 
ATOM      6  C   UNL     1       6.739   4.445  14.947  0.00  0.00    +0.000 C 
ATOM      7  C   UNL     1       6.085   3.459  15.920  0.00  0.00    +0.000 C 
ATOM      8  C   UNL     1       4.677   3.892  16.317  0.00  0.00    +0.000 C 
ENDROOT
BRANCH   1  14
ATOM      9  C   UNL     1       0.728  10.397  19.881  0.00  0.00    +0.000 C 
ATOM     10  C   UNL     1       1.249   8.984  19.986  0.00  0.00    +0.000 A 
ATOM     11  C   UNL     1       0.966   8.253  21.146  0.00  0.00    +0.000 A 
ATOM     12  C   UNL     1       1.327   6.917  21.232  0.00  0.00    +0.000 A 
ATOM     13  C   UNL     1       1.990   6.299  20.168  0.00  0.00    +0.000 A 
ATOM     14  C   UNL     1       2.384   7.017  19.032  0.00  0.00    +0.000 A 
ATOM     15  C   UNL     1       1.968   8.369  18.925  0.00  0.00    +0.000 A 
ATOM     16  C   UNL     1       2.218   9.158  17.662  0.00  0.00    +0.000 C 
ENDBRANCH   1  14
BRANCH   2  17
ATOM     17  S   UNL     1       5.041   5.158  19.359  0.00  0.00    +0.000 S 
ATOM     18  H   UNL     1       5.622   4.108  18.769  0.00  0.00    +0.000 HD
ENDBRANCH   2  17
BRANCH   6  19
ATOM     19  O   UNL     1       6.212   4.273  13.632  0.00  0.00    +0.000 OA
ATOM     20  H   UNL     1       6.942   4.089  13.015  0.00  0.00    +0.000 HD
ENDBRANCH   6  19
TORSDOF 3
ENDMDL
MODEL 8
REMARK VINA RESULT:      -5.9      2.776      3.641
REMARK  Name = 
REMARK  5 active torsions:
REMARK  status: ('A' for Active; 'I' for Inactive)
REMARK    1  A    between atoms: C_1  and  C_2
REMARK    2  A    between atoms: C_6  and  N_7
REMARK    3  A    between atoms: C_8  and  S_9
REMARK    4  A    between atoms: C_13  and  O_14
REMARK    5  A    between atoms: C_17  and  C_18
REMARK                            x       y       z     vdW  Elec       q    Type
REMARK                         _______ _______ _______ _____ _____    ______ ____
ROOT
ATOM      1  N   UNL     1       2.886   6.659  19.195  0.00  0.00    +0.000 NA
ATOM      2  C   UNL     1       2.626   5.496  18.678  0.00  0.00    +0.000 C 
ATOM      3  N   UNL     1       3.339   4.376  19.050  0.00  0.00    +0.000 N 
ATOM      4  C   UNL     1       3.434   3.986  20.447  0.00  0.00    +0.000 C 
ATOM      5  C   UNL     1       3.093   2.499  20.546  0.00  0.00    +0.000 C 
ATOM      6  C   UNL     1       3.942   1.647  19.596  0.00  0.00    +0.000 C 
ATOM      7  C   UNL     1       3.980   2.207  18.171  0.00  0.00    +0.000 C 
ATOM      8  C   UNL     1       4.267   3.706  18.149  0.00  0.00    +0.000 C 
ENDROOT
BRANCH   1  14
ATOM      9  C   UNL     1      -0.138  10.192  21.000  0.00  0.00    +0.000 C 
ATOM     10  C   UNL     1       0.705   9.612  19.890  0.00  0.00    +0.000 A 
ATOM     11  C   UNL     1       0.857  10.352  18.712  0.00  0.00    +0.000 A 
ATOM     12  C   UNL     1       1.715   9.906  17.717  0.00  0.00    +0.000 A 
ATOM     13  C   UNL     1       2.416   8.709  17.879  0.00  0.00    +0.000 A 
ATOM     14  C   UNL     1       2.217   7.886  18.994  0.00  0.00    +0.000 A 
ATOM     15  C   UNL     1       1.380   8.369  20.033  0.00  0.00    +0.000 A 
ATOM     16  C   UNL     1       1.244   7.612  21.332  0.00  0.00    +0.000 C 
ENDBRANCH   1  14
BRANCH   2  17
ATOM     17  S   UNL     1       1.310   5.092  17.583  0.00  0.00    +0.000 S 
ATOM     18  H   UNL     1       1.991   5.309  16.453  0.00  0.00    +0.000 HD
ENDBRANCH   2  17
BRANCH   6  19
ATOM     19  O   UNL     1       5.266   1.499  20.109  0.00  0.00    +0.000 OA
ATOM     20  H   UNL     1       5.528   0.562  20.056  0.00  0.00    +0.000 HD
ENDBRANCH   6  19
TORSDOF 3
ENDMDL
MODEL 9
REMARK VINA RESULT:      -5.9      3.169      4.626
REMARK  Name = 
REMARK  5 active torsions:
REMARK  status: ('A' for Active; 'I' for Inactive)
REMARK    1  A    between atoms: C_1  and  C_2
REMARK    2  A    between atoms: C_6  and  N_7
REMARK    3  A    between atoms: C_8  and  S_9
REMARK    4  A    between atoms: C_13  and  O_14
REMARK    5  A    between atoms: C_17  and  C_18
REMARK                            x       y       z     vdW  Elec       q    Type
REMARK                         _______ _______ _______ _____ _____    ______ ____
ROOT
ATOM      1  N   UNL     1       4.415   4.176  16.754  0.00  0.00    +0.000 NA
ATOM      2  C   UNL     1       5.022   4.913  15.875  0.00  0.00    +0.000 C 
ATOM      3  N   UNL     1       5.673   4.350  14.799  0.00  0.00    +0.000 N 
ATOM      4  C   UNL     1       4.973   3.452  13.895  0.00  0.00    +0.000 C 
ATOM      5  C   UNL     1       5.249   3.914  12.463  0.00  0.00    +0.000 C 
ATOM      6  C   UNL     1       6.749   4.048  12.179  0.00  0.00    +0.000 C 
ATOM      7  C   UNL     1       7.490   4.833  13.265  0.00  0.00    +0.000 C 
ATOM      8  C   UNL     1       7.124   4.360  14.669  0.00  0.00    +0.000 C 
ENDROOT
BRANCH   1  14
ATOM      9  C   UNL     1       0.815   3.097  20.036  0.00  0.00    +0.000 C 
ATOM     10  C   UNL     1       1.846   4.040  19.464  0.00  0.00    +0.000 A 
ATOM     11  C   UNL     1       2.054   5.268  20.104  0.00  0.00    +0.000 A 
ATOM     12  C   UNL     1       3.070   6.111  19.678  0.00  0.00    +0.000 A 
ATOM     13  C   UNL     1       3.878   5.746  18.598  0.00  0.00    +0.000 A 
ATOM     14  C   UNL     1       3.641   4.577  17.864  0.00  0.00    +0.000 A 
ATOM     15  C   UNL     1       2.635   3.693  18.334  0.00  0.00    +0.000 A 
ATOM     16  C   UNL     1       2.430   2.343  17.691  0.00  0.00    +0.000 C 
ENDBRANCH   1  14
BRANCH   2  17
ATOM     17  S   UNL     1       5.026   6.670  15.786  0.00  0.00    +0.000 S 
ATOM     18  H   UNL     1       6.030   6.856  16.649  0.00  0.00    +0.000 HD
ENDBRANCH   2  17
BRANCH   6  19
ATOM     19  O   UNL     1       7.339   2.761  12.003  0.00  0.00    +0.000 OA
ATOM     20  H   UNL     1       6.772   2.088  12.418  0.00  0.00    +0.000 HD
ENDBRANCH   6  19
TORSDOF 3
ENDMDL
