MODEL 1
REMARK VINA RESULT:      -9.6      0.000      0.000
REMARK  Name = 
REMARK  2 active torsions:
REMARK  status: ('A' for Active; 'I' for Inactive)
REMARK    1  A    between atoms: C_6  and  C_7
REMARK    2  A    between atoms: C_14  and  C_15
REMARK                            x       y       z     vdW  Elec       q    Type
REMARK                         _______ _______ _______ _____ _____    ______ ____
ROOT
ATOM      1  N   UNL     1       7.775   5.373  14.543  0.00  0.00    +0.000 N 
ATOM      2  C   UNL     1       6.674   5.339  15.339  0.00  0.00    +0.000 A 
ATOM      3  N   UNL     1       6.107   6.440  15.737  0.00  0.00    +0.000 NA
ATOM      4  C   UNL     1       5.032   6.237  16.534  0.00  0.00    +0.000 A 
ATOM      5  N   UNL     1       4.284   7.254  17.047  0.00  0.00    +0.000 N 
ATOM      6  C   UNL     1       3.271   6.759  17.849  0.00  0.00    +0.000 A 
ATOM      7  C   UNL     1       3.386   5.355  17.823  0.00  0.00    +0.000 A 
ATOM      8  C   UNL     1       4.497   5.050  16.971  0.00  0.00    +0.000 A 
ATOM      9  C   UNL     1       5.155   3.840  16.521  0.00  0.00    +0.000 A 
ATOM     10  O   UNL     1       4.823   2.695  16.808  0.00  0.00    +0.000 OA
ATOM     11  N   UNL     1       6.235   4.083  15.695  0.00  0.00    +0.000 N 
ATOM     12  H   UNL     1       8.209   6.291  14.525  0.00  0.00    +0.000 HD
ATOM     13  H   UNL     1       8.442   4.621  14.643  0.00  0.00    +0.000 HD
ATOM     14  H   UNL     1       4.464   8.230  16.859  0.00  0.00    +0.000 HD
ATOM     15  H   UNL     1       6.683   3.265  15.325  0.00  0.00    +0.000 HD
ENDROOT
BRANCH   6  16
ATOM     16  C   UNL     1       2.353   7.682  18.548  0.00  0.00    +0.000 A 
ATOM     17  C   UNL     1       2.066   7.530  19.913  0.00  0.00    +0.000 A 
ATOM     18  C   UNL     1       1.351   8.507  20.610  0.00  0.00    +0.000 A 
ATOM     19  C   UNL     1       0.853   9.607  19.928  0.00  0.00    +0.000 A 
ATOM     20  F   UNL     1       0.184  10.555  20.596  0.00  0.00    +0.000 F 
ATOM     21  C   UNL     1       1.047   9.741  18.559  0.00  0.00    +0.000 A 
ATOM     22  C   UNL     1       1.802   8.786  17.872  0.00  0.00    +0.000 A 
ENDBRANCH   6  16
BRANCH   7  23
ATOM     23  C   UNL     1       2.516   4.425  18.556  0.00  0.00    +0.000 A 
ATOM     24  C   UNL     1       1.386   3.873  17.939  0.00  0.00    +0.000 A 
ATOM     25  C   UNL     1       0.528   3.012  18.634  0.00  0.00    +0.000 A 
ATOM     26  C   UNL     1       0.755   2.740  19.979  0.00  0.00    +0.000 A 
ATOM     27  C   UNL     1       1.869   3.290  20.606  0.00  0.00    +0.000 A 
ATOM     28 CL   UNL     1       2.113   3.028  22.291  0.00  0.00    +0.000 Cl
ATOM     29  C   UNL     1       2.770   4.081  19.892  0.00  0.00    +0.000 A 
ENDBRANCH   7  23
TORSDOF 2
ENDMDL
MODEL 2
REMARK VINA RESULT:      -8.9      1.035      1.695
REMARK  Name = 
REMARK  2 active torsions:
REMARK  status: ('A' for Active; 'I' for Inactive)
REMARK    1  A    between atoms: C_6  and  C_7
REMARK    2  A    between atoms: C_14  and  C_15
REMARK                            x       y       z     vdW  Elec       q    Type
REMARK                         _______ _______ _______ _____ _____    ______ ____
ROOT
ATOM      1  N   UNL     1       7.606   5.456  14.675  0.00  0.00    +0.000 N 
ATOM      2  C   UNL     1       6.543   5.491  15.522  0.00  0.00    +0.000 A 
ATOM      3  N   UNL     1       5.947   6.614  15.795  0.00  0.00    +0.000 NA
ATOM      4  C   UNL     1       4.917   6.483  16.664  0.00  0.00    +0.000 A 
ATOM      5  N   UNL     1       4.149   7.533  17.071  0.00  0.00    +0.000 N 
ATOM      6  C   UNL     1       3.194   7.115  17.981  0.00  0.00    +0.000 A 
ATOM      7  C   UNL     1       3.368   5.725  18.139  0.00  0.00    +0.000 A 
ATOM      8  C   UNL     1       4.453   5.348  17.283  0.00  0.00    +0.000 A 
ATOM      9  C   UNL     1       5.143   4.113  16.968  0.00  0.00    +0.000 A 
ATOM     10  O   UNL     1       4.873   3.007  17.423  0.00  0.00    +0.000 OA
ATOM     11  N   UNL     1       6.175   4.280  16.065  0.00  0.00    +0.000 N 
ATOM     12  H   UNL     1       7.999   6.379  14.513  0.00  0.00    +0.000 HD
ATOM     13  H   UNL     1       8.309   4.750  14.843  0.00  0.00    +0.000 HD
ATOM     14  H   UNL     1       4.279   8.479  16.744  0.00  0.00    +0.000 HD
ATOM     15  H   UNL     1       6.641   3.436  15.787  0.00  0.00    +0.000 HD
ENDROOT
BRANCH   6  16
ATOM     16  C   UNL     1       2.269   8.090  18.593  0.00  0.00    +0.000 A 
ATOM     17  C   UNL     1       1.612   9.058  17.817  0.00  0.00    +0.000 A 
ATOM     18  C   UNL     1       0.602   9.853  18.365  0.00  0.00    +0.000 A 
ATOM     19  C   UNL     1       0.295   9.737  19.712  0.00  0.00    +0.000 A 
ATOM     20  F   UNL     1      -0.686  10.483  20.236  0.00  0.00    +0.000 F 
ATOM     21  C   UNL     1       0.987   8.848  20.524  0.00  0.00    +0.000 A 
ATOM     22  C   UNL     1       1.967   8.021  19.965  0.00  0.00    +0.000 A 
ENDBRANCH   6  16
BRANCH   7  23
ATOM     23  C   UNL     1       2.572   4.873  19.033  0.00  0.00    +0.000 A 
ATOM     24  C   UNL     1       2.686   5.001  20.423  0.00  0.00    +0.000 A 
ATOM     25  C   UNL     1       1.960   4.175  21.290  0.00  0.00    +0.000 A 
ATOM     26  C   UNL     1       1.155   3.164  20.775  0.00  0.00    +0.000 A 
ATOM     27  C   UNL     1       1.042   3.020  19.396  0.00  0.00    +0.000 A 
ATOM     28 CL   UNL     1       0.116   1.720  18.750  0.00  0.00    +0.000 Cl
ATOM     29  C   UNL     1       1.700   3.897  18.532  0.00  0.00    +0.000 A 
ENDBRANCH   7  23
TORSDOF 2
ENDMDL
MODEL 3
REMARK VINA RESULT:      -8.2      2.484      4.488
REMARK  Name = 
REMARK  2 active torsions:
REMARK  status: ('A' for Active; 'I' for Inactive)
REMARK    1  A    between atoms: C_6  and  C_7
REMARK    2  A    between atoms: C_14  and  C_15
REMARK                            x       y       z     vdW  Elec       q    Type
REMARK                         _______ _______ _______ _____ _____    ______ ____
ROOT
ATOM      1  N   UNL     1       7.273   3.924  13.704  0.00  0.00    +0.000 N 
ATOM      2  C   UNL     1       6.416   4.316  14.683  0.00  0.00    +0.000 A 
ATOM      3  N   UNL     1       5.937   3.455  15.533  0.00  0.00    +0.000 NA
ATOM      4  C   UNL     1       5.088   3.999  16.435  0.00  0.00    +0.000 A 
ATOM      5  N   UNL     1       4.487   3.276  17.422  0.00  0.00    +0.000 N 
ATOM      6  C   UNL     1       3.650   4.080  18.176  0.00  0.00    +0.000 A 
ATOM      7  C   UNL     1       3.745   5.378  17.636  0.00  0.00    +0.000 A 
ATOM      8  C   UNL     1       4.673   5.304  16.548  0.00  0.00    +0.000 A 
ATOM      9  C   UNL     1       5.214   6.239  15.583  0.00  0.00    +0.000 A 
ATOM     10  O   UNL     1       4.959   7.437  15.526  0.00  0.00    +0.000 OA
ATOM     11  N   UNL     1       6.091   5.654  14.689  0.00  0.00    +0.000 N 
ATOM     12  H   UNL     1       7.276   2.916  13.576  0.00  0.00    +0.000 HD
ATOM     13  H   UNL     1       7.246   4.435  12.833  0.00  0.00    +0.000 HD
ATOM     14  H   UNL     1       4.643   2.289  17.564  0.00  0.00    +0.000 HD
ATOM     15  H   UNL     1       6.522   6.284  14.038  0.00  0.00    +0.000 HD
ENDROOT
BRANCH   6  16
ATOM     16  C   UNL     1       2.859   3.503  19.282  0.00  0.00    +0.000 A 
ATOM     17  C   UNL     1       3.479   2.980  20.427  0.00  0.00    +0.000 A 
ATOM     18  C   UNL     1       2.728   2.608  21.544  0.00  0.00    +0.000 A 
ATOM     19  C   UNL     1       1.344   2.688  21.496  0.00  0.00    +0.000 A 
ATOM     20  F   UNL     1       0.622   2.352  22.572  0.00  0.00    +0.000 F 
ATOM     21  C   UNL     1       0.698   3.121  20.345  0.00  0.00    +0.000 A 
ATOM     22  C   UNL     1       1.453   3.536  19.243  0.00  0.00    +0.000 A 
ENDBRANCH   6  16
BRANCH   7  23
ATOM     23  C   UNL     1       3.003   6.549  18.125  0.00  0.00    +0.000 A 
ATOM     24  C   UNL     1       2.733   7.626  17.271  0.00  0.00    +0.000 A 
ATOM     25  C   UNL     1       2.056   8.763  17.728  0.00  0.00    +0.000 A 
ATOM     26  C   UNL     1       1.696   8.866  19.068  0.00  0.00    +0.000 A 
ATOM     27  C   UNL     1       1.968   7.807  19.929  0.00  0.00    +0.000 A 
ATOM     28 CL   UNL     1       1.602   7.958  21.605  0.00  0.00    +0.000 Cl
ATOM     29  C   UNL     1       2.567   6.639  19.455  0.00  0.00    +0.000 A 
ENDBRANCH   7  23
TORSDOF 2
ENDMDL
MODEL 4
REMARK VINA RESULT:      -7.9      3.518      5.876
REMARK  Name = 
REMARK  2 active torsions:
REMARK  status: ('A' for Active; 'I' for Inactive)
REMARK    1  A    between atoms: C_6  and  C_7
REMARK    2  A    between atoms: C_14  and  C_15
REMARK                            x       y       z     vdW  Elec       q    Type
REMARK                         _______ _______ _______ _____ _____    ______ ____
ROOT
ATOM      1  N   UNL     1       0.894  12.147  18.865  0.00  0.00    +0.000 N 
ATOM      2  C   UNL     1       1.268  10.841  18.911  0.00  0.00    +0.000 A 
ATOM      3  N   UNL     1       2.133  10.367  18.063  0.00  0.00    +0.000 NA
ATOM      4  C   UNL     1       2.389   9.049  18.231  0.00  0.00    +0.000 A 
ATOM      5  N   UNL     1       3.276   8.359  17.459  0.00  0.00    +0.000 N 
ATOM      6  C   UNL     1       3.314   7.027  17.832  0.00  0.00    +0.000 A 
ATOM      7  C   UNL     1       2.411   6.881  18.903  0.00  0.00    +0.000 A 
ATOM      8  C   UNL     1       1.852   8.177  19.147  0.00  0.00    +0.000 A 
ATOM      9  C   UNL     1       0.883   8.730  20.072  0.00  0.00    +0.000 A 
ATOM     10  O   UNL     1       0.299   8.109  20.953  0.00  0.00    +0.000 OA
ATOM     11  N   UNL     1       0.660  10.081  19.885  0.00  0.00    +0.000 N 
ATOM     12  H   UNL     1       1.157  12.592  17.991  0.00  0.00    +0.000 HD
ATOM     13  H   UNL     1      -0.048  12.369  19.157  0.00  0.00    +0.000 HD
ATOM     14  H   UNL     1       3.819   8.781  16.720  0.00  0.00    +0.000 HD
ATOM     15  H   UNL     1       0.032  10.506  20.542  0.00  0.00    +0.000 HD
ENDROOT
BRANCH   6  16
ATOM     16  C   UNL     1       4.178   6.073  17.106  0.00  0.00    +0.000 A 
ATOM     17  C   UNL     1       4.144   4.698  17.387  0.00  0.00    +0.000 A 
ATOM     18  C   UNL     1       4.820   3.783  16.577  0.00  0.00    +0.000 A 
ATOM     19  C   UNL     1       5.596   4.243  15.525  0.00  0.00    +0.000 A 
ATOM     20  F   UNL     1       6.229   3.367  14.734  0.00  0.00    +0.000 F 
ATOM     21  C   UNL     1       5.718   5.604  15.275  0.00  0.00    +0.000 A 
ATOM     22  C   UNL     1       5.005   6.517  16.058  0.00  0.00    +0.000 A 
ENDBRANCH   6  16
BRANCH   7  23
ATOM     23  C   UNL     1       2.122   5.618  19.596  0.00  0.00    +0.000 A 
ATOM     24  C   UNL     1       2.571   5.408  20.907  0.00  0.00    +0.000 A 
ATOM     25  C   UNL     1       2.334   4.198  21.570  0.00  0.00    +0.000 A 
ATOM     26  C   UNL     1       1.698   3.154  20.906  0.00  0.00    +0.000 A 
ATOM     27  C   UNL     1       1.256   3.347  19.601  0.00  0.00    +0.000 A 
ATOM     28 CL   UNL     1       0.543   2.036  18.741  0.00  0.00    +0.000 Cl
ATOM     29  C   UNL     1       1.417   4.581  18.968  0.00  0.00    +0.000 A 
ENDBRANCH   7  23
TORSDOF 2
ENDMDL
MODEL 5
REMARK VINA RESULT:      -7.8      2.875      4.810
REMARK  Name = 
REMARK  2 active torsions:
REMARK  status: ('A' for Active; 'I' for Inactive)
REMARK    1  A    between atoms: C_6  and  C_7
REMARK    2  A    between atoms: C_14  and  C_15
REMARK                            x       y       z     vdW  Elec       q    Type
REMARK                         _______ _______ _______ _____ _____    ______ ____
ROOT
ATOM      1  N   UNL     1       7.036   4.166  13.667  0.00  0.00    +0.000 N 
ATOM      2  C   UNL     1       6.241   4.498  14.718  0.00  0.00    +0.000 A 
ATOM      3  N   UNL     1       5.766   3.580  15.508  0.00  0.00    +0.000 NA
ATOM      4  C   UNL     1       4.982   4.069  16.497  0.00  0.00    +0.000 A 
ATOM      5  N   UNL     1       4.396   3.281  17.441  0.00  0.00    +0.000 N 
ATOM      6  C   UNL     1       3.629   4.042  18.306  0.00  0.00    +0.000 A 
ATOM      7  C   UNL     1       3.754   5.380  17.883  0.00  0.00    +0.000 A 
ATOM      8  C   UNL     1       4.628   5.373  16.748  0.00  0.00    +0.000 A 
ATOM      9  C   UNL     1       5.164   6.373  15.847  0.00  0.00    +0.000 A 
ATOM     10  O   UNL     1       4.957   7.580  15.913  0.00  0.00    +0.000 OA
ATOM     11  N   UNL     1       5.974   5.841  14.862  0.00  0.00    +0.000 N 
ATOM     12  H   UNL     1       6.991   3.176  13.447  0.00  0.00    +0.000 HD
ATOM     13  H   UNL     1       6.992   4.757  12.848  0.00  0.00    +0.000 HD
ATOM     14  H   UNL     1       4.517   2.279  17.485  0.00  0.00    +0.000 HD
ATOM     15  H   UNL     1       6.402   6.512  14.251  0.00  0.00    +0.000 HD
ENDROOT
BRANCH   6  16
ATOM     16  C   UNL     1       2.865   3.395  19.392  0.00  0.00    +0.000 A 
ATOM     17  C   UNL     1       3.506   2.888  20.533  0.00  0.00    +0.000 A 
ATOM     18  C   UNL     1       2.768   2.448  21.634  0.00  0.00    +0.000 A 
ATOM     19  C   UNL     1       1.383   2.443  21.573  0.00  0.00    +0.000 A 
ATOM     20  F   UNL     1       0.673   2.041  22.635  0.00  0.00    +0.000 F 
ATOM     21  C   UNL     1       0.722   2.858  20.425  0.00  0.00    +0.000 A 
ATOM     22  C   UNL     1       1.460   3.341  19.339  0.00  0.00    +0.000 A 
ENDBRANCH   6  16
BRANCH   7  23
ATOM     23  C   UNL     1       3.085   6.528  18.513  0.00  0.00    +0.000 A 
ATOM     24  C   UNL     1       2.603   6.436  19.825  0.00  0.00    +0.000 A 
ATOM     25  C   UNL     1       1.935   7.509  20.428  0.00  0.00    +0.000 A 
ATOM     26  C   UNL     1       1.682   8.668  19.702  0.00  0.00    +0.000 A 
ATOM     27  C   UNL     1       2.146   8.767  18.394  0.00  0.00    +0.000 A 
ATOM     28 CL   UNL     1       1.766  10.162  17.459  0.00  0.00    +0.000 Cl
ATOM     29  C   UNL     1       2.886   7.731  17.821  0.00  0.00    +0.000 A 
ENDBRANCH   7  23
TORSDOF 2
ENDMDL
MODEL 6
REMARK VINA RESULT:      -7.7      3.536      5.960
REMARK  Name = 
REMARK  2 active torsions:
REMARK  status: ('A' for Active; 'I' for Inactive)
REMARK    1  A    between atoms: C_6  and  C_7
REMARK    2  A    between atoms: C_14  and  C_15
REMARK                            x       y       z     vdW  Elec       q    Type
REMARK                         _______ _______ _______ _____ _____    ______ ____
ROOT
ATOM      1  N   UNL     1       0.725  12.024  19.309  0.00  0.00    +0.000 N 
ATOM      2  C   UNL     1       1.114  10.721  19.285  0.00  0.00    +0.000 A 
ATOM      3  N   UNL     1       1.945  10.292  18.382  0.00  0.00    +0.000 NA
ATOM      4  C   UNL     1       2.222   8.972  18.484  0.00  0.00    +0.000 A 
ATOM      5  N   UNL     1       3.080   8.323  17.647  0.00  0.00    +0.000 N 
ATOM      6  C   UNL     1       3.148   6.978  17.963  0.00  0.00    +0.000 A 
ATOM      7  C   UNL     1       2.295   6.780  19.067  0.00  0.00    +0.000 A 
ATOM      8  C   UNL     1       1.734   8.058  19.388  0.00  0.00    +0.000 A 
ATOM      9  C   UNL     1       0.803   8.562  20.376  0.00  0.00    +0.000 A 
ATOM     10  O   UNL     1       0.265   7.899  21.256  0.00  0.00    +0.000 OA
ATOM     11  N   UNL     1       0.558   9.916  20.254  0.00  0.00    +0.000 N 
ATOM     12  H   UNL     1       0.943  12.507  18.442  0.00  0.00    +0.000 HD
ATOM     13  H   UNL     1      -0.205  12.223  19.650  0.00  0.00    +0.000 HD
ATOM     14  H   UNL     1       3.585   8.781  16.902  0.00  0.00    +0.000 HD
ATOM     15  H   UNL     1      -0.045  10.307  20.955  0.00  0.00    +0.000 HD
ENDROOT
BRANCH   6  16
ATOM     16  C   UNL     1       3.989   6.065  17.162  0.00  0.00    +0.000 A 
ATOM     17  C   UNL     1       4.871   6.553  16.187  0.00  0.00    +0.000 A 
ATOM     18  C   UNL     1       5.794   5.708  15.565  0.00  0.00    +0.000 A 
ATOM     19  C   UNL     1       5.788   4.353  15.862  0.00  0.00    +0.000 A 
ATOM     20  F   UNL     1       6.685   3.543  15.283  0.00  0.00    +0.000 F 
ATOM     21  C   UNL     1       4.869   3.827  16.759  0.00  0.00    +0.000 A 
ATOM     22  C   UNL     1       3.976   4.681  17.415  0.00  0.00    +0.000 A 
ENDBRANCH   6  16
BRANCH   7  23
ATOM     23  C   UNL     1       2.051   5.486  19.721  0.00  0.00    +0.000 A 
ATOM     24  C   UNL     1       2.569   5.226  20.996  0.00  0.00    +0.000 A 
ATOM     25  C   UNL     1       2.373   3.988  21.620  0.00  0.00    +0.000 A 
ATOM     26  C   UNL     1       1.710   2.967  20.946  0.00  0.00    +0.000 A 
ATOM     27  C   UNL     1       1.199   3.210  19.675  0.00  0.00    +0.000 A 
ATOM     28 CL   UNL     1       0.451   1.930  18.800  0.00  0.00    +0.000 Cl
ATOM     29  C   UNL     1       1.320   4.470  19.088  0.00  0.00    +0.000 A 
ENDBRANCH   7  23
TORSDOF 2
ENDMDL
MODEL 7
REMARK VINA RESULT:      -7.6      2.554      4.622
REMARK  Name = 
REMARK  2 active torsions:
REMARK  status: ('A' for Active; 'I' for Inactive)
REMARK    1  A    between atoms: C_6  and  C_7
REMARK    2  A    between atoms: C_14  and  C_15
REMARK                            x       y       z     vdW  Elec       q    Type
REMARK                         _______ _______ _______ _____ _____    ______ ____
ROOT
ATOM      1  N   UNL     1       7.152   4.016  13.992  0.00  0.00    +0.000 N 
ATOM      2  C   UNL     1       6.290   4.451  14.949  0.00  0.00    +0.000 A 
ATOM      3  N   UNL     1       5.827   3.634  15.849  0.00  0.00    +0.000 NA
ATOM      4  C   UNL     1       4.972   4.216  16.721  0.00  0.00    +0.000 A 
ATOM      5  N   UNL     1       4.385   3.542  17.750  0.00  0.00    +0.000 N 
ATOM      6  C   UNL     1       3.536   4.375  18.458  0.00  0.00    +0.000 A 
ATOM      7  C   UNL     1       3.608   5.641  17.843  0.00  0.00    +0.000 A 
ATOM      8  C   UNL     1       4.535   5.518  16.758  0.00  0.00    +0.000 A 
ATOM      9  C   UNL     1       5.059   6.404  15.738  0.00  0.00    +0.000 A 
ATOM     10  O   UNL     1       4.783   7.592  15.611  0.00  0.00    +0.000 OA
ATOM     11  N   UNL     1       5.943   5.781  14.878  0.00  0.00    +0.000 N 
ATOM     12  H   UNL     1       7.171   3.003  13.923  0.00  0.00    +0.000 HD
ATOM     13  H   UNL     1       7.114   4.474  13.092  0.00  0.00    +0.000 HD
ATOM     14  H   UNL     1       4.558   2.567  17.950  0.00  0.00    +0.000 HD
ATOM     15  H   UNL     1       6.362   6.379  14.189  0.00  0.00    +0.000 HD
ENDROOT
BRANCH   6  16
ATOM     16  C   UNL     1       2.757   3.851  19.599  0.00  0.00    +0.000 A 
ATOM     17  C   UNL     1       1.354   3.814  19.567  0.00  0.00    +0.000 A 
ATOM     18  C   UNL     1       0.631   3.151  20.562  0.00  0.00    +0.000 A 
ATOM     19  C   UNL     1       1.303   2.586  21.635  0.00  0.00    +0.000 A 
ATOM     20  F   UNL     1       0.615   1.932  22.580  0.00  0.00    +0.000 F 
ATOM     21  C   UNL     1       2.685   2.681  21.737  0.00  0.00    +0.000 A 
ATOM     22  C   UNL     1       3.411   3.305  20.718  0.00  0.00    +0.000 A 
ENDBRANCH   6  16
BRANCH   7  23
ATOM     23  C   UNL     1       2.848   6.826  18.265  0.00  0.00    +0.000 A 
ATOM     24  C   UNL     1       2.527   7.829  17.341  0.00  0.00    +0.000 A 
ATOM     25  C   UNL     1       1.832   8.980  17.732  0.00  0.00    +0.000 A 
ATOM     26  C   UNL     1       1.504   9.173  19.070  0.00  0.00    +0.000 A 
ATOM     27  C   UNL     1       1.826   8.188  19.999  0.00  0.00    +0.000 A 
ATOM     28 CL   UNL     1       1.500   8.454  21.669  0.00  0.00    +0.000 Cl
ATOM     29  C   UNL     1       2.444   7.003  19.596  0.00  0.00    +0.000 A 
ENDBRANCH   7  23
TORSDOF 2
ENDMDL
MODEL 8
REMARK VINA RESULT:      -7.6      3.469      5.099
REMARK  Name = 
REMARK  2 active torsions:
REMARK  status: ('A' for Active; 'I' for Inactive)
REMARK    1  A    between atoms: C_6  and  C_7
REMARK    2  A    between atoms: C_14  and  C_15
REMARK                            x       y       z     vdW  Elec       q    Type
REMARK                         _______ _______ _______ _____ _____    ______ ____
ROOT
ATOM      1  N   UNL     1       1.876   1.510  22.416  0.00  0.00    +0.000 N 
ATOM      2  C   UNL     1       2.296   2.524  21.615  0.00  0.00    +0.000 A 
ATOM      3  N   UNL     1       1.695   3.678  21.633  0.00  0.00    +0.000 NA
ATOM      4  C   UNL     1       2.224   4.577  20.770  0.00  0.00    +0.000 A 
ATOM      5  N   UNL     1       1.754   5.850  20.641  0.00  0.00    +0.000 N 
ATOM      6  C   UNL     1       2.460   6.534  19.667  0.00  0.00    +0.000 A 
ATOM      7  C   UNL     1       3.432   5.642  19.172  0.00  0.00    +0.000 A 
ATOM      8  C   UNL     1       3.273   4.417  19.897  0.00  0.00    +0.000 A 
ATOM      9  C   UNL     1       3.917   3.120  19.892  0.00  0.00    +0.000 A 
ATOM     10  O   UNL     1       4.862   2.792  19.183  0.00  0.00    +0.000 OA
ATOM     11  N   UNL     1       3.364   2.234  20.797  0.00  0.00    +0.000 N 
ATOM     12  H   UNL     1       0.948   1.678  22.795  0.00  0.00    +0.000 HD
ATOM     13  H   UNL     1       1.999   0.568  22.073  0.00  0.00    +0.000 HD
ATOM     14  H   UNL     1       0.992   6.222  21.189  0.00  0.00    +0.000 HD
ATOM     15  H   UNL     1       3.820   1.341  20.854  0.00  0.00    +0.000 HD
ENDROOT
BRANCH   6  16
ATOM     16  C   UNL     1       2.100   7.925  19.323  0.00  0.00    +0.000 A 
ATOM     17  C   UNL     1       2.336   8.443  18.041  0.00  0.00    +0.000 A 
ATOM     18  C   UNL     1       1.829   9.689  17.665  0.00  0.00    +0.000 A 
ATOM     19  C   UNL     1       1.145  10.458  18.594  0.00  0.00    +0.000 A 
ATOM     20  F   UNL     1       0.639  11.644  18.232  0.00  0.00    +0.000 F 
ATOM     21  C   UNL     1       0.970  10.009  19.897  0.00  0.00    +0.000 A 
ATOM     22  C   UNL     1       1.439   8.742  20.259  0.00  0.00    +0.000 A 
ENDBRANCH   6  16
BRANCH   7  23
ATOM     23  C   UNL     1       4.394   5.953  18.105  0.00  0.00    +0.000 A 
ATOM     24  C   UNL     1       4.249   5.388  16.831  0.00  0.00    +0.000 A 
ATOM     25  C   UNL     1       5.174   5.647  15.813  0.00  0.00    +0.000 A 
ATOM     26  C   UNL     1       6.296   6.427  16.075  0.00  0.00    +0.000 A 
ATOM     27  C   UNL     1       6.457   6.986  17.339  0.00  0.00    +0.000 A 
ATOM     28 CL   UNL     1       7.883   7.882  17.698  0.00  0.00    +0.000 Cl
ATOM     29  C   UNL     1       5.492   6.797  18.329  0.00  0.00    +0.000 A 
ENDBRANCH   7  23
TORSDOF 2
ENDMDL
MODEL 9
REMARK VINA RESULT:      -7.6      4.457      7.191
REMARK  Name = 
REMARK  2 active torsions:
REMARK  status: ('A' for Active; 'I' for Inactive)
REMARK    1  A    between atoms: C_6  and  C_7
REMARK    2  A    between atoms: C_14  and  C_15
REMARK                            x       y       z     vdW  Elec       q    Type
REMARK                         _______ _______ _______ _____ _____    ______ ____
ROOT
ATOM      1  N   UNL     1       0.224   2.864  19.365  0.00  0.00    +0.000 N 
ATOM      2  C   UNL     1       1.392   3.375  18.893  0.00  0.00    +0.000 A 
ATOM      3  N   UNL     1       1.786   3.124  17.679  0.00  0.00    +0.000 NA
ATOM      4  C   UNL     1       2.972   3.694  17.366  0.00  0.00    +0.000 A 
ATOM      5  N   UNL     1       3.558   3.569  16.141  0.00  0.00    +0.000 N 
ATOM      6  C   UNL     1       4.775   4.226  16.113  0.00  0.00    +0.000 A 
ATOM      7  C   UNL     1       4.952   4.803  17.386  0.00  0.00    +0.000 A 
ATOM      8  C   UNL     1       3.790   4.466  18.154  0.00  0.00    +0.000 A 
ATOM      9  C   UNL     1       3.332   4.722  19.505  0.00  0.00    +0.000 A 
ATOM     10  O   UNL     1       3.925   5.384  20.349  0.00  0.00    +0.000 OA
ATOM     11  N   UNL     1       2.109   4.141  19.784  0.00  0.00    +0.000 N 
ATOM     12  H   UNL     1      -0.129   2.110  18.783  0.00  0.00    +0.000 HD
ATOM     13  H   UNL     1       0.175   2.658  20.353  0.00  0.00    +0.000 HD
ATOM     14  H   UNL     1       3.144   3.059  15.374  0.00  0.00    +0.000 HD
ATOM     15  H   UNL     1       1.739   4.341  20.695  0.00  0.00    +0.000 HD
ENDROOT
BRANCH   6  16
ATOM     16  C   UNL     1       5.612   4.194  14.896  0.00  0.00    +0.000 A 
ATOM     17  C   UNL     1       5.208   3.489  13.751  0.00  0.00    +0.000 A 
ATOM     18  C   UNL     1       5.907   3.613  12.548  0.00  0.00    +0.000 A 
ATOM     19  C   UNL     1       7.058   4.385  12.502  0.00  0.00    +0.000 A 
ATOM     20  F   UNL     1       7.719   4.523  11.345  0.00  0.00    +0.000 F 
ATOM     21  C   UNL     1       7.530   5.025  13.640  0.00  0.00    +0.000 A 
ATOM     22  C   UNL     1       6.805   4.937  14.833  0.00  0.00    +0.000 A 
ENDBRANCH   6  16
BRANCH   7  23
ATOM     23  C   UNL     1       6.126   5.582  17.802  0.00  0.00    +0.000 A 
ATOM     24  C   UNL     1       7.056   5.041  18.699  0.00  0.00    +0.000 A 
ATOM     25  C   UNL     1       8.164   5.781  19.131  0.00  0.00    +0.000 A 
ATOM     26  C   UNL     1       8.321   7.101  18.719  0.00  0.00    +0.000 A 
ATOM     27  C   UNL     1       7.399   7.653  17.837  0.00  0.00    +0.000 A 
ATOM     28 CL   UNL     1       7.537   9.310  17.388  0.00  0.00    +0.000 Cl
ATOM     29  C   UNL     1       6.342   6.889  17.340  0.00  0.00    +0.000 A 
ENDBRANCH   7  23
TORSDOF 2
ENDMDL
