MODEL 1
REMARK VINA RESULT:      -9.9      0.000      0.000
REMARK  Name = 
REMARK  5 active torsions:
REMARK  status: ('A' for Active; 'I' for Inactive)
REMARK    1  A    between atoms: C_6  and  N_7
REMARK    2  A    between atoms: N_7  and  C_8
REMARK    3  A    between atoms: C_12  and  C_13
REMARK    4  A    between atoms: C_15  and  C_16
REMARK    5  A    between atoms: N_23  and  C_24
REMARK                            x       y       z     vdW  Elec       q    Type
REMARK                         _______ _______ _______ _____ _____    ______ ____
ROOT
ATOM      1  C   UNL     1       1.273   8.607  20.448  0.00  0.00    +0.000 A 
ATOM      2  C   UNL     1       0.658   8.060  21.578  0.00  0.00    +0.000 A 
ATOM      3  C   UNL     1      -0.232   8.810  22.348  0.00  0.00    +0.000 A 
ATOM      4  C   UNL     1      -0.521  10.127  21.997  0.00  0.00    +0.000 A 
ATOM      5  C   UNL     1       0.053  10.698  20.855  0.00  0.00    +0.000 A 
ATOM      6  C   UNL     1       0.932   9.915  20.079  0.00  0.00    +0.000 A 
ENDROOT
BRANCH   5   7
ATOM      7  C   UNL     1      -0.293  12.129  20.468  0.00  0.00    +0.000 C 
ATOM      8  C   UNL     1       0.930  13.052  20.497  0.00  0.00    +0.000 C 
ATOM      9  C   UNL     1       0.934  13.554  19.079  0.00  0.00    +0.000 C 
ATOM     10  N   UNL     1       0.017  13.053  18.309  0.00  0.00    +0.000 NA
ATOM     11  N   UNL     1      -0.743  12.225  19.082  0.00  0.00    +0.000 N 
BRANCH   9  12
ATOM     12  C   UNL     1       1.916  14.566  18.624  0.00  0.00    +0.000 A 
ATOM     13  C   UNL     1       3.205  14.202  18.208  0.00  0.00    +0.000 A 
ATOM     14  C   UNL     1       4.121  15.183  17.819  0.00  0.00    +0.000 A 
ATOM     15  C   UNL     1       3.758  16.526  17.845  0.00  0.00    +0.000 A 
ATOM     16  C   UNL     1       2.476  16.896  18.256  0.00  0.00    +0.000 A 
ATOM     17  C   UNL     1       1.557  15.918  18.641  0.00  0.00    +0.000 A 
ENDBRANCH   9  12
BRANCH  11  18
ATOM     18  C   UNL     1      -1.852  11.565  18.558  0.00  0.00    +0.000 A 
ATOM     19  C   UNL     1      -3.148  11.972  18.903  0.00  0.00    +0.000 A 
ATOM     20  C   UNL     1      -4.278  11.377  18.333  0.00  0.00    +0.000 A 
ATOM     21  C   UNL     1      -4.131  10.330  17.429  0.00  0.00    +0.000 A 
ATOM     22  C   UNL     1      -2.857   9.879  17.098  0.00  0.00    +0.000 A 
ATOM     23  C   UNL     1      -1.731  10.495  17.655  0.00  0.00    +0.000 A 
ENDBRANCH  11  18
ENDBRANCH   5   7
BRANCH   1  24
ATOM     24  N   UNL     1       2.204   7.884  19.679  0.00  0.00    +0.000 N 
ATOM     25  H   UNL     1       2.709   8.441  18.997  0.00  0.00    +0.000 HD
BRANCH  24  31
ATOM     26 CL   UNL     1       5.795   4.096  15.287  0.00  0.00    +0.000 Cl
ATOM     27  C   UNL     1       4.860   4.821  16.536  0.00  0.00    +0.000 A 
ATOM     28  C   UNL     1       4.779   6.203  16.625  0.00  0.00    +0.000 A 
ATOM     29  C   UNL     1       3.991   6.777  17.622  0.00  0.00    +0.000 A 
ATOM     30  C   UNL     1       3.270   5.974  18.539  0.00  0.00    +0.000 A 
ATOM     31  C   UNL     1       2.421   6.493  19.554  0.00  0.00    +0.000 A 
ATOM     32  C   UNL     1       1.820   5.602  20.446  0.00  0.00    +0.000 A 
ATOM     33  C   UNL     1       2.047   4.251  20.290  0.00  0.00    +0.000 A 
ATOM     34  N   UNL     1       2.814   3.726  19.315  0.00  0.00    +0.000 NA
ATOM     35  C   UNL     1       3.408   4.567  18.458  0.00  0.00    +0.000 A 
ATOM     36  C   UNL     1       4.188   4.018  17.453  0.00  0.00    +0.000 A 
ENDBRANCH  24  31
ENDBRANCH   1  24
TORSDOF 5
ENDMDL
MODEL 2
REMARK VINA RESULT:      -9.9      1.302      4.761
REMARK  Name = 
REMARK  5 active torsions:
REMARK  status: ('A' for Active; 'I' for Inactive)
REMARK    1  A    between atoms: C_6  and  N_7
REMARK    2  A    between atoms: N_7  and  C_8
REMARK    3  A    between atoms: C_12  and  C_13
REMARK    4  A    between atoms: C_15  and  C_16
REMARK    5  A    between atoms: N_23  and  C_24
REMARK                            x       y       z     vdW  Elec       q    Type
REMARK                         _______ _______ _______ _____ _____    ______ ____
ROOT
ATOM      1  C   UNL     1       1.805   7.975  20.229  0.00  0.00    +0.000 A 
ATOM      2  C   UNL     1       1.338   8.062  21.543  0.00  0.00    +0.000 A 
ATOM      3  C   UNL     1       0.338   8.971  21.893  0.00  0.00    +0.000 A 
ATOM      4  C   UNL     1      -0.212   9.812  20.928  0.00  0.00    +0.000 A 
ATOM      5  C   UNL     1       0.211   9.732  19.596  0.00  0.00    +0.000 A 
ATOM      6  C   UNL     1       1.206   8.791  19.259  0.00  0.00    +0.000 A 
ENDROOT
BRANCH   5   7
ATOM      7  C   UNL     1      -0.418  10.637  18.546  0.00  0.00    +0.000 C 
ATOM      8  C   UNL     1      -1.909  10.344  18.342  0.00  0.00    +0.000 C 
ATOM      9  C   UNL     1      -2.502  11.690  18.653  0.00  0.00    +0.000 C 
ATOM     10  N   UNL     1      -1.654  12.600  19.024  0.00  0.00    +0.000 NA
ATOM     11  N   UNL     1      -0.414  12.037  18.960  0.00  0.00    +0.000 N 
BRANCH   9  12
ATOM     12  C   UNL     1      -3.957  11.940  18.516  0.00  0.00    +0.000 A 
ATOM     13  C   UNL     1      -4.742  12.316  19.615  0.00  0.00    +0.000 A 
ATOM     14  C   UNL     1      -6.118  12.509  19.462  0.00  0.00    +0.000 A 
ATOM     15  C   UNL     1      -6.714  12.326  18.218  0.00  0.00    +0.000 A 
ATOM     16  C   UNL     1      -5.938  11.953  17.119  0.00  0.00    +0.000 A 
ATOM     17  C   UNL     1      -4.563  11.764  17.267  0.00  0.00    +0.000 A 
ENDBRANCH   9  12
BRANCH  11  18
ATOM     18  C   UNL     1       0.730  12.777  19.252  0.00  0.00    +0.000 A 
ATOM     19  C   UNL     1       0.904  13.342  20.524  0.00  0.00    +0.000 A 
ATOM     20  C   UNL     1       2.075  14.024  20.867  0.00  0.00    +0.000 A 
ATOM     21  C   UNL     1       3.086  14.187  19.926  0.00  0.00    +0.000 A 
ATOM     22  C   UNL     1       2.924  13.671  18.645  0.00  0.00    +0.000 A 
ATOM     23  C   UNL     1       1.758  12.970  18.315  0.00  0.00    +0.000 A 
ENDBRANCH  11  18
ENDBRANCH   5   7
BRANCH   1  24
ATOM     24  N   UNL     1       2.839   7.096  19.858  0.00  0.00    +0.000 N 
ATOM     25  H   UNL     1       3.766   7.509  19.861  0.00  0.00    +0.000 HD
BRANCH  24  31
ATOM     26 CL   UNL     1       6.034   4.173  14.586  0.00  0.00    +0.000 Cl
ATOM     27  C   UNL     1       5.141   4.660  15.974  0.00  0.00    +0.000 A 
ATOM     28  C   UNL     1       5.321   5.930  16.501  0.00  0.00    +0.000 A 
ATOM     29  C   UNL     1       4.567   6.323  17.607  0.00  0.00    +0.000 A 
ATOM     30  C   UNL     1       3.621   5.449  18.196  0.00  0.00    +0.000 A 
ATOM     31  C   UNL     1       2.794   5.798  19.299  0.00  0.00    +0.000 A 
ATOM     32  C   UNL     1       1.952   4.825  19.839  0.00  0.00    +0.000 A 
ATOM     33  C   UNL     1       1.927   3.572  19.264  0.00  0.00    +0.000 A 
ATOM     34  N   UNL     1       2.668   3.223  18.194  0.00  0.00    +0.000 NA
ATOM     35  C   UNL     1       3.492   4.141  17.670  0.00  0.00    +0.000 A 
ATOM     36  C   UNL     1       4.243   3.775  16.565  0.00  0.00    +0.000 A 
ENDBRANCH  24  31
ENDBRANCH   1  24
TORSDOF 5
ENDMDL
MODEL 3
REMARK VINA RESULT:      -9.9      1.194      4.782
REMARK  Name = 
REMARK  5 active torsions:
REMARK  status: ('A' for Active; 'I' for Inactive)
REMARK    1  A    between atoms: C_6  and  N_7
REMARK    2  A    between atoms: N_7  and  C_8
REMARK    3  A    between atoms: C_12  and  C_13
REMARK    4  A    between atoms: C_15  and  C_16
REMARK    5  A    between atoms: N_23  and  C_24
REMARK                            x       y       z     vdW  Elec       q    Type
REMARK                         _______ _______ _______ _____ _____    ______ ____
ROOT
ATOM      1  C   UNL     1       1.693   8.063  20.434  0.00  0.00    +0.000 A 
ATOM      2  C   UNL     1       1.308   8.346  21.748  0.00  0.00    +0.000 A 
ATOM      3  C   UNL     1       0.375   9.345  22.026  0.00  0.00    +0.000 A 
ATOM      4  C   UNL     1      -0.190  10.083  20.989  0.00  0.00    +0.000 A 
ATOM      5  C   UNL     1       0.150   9.808  19.658  0.00  0.00    +0.000 A 
ATOM      6  C   UNL     1       1.077   8.778  19.398  0.00  0.00    +0.000 A 
ENDROOT
BRANCH   5   7
ATOM      7  C   UNL     1      -0.496  10.603  18.532  0.00  0.00    +0.000 C 
ATOM      8  C   UNL     1      -1.988  10.285  18.376  0.00  0.00    +0.000 C 
ATOM      9  C   UNL     1      -2.585  11.653  18.560  0.00  0.00    +0.000 C 
ATOM     10  N   UNL     1      -1.737  12.598  18.830  0.00  0.00    +0.000 NA
ATOM     11  N   UNL     1      -0.494  12.037  18.806  0.00  0.00    +0.000 N 
BRANCH   9  12
ATOM     12  C   UNL     1      -4.042  11.883  18.417  0.00  0.00    +0.000 A 
ATOM     13  C   UNL     1      -4.693  11.709  17.188  0.00  0.00    +0.000 A 
ATOM     14  C   UNL     1      -6.062  11.970  17.075  0.00  0.00    +0.000 A 
ATOM     15  C   UNL     1      -6.783  12.404  18.183  0.00  0.00    +0.000 A 
ATOM     16  C   UNL     1      -6.141  12.577  19.411  0.00  0.00    +0.000 A 
ATOM     17  C   UNL     1      -4.775  12.314  19.528  0.00  0.00    +0.000 A 
ENDBRANCH   9  12
BRANCH  11  18
ATOM     18  C   UNL     1       0.649  12.806  19.010  0.00  0.00    +0.000 A 
ATOM     19  C   UNL     1       1.780  12.625  18.201  0.00  0.00    +0.000 A 
ATOM     20  C   UNL     1       2.912  13.435  18.335  0.00  0.00    +0.000 A 
ATOM     21  C   UNL     1       2.949  14.423  19.312  0.00  0.00    +0.000 A 
ATOM     22  C   UNL     1       1.856  14.600  20.154  0.00  0.00    +0.000 A 
ATOM     23  C   UNL     1       0.717  13.800  20.000  0.00  0.00    +0.000 A 
ENDBRANCH  11  18
ENDBRANCH   5   7
BRANCH   1  24
ATOM     24  N   UNL     1       2.660   7.088  20.130  0.00  0.00    +0.000 N 
ATOM     25  H   UNL     1       3.620   7.406  20.214  0.00  0.00    +0.000 HD
BRANCH  24  31
ATOM     26 CL   UNL     1       5.784   4.005  14.907  0.00  0.00    +0.000 Cl
ATOM     27  C   UNL     1       4.888   4.538  16.276  0.00  0.00    +0.000 A 
ATOM     28  C   UNL     1       5.151   5.782  16.832  0.00  0.00    +0.000 A 
ATOM     29  C   UNL     1       4.394   6.216  17.921  0.00  0.00    +0.000 A 
ATOM     30  C   UNL     1       3.363   5.411  18.463  0.00  0.00    +0.000 A 
ATOM     31  C   UNL     1       2.531   5.807  19.546  0.00  0.00    +0.000 A 
ATOM     32  C   UNL     1       1.596   4.896  20.040  0.00  0.00    +0.000 A 
ATOM     33  C   UNL     1       1.491   3.658  19.441  0.00  0.00    +0.000 A 
ATOM     34  N   UNL     1       2.236   3.268  18.389  0.00  0.00    +0.000 NA
ATOM     35  C   UNL     1       3.148   4.126  17.909  0.00  0.00    +0.000 A 
ATOM     36  C   UNL     1       3.904   3.719  16.821  0.00  0.00    +0.000 A 
ENDBRANCH  24  31
ENDBRANCH   1  24
TORSDOF 5
ENDMDL
MODEL 4
REMARK VINA RESULT:      -9.8      1.629      2.408
REMARK  Name = 
REMARK  5 active torsions:
REMARK  status: ('A' for Active; 'I' for Inactive)
REMARK    1  A    between atoms: C_6  and  N_7
REMARK    2  A    between atoms: N_7  and  C_8
REMARK    3  A    between atoms: C_12  and  C_13
REMARK    4  A    between atoms: C_15  and  C_16
REMARK    5  A    between atoms: N_23  and  C_24
REMARK                            x       y       z     vdW  Elec       q    Type
REMARK                         _______ _______ _______ _____ _____    ______ ____
ROOT
ATOM      1  C   UNL     1       0.849   9.244  21.723  0.00  0.00    +0.000 A 
ATOM      2  C   UNL     1       0.038   9.034  22.841  0.00  0.00    +0.000 A 
ATOM      3  C   UNL     1      -0.889   9.995  23.250  0.00  0.00    +0.000 A 
ATOM      4  C   UNL     1      -1.017  11.188  22.543  0.00  0.00    +0.000 A 
ATOM      5  C   UNL     1      -0.241  11.420  21.400  0.00  0.00    +0.000 A 
ATOM      6  C   UNL     1       0.672  10.427  20.991  0.00  0.00    +0.000 A 
ENDROOT
BRANCH   5   7
ATOM      7  C   UNL     1      -0.411  12.716  20.620  0.00  0.00    +0.000 C 
ATOM      8  C   UNL     1       0.848  13.590  20.660  0.00  0.00    +0.000 C 
ATOM      9  C   UNL     1       1.143  13.720  19.192  0.00  0.00    +0.000 C 
ATOM     10  N   UNL     1       0.347  13.064  18.403  0.00  0.00    +0.000 NA
ATOM     11  N   UNL     1      -0.595  12.473  19.192  0.00  0.00    +0.000 N 
BRANCH   9  12
ATOM     12  C   UNL     1       2.260  14.564  18.703  0.00  0.00    +0.000 A 
ATOM     13  C   UNL     1       3.502  14.010  18.364  0.00  0.00    +0.000 A 
ATOM     14  C   UNL     1       4.548  14.836  17.941  0.00  0.00    +0.000 A 
ATOM     15  C   UNL     1       4.359  16.212  17.856  0.00  0.00    +0.000 A 
ATOM     16  C   UNL     1       3.124  16.770  18.190  0.00  0.00    +0.000 A 
ATOM     17  C   UNL     1       2.076  15.948  18.609  0.00  0.00    +0.000 A 
ENDBRANCH   9  12
BRANCH  11  18
ATOM     18  C   UNL     1      -1.635  11.729  18.639  0.00  0.00    +0.000 A 
ATOM     19  C   UNL     1      -1.360  10.608  17.843  0.00  0.00    +0.000 A 
ATOM     20  C   UNL     1      -2.384   9.800  17.339  0.00  0.00    +0.000 A 
ATOM     21  C   UNL     1      -3.713  10.122  17.593  0.00  0.00    +0.000 A 
ATOM     22  C   UNL     1      -4.016  11.251  18.347  0.00  0.00    +0.000 A 
ATOM     23  C   UNL     1      -2.985  12.043  18.867  0.00  0.00    +0.000 A 
ENDBRANCH  11  18
ENDBRANCH   5   7
BRANCH   1  24
ATOM     24  N   UNL     1       1.817   8.309  21.313  0.00  0.00    +0.000 N 
ATOM     25  H   UNL     1       2.562   8.152  21.984  0.00  0.00    +0.000 HD
BRANCH  24  31
ATOM     26 CL   UNL     1       1.857   1.809  19.242  0.00  0.00    +0.000 Cl
ATOM     27  C   UNL     1       1.860   3.510  19.500  0.00  0.00    +0.000 A 
ATOM     28  C   UNL     1       1.543   4.020  20.750  0.00  0.00    +0.000 A 
ATOM     29  C   UNL     1       1.582   5.400  20.954  0.00  0.00    +0.000 A 
ATOM     30  C   UNL     1       1.943   6.284  19.910  0.00  0.00    +0.000 A 
ATOM     31  C   UNL     1       2.039   7.695  20.059  0.00  0.00    +0.000 A 
ATOM     32  C   UNL     1       2.334   8.469  18.936  0.00  0.00    +0.000 A 
ATOM     33  C   UNL     1       2.553   7.837  17.730  0.00  0.00    +0.000 A 
ATOM     34  N   UNL     1       2.509   6.501  17.565  0.00  0.00    +0.000 NA
ATOM     35  C   UNL     1       2.215   5.743  18.630  0.00  0.00    +0.000 A 
ATOM     36  C   UNL     1       2.180   4.369  18.452  0.00  0.00    +0.000 A 
ENDBRANCH  24  31
ENDBRANCH   1  24
TORSDOF 5
ENDMDL
MODEL 5
REMARK VINA RESULT:      -9.8      0.340      1.201
REMARK  Name = 
REMARK  5 active torsions:
REMARK  status: ('A' for Active; 'I' for Inactive)
REMARK    1  A    between atoms: C_6  and  N_7
REMARK    2  A    between atoms: N_7  and  C_8
REMARK    3  A    between atoms: C_12  and  C_13
REMARK    4  A    between atoms: C_15  and  C_16
REMARK    5  A    between atoms: N_23  and  C_24
REMARK                            x       y       z     vdW  Elec       q    Type
REMARK                         _______ _______ _______ _____ _____    ______ ____
ROOT
ATOM      1  C   UNL     1       1.367   8.605  20.163  0.00  0.00    +0.000 A 
ATOM      2  C   UNL     1       0.769   7.972  21.256  0.00  0.00    +0.000 A 
ATOM      3  C   UNL     1      -0.129   8.653  22.079  0.00  0.00    +0.000 A 
ATOM      4  C   UNL     1      -0.442   9.985  21.821  0.00  0.00    +0.000 A 
ATOM      5  C   UNL     1       0.115  10.643  20.717  0.00  0.00    +0.000 A 
ATOM      6  C   UNL     1       1.002   9.929  19.885  0.00  0.00    +0.000 A 
ENDROOT
BRANCH   5   7
ATOM      7  C   UNL     1      -0.258  12.090  20.429  0.00  0.00    +0.000 C 
ATOM      8  C   UNL     1       0.960  13.021  20.454  0.00  0.00    +0.000 C 
ATOM      9  C   UNL     1       0.894  13.602  19.069  0.00  0.00    +0.000 C 
ATOM     10  N   UNL     1      -0.057  13.139  18.315  0.00  0.00    +0.000 NA
ATOM     11  N   UNL     1      -0.773  12.261  19.074  0.00  0.00    +0.000 N 
BRANCH   9  12
ATOM     12  C   UNL     1       1.847  14.648  18.626  0.00  0.00    +0.000 A 
ATOM     13  C   UNL     1       1.479  16.000  18.576  0.00  0.00    +0.000 A 
ATOM     14  C   UNL     1       2.388  16.958  18.118  0.00  0.00    +0.000 A 
ATOM     15  C   UNL     1       3.662  16.573  17.710  0.00  0.00    +0.000 A 
ATOM     16  C   UNL     1       4.035  15.229  17.759  0.00  0.00    +0.000 A 
ATOM     17  C   UNL     1       3.131  14.269  18.219  0.00  0.00    +0.000 A 
ENDBRANCH   9  12
BRANCH  11  18
ATOM     18  C   UNL     1      -1.902  11.623  18.565  0.00  0.00    +0.000 A 
ATOM     19  C   UNL     1      -1.769  10.531  17.696  0.00  0.00    +0.000 A 
ATOM     20  C   UNL     1      -2.883   9.825  17.232  0.00  0.00    +0.000 A 
ATOM     21  C   UNL     1      -4.163  10.225  17.601  0.00  0.00    +0.000 A 
ATOM     22  C   UNL     1      -4.326  11.329  18.432  0.00  0.00    +0.000 A 
ATOM     23  C   UNL     1      -3.205  12.017  18.911  0.00  0.00    +0.000 A 
ENDBRANCH  11  18
ENDBRANCH   5   7
BRANCH   1  24
ATOM     24  N   UNL     1       2.305   7.952  19.341  0.00  0.00    +0.000 N 
ATOM     25  H   UNL     1       2.763   8.554  18.665  0.00  0.00    +0.000 HD
BRANCH  24  31
ATOM     26 CL   UNL     1       6.100   4.502  14.843  0.00  0.00    +0.000 Cl
ATOM     27  C   UNL     1       5.121   5.135  16.108  0.00  0.00    +0.000 A 
ATOM     28  C   UNL     1       4.984   6.508  16.255  0.00  0.00    +0.000 A 
ATOM     29  C   UNL     1       4.160   7.007  17.264  0.00  0.00    +0.000 A 
ATOM     30  C   UNL     1       3.462   6.137  18.137  0.00  0.00    +0.000 A 
ATOM     31  C   UNL     1       2.580   6.577  19.161  0.00  0.00    +0.000 A 
ATOM     32  C   UNL     1       2.007   5.626  20.006  0.00  0.00    +0.000 A 
ATOM     33  C   UNL     1       2.290   4.293  19.797  0.00  0.00    +0.000 A 
ATOM     34  N   UNL     1       3.090   3.841  18.811  0.00  0.00    +0.000 NA
ATOM     35  C   UNL     1       3.659   4.742  17.998  0.00  0.00    +0.000 A 
ATOM     36  C   UNL     1       4.473   4.267  16.982  0.00  0.00    +0.000 A 
ENDBRANCH  24  31
ENDBRANCH   1  24
TORSDOF 5
ENDMDL
MODEL 6
REMARK VINA RESULT:      -9.8      1.388      4.858
REMARK  Name = 
REMARK  5 active torsions:
REMARK  status: ('A' for Active; 'I' for Inactive)
REMARK    1  A    between atoms: C_6  and  N_7
REMARK    2  A    between atoms: N_7  and  C_8
REMARK    3  A    between atoms: C_12  and  C_13
REMARK    4  A    between atoms: C_15  and  C_16
REMARK    5  A    between atoms: N_23  and  C_24
REMARK                            x       y       z     vdW  Elec       q    Type
REMARK                         _______ _______ _______ _____ _____    ______ ____
ROOT
ATOM      1  C   UNL     1       2.006   8.027  19.335  0.00  0.00    +0.000 A 
ATOM      2  C   UNL     1       1.635   7.845  20.671  0.00  0.00    +0.000 A 
ATOM      3  C   UNL     1       0.604   8.593  21.241  0.00  0.00    +0.000 A 
ATOM      4  C   UNL     1      -0.075   9.541  20.479  0.00  0.00    +0.000 A 
ATOM      5  C   UNL     1       0.249   9.730  19.130  0.00  0.00    +0.000 A 
ATOM      6  C   UNL     1       1.279   8.947  18.568  0.00  0.00    +0.000 A 
ENDROOT
BRANCH   5   7
ATOM      7  C   UNL     1      -0.519  10.749  18.301  0.00  0.00    +0.000 C 
ATOM      8  C   UNL     1      -2.011  10.412  18.201  0.00  0.00    +0.000 C 
ATOM      9  C   UNL     1      -2.618  11.662  18.776  0.00  0.00    +0.000 C 
ATOM     10  N   UNL     1      -1.770  12.549  19.200  0.00  0.00    +0.000 NA
ATOM     11  N   UNL     1      -0.523  12.069  18.927  0.00  0.00    +0.000 N 
BRANCH   9  12
ATOM     12  C   UNL     1      -4.087  11.853  18.823  0.00  0.00    +0.000 A 
ATOM     13  C   UNL     1      -4.926  11.331  17.828  0.00  0.00    +0.000 A 
ATOM     14  C   UNL     1      -6.305  11.560  17.880  0.00  0.00    +0.000 A 
ATOM     15  C   UNL     1      -6.848  12.308  18.920  0.00  0.00    +0.000 A 
ATOM     16  C   UNL     1      -6.019  12.830  19.914  0.00  0.00    +0.000 A 
ATOM     17  C   UNL     1      -4.643  12.600  19.868  0.00  0.00    +0.000 A 
ENDBRANCH   9  12
BRANCH  11  18
ATOM     18  C   UNL     1       0.617  12.815  19.218  0.00  0.00    +0.000 A 
ATOM     19  C   UNL     1       0.880  13.225  20.532  0.00  0.00    +0.000 A 
ATOM     20  C   UNL     1       2.054  13.909  20.864  0.00  0.00    +0.000 A 
ATOM     21  C   UNL     1       2.975  14.230  19.873  0.00  0.00    +0.000 A 
ATOM     22  C   UNL     1       2.721  13.870  18.554  0.00  0.00    +0.000 A 
ATOM     23  C   UNL     1       1.554  13.166  18.233  0.00  0.00    +0.000 A 
ENDBRANCH  11  18
ENDBRANCH   5   7
BRANCH   1  24
ATOM     24  N   UNL     1       3.067   7.313  18.748  0.00  0.00    +0.000 N 
ATOM     25  H   UNL     1       3.796   7.895  18.350  0.00  0.00    +0.000 HD
BRANCH  24  31
ATOM     26 CL   UNL     1       6.461   3.913  13.905  0.00  0.00    +0.000 Cl
ATOM     27  C   UNL     1       5.561   4.526  15.237  0.00  0.00    +0.000 A 
ATOM     28  C   UNL     1       5.561   5.888  15.503  0.00  0.00    +0.000 A 
ATOM     29  C   UNL     1       4.801   6.375  16.566  0.00  0.00    +0.000 A 
ATOM     30  C   UNL     1       4.028   5.505  17.373  0.00  0.00    +0.000 A 
ATOM     31  C   UNL     1       3.203   5.939  18.447  0.00  0.00    +0.000 A 
ATOM     32  C   UNL     1       2.546   4.978  19.217  0.00  0.00    +0.000 A 
ATOM     33  C   UNL     1       2.694   3.647  18.890  0.00  0.00    +0.000 A 
ATOM     34  N   UNL     1       3.436   3.206  17.855  0.00  0.00    +0.000 NA
ATOM     35  C   UNL     1       4.084   4.114  17.112  0.00  0.00    +0.000 A 
ATOM     36  C   UNL     1       4.838   3.653  16.044  0.00  0.00    +0.000 A 
ENDBRANCH  24  31
ENDBRANCH   1  24
TORSDOF 5
ENDMDL
MODEL 7
REMARK VINA RESULT:      -9.4      1.410      2.220
REMARK  Name = 
REMARK  5 active torsions:
REMARK  status: ('A' for Active; 'I' for Inactive)
REMARK    1  A    between atoms: C_6  and  N_7
REMARK    2  A    between atoms: N_7  and  C_8
REMARK    3  A    between atoms: C_12  and  C_13
REMARK    4  A    between atoms: C_15  and  C_16
REMARK    5  A    between atoms: N_23  and  C_24
REMARK                            x       y       z     vdW  Elec       q    Type
REMARK                         _______ _______ _______ _____ _____    ______ ____
ROOT
ATOM      1  C   UNL     1       1.744   8.428  19.041  0.00  0.00    +0.000 A 
ATOM      2  C   UNL     1       1.624   7.681  20.216  0.00  0.00    +0.000 A 
ATOM      3  C   UNL     1       1.087   8.243  21.375  0.00  0.00    +0.000 A 
ATOM      4  C   UNL     1       0.661   9.569  21.377  0.00  0.00    +0.000 A 
ATOM      5  C   UNL     1       0.739  10.339  20.210  0.00  0.00    +0.000 A 
ATOM      6  C   UNL     1       1.263   9.745  19.043  0.00  0.00    +0.000 A 
ENDROOT
BRANCH   5   7
ATOM      7  C   UNL     1       0.244  11.779  20.217  0.00  0.00    +0.000 C 
ATOM      8  C   UNL     1       1.396  12.790  20.199  0.00  0.00    +0.000 C 
ATOM      9  C   UNL     1       1.067  13.563  18.951  0.00  0.00    +0.000 C 
ATOM     10  N   UNL     1       0.031  13.141  18.292  0.00  0.00    +0.000 NA
ATOM     11  N   UNL     1      -0.499  12.106  19.004  0.00  0.00    +0.000 N 
BRANCH   9  12
ATOM     12  C   UNL     1       1.874  14.735  18.537  0.00  0.00    +0.000 A 
ATOM     13  C   UNL     1       1.359  16.038  18.599  0.00  0.00    +0.000 A 
ATOM     14  C   UNL     1       2.130  17.120  18.165  0.00  0.00    +0.000 A 
ATOM     15  C   UNL     1       3.413  16.907  17.669  0.00  0.00    +0.000 A 
ATOM     16  C   UNL     1       3.933  15.614  17.607  0.00  0.00    +0.000 A 
ATOM     17  C   UNL     1       3.167  14.531  18.042  0.00  0.00    +0.000 A 
ENDBRANCH   9  12
BRANCH  11  18
ATOM     18  C   UNL     1      -1.660  11.462  18.584  0.00  0.00    +0.000 A 
ATOM     19  C   UNL     1      -2.918  11.930  18.988  0.00  0.00    +0.000 A 
ATOM     20  C   UNL     1      -4.101  11.349  18.521  0.00  0.00    +0.000 A 
ATOM     21  C   UNL     1      -4.046  10.255  17.662  0.00  0.00    +0.000 A 
ATOM     22  C   UNL     1      -2.811   9.745  17.276  0.00  0.00    +0.000 A 
ATOM     23  C   UNL     1      -1.632  10.347  17.730  0.00  0.00    +0.000 A 
ENDBRANCH  11  18
ENDBRANCH   5   7
BRANCH   1  24
ATOM     24  N   UNL     1       2.317   7.897  17.871  0.00  0.00    +0.000 N 
ATOM     25  H   UNL     1       1.742   7.990  17.040  0.00  0.00    +0.000 HD
BRANCH  24  31
ATOM     26 CL   UNL     1       3.412   1.179  18.332  0.00  0.00    +0.000 Cl
ATOM     27  C   UNL     1       3.386   2.885  18.109  0.00  0.00    +0.000 A 
ATOM     28  C   UNL     1       2.191   3.579  18.228  0.00  0.00    +0.000 A 
ATOM     29  C   UNL     1       2.190   4.966  18.078  0.00  0.00    +0.000 A 
ATOM     30  C   UNL     1       3.386   5.675  17.812  0.00  0.00    +0.000 A 
ATOM     31  C   UNL     1       3.462   7.089  17.685  0.00  0.00    +0.000 A 
ATOM     32  C   UNL     1       4.687   7.667  17.349  0.00  0.00    +0.000 A 
ATOM     33  C   UNL     1       5.786   6.850  17.184  0.00  0.00    +0.000 A 
ATOM     34  N   UNL     1       5.755   5.512  17.336  0.00  0.00    +0.000 NA
ATOM     35  C   UNL     1       4.584   4.939  17.647  0.00  0.00    +0.000 A 
ATOM     36  C   UNL     1       4.565   3.563  17.810  0.00  0.00    +0.000 A 
ENDBRANCH  24  31
ENDBRANCH   1  24
TORSDOF 5
ENDMDL
MODEL 8
REMARK VINA RESULT:      -9.3      2.023      5.227
REMARK  Name = 
REMARK  5 active torsions:
REMARK  status: ('A' for Active; 'I' for Inactive)
REMARK    1  A    between atoms: C_6  and  N_7
REMARK    2  A    between atoms: N_7  and  C_8
REMARK    3  A    between atoms: C_12  and  C_13
REMARK    4  A    between atoms: C_15  and  C_16
REMARK    5  A    between atoms: N_23  and  C_24
REMARK                            x       y       z     vdW  Elec       q    Type
REMARK                         _______ _______ _______ _____ _____    ______ ____
ROOT
ATOM      1  C   UNL     1       2.089   8.460  18.420  0.00  0.00    +0.000 A 
ATOM      2  C   UNL     1       2.009   8.010  19.741  0.00  0.00    +0.000 A 
ATOM      3  C   UNL     1       1.166   8.631  20.664  0.00  0.00    +0.000 A 
ATOM      4  C   UNL     1       0.389   9.720  20.278  0.00  0.00    +0.000 A 
ATOM      5  C   UNL     1       0.421  10.180  18.956  0.00  0.00    +0.000 A 
ATOM      6  C   UNL     1       1.261   9.523  18.033  0.00  0.00    +0.000 A 
ENDROOT
BRANCH   5   7
ATOM      7  C   UNL     1      -0.455  11.353  18.540  0.00  0.00    +0.000 C 
ATOM      8  C   UNL     1      -1.943  11.091  18.803  0.00  0.00    +0.000 C 
ATOM      9  C   UNL     1      -2.273  12.244  19.710  0.00  0.00    +0.000 C 
ATOM     10  N   UNL     1      -1.274  13.014  20.017  0.00  0.00    +0.000 NA
ATOM     11  N   UNL     1      -0.187  12.545  19.340  0.00  0.00    +0.000 N 
BRANCH   9  12
ATOM     12  C   UNL     1      -3.656  12.475  20.189  0.00  0.00    +0.000 A 
ATOM     13  C   UNL     1      -3.921  12.836  21.518  0.00  0.00    +0.000 A 
ATOM     14  C   UNL     1      -5.239  13.012  21.949  0.00  0.00    +0.000 A 
ATOM     15  C   UNL     1      -6.294  12.826  21.061  0.00  0.00    +0.000 A 
ATOM     16  C   UNL     1      -6.038  12.469  19.736  0.00  0.00    +0.000 A 
ATOM     17  C   UNL     1      -4.723  12.297  19.301  0.00  0.00    +0.000 A 
ENDBRANCH   9  12
BRANCH  11  18
ATOM     18  C   UNL     1       1.045  13.189  19.419  0.00  0.00    +0.000 A 
ATOM     19  C   UNL     1       1.634  13.446  20.665  0.00  0.00    +0.000 A 
ATOM     20  C   UNL     1       2.903  14.023  20.770  0.00  0.00    +0.000 A 
ATOM     21  C   UNL     1       3.597  14.390  19.622  0.00  0.00    +0.000 A 
ATOM     22  C   UNL     1       3.020  14.183  18.373  0.00  0.00    +0.000 A 
ATOM     23  C   UNL     1       1.759  13.585  18.275  0.00  0.00    +0.000 A 
ENDBRANCH  11  18
ENDBRANCH   5   7
BRANCH   1  24
ATOM     24  N   UNL     1       2.958   7.876  17.481  0.00  0.00    +0.000 N 
ATOM     25  H   UNL     1       2.839   8.211  16.531  0.00  0.00    +0.000 HD
BRANCH  24  31
ATOM     26 CL   UNL     1       1.967   1.247  18.756  0.00  0.00    +0.000 Cl
ATOM     27  C   UNL     1       2.473   2.848  18.378  0.00  0.00    +0.000 A 
ATOM     28  C   UNL     1       1.528   3.848  18.202  0.00  0.00    +0.000 A 
ATOM     29  C   UNL     1       1.954   5.148  17.928  0.00  0.00    +0.000 A 
ATOM     30  C   UNL     1       3.331   5.462  17.831  0.00  0.00    +0.000 A 
ATOM     31  C   UNL     1       3.833   6.771  17.592  0.00  0.00    +0.000 A 
ATOM     32  C   UNL     1       5.211   6.943  17.443  0.00  0.00    +0.000 A 
ATOM     33  C   UNL     1       6.036   5.845  17.566  0.00  0.00    +0.000 A 
ATOM     34  N   UNL     1       5.594   4.600  17.832  0.00  0.00    +0.000 NA
ATOM     35  C   UNL     1       4.274   4.414  17.965  0.00  0.00    +0.000 A 
ATOM     36  C   UNL     1       3.829   3.133  18.247  0.00  0.00    +0.000 A 
ENDBRANCH  24  31
ENDBRANCH   1  24
TORSDOF 5
ENDMDL
MODEL 9
REMARK VINA RESULT:      -9.2      1.893      5.350
REMARK  Name = 
REMARK  5 active torsions:
REMARK  status: ('A' for Active; 'I' for Inactive)
REMARK    1  A    between atoms: C_6  and  N_7
REMARK    2  A    between atoms: N_7  and  C_8
REMARK    3  A    between atoms: C_12  and  C_13
REMARK    4  A    between atoms: C_15  and  C_16
REMARK    5  A    between atoms: N_23  and  C_24
REMARK                            x       y       z     vdW  Elec       q    Type
REMARK                         _______ _______ _______ _____ _____    ______ ____
ROOT
ATOM      1  C   UNL     1       2.018   8.543  18.372  0.00  0.00    +0.000 A 
ATOM      2  C   UNL     1       1.914   8.199  19.723  0.00  0.00    +0.000 A 
ATOM      3  C   UNL     1       0.994   8.833  20.559  0.00  0.00    +0.000 A 
ATOM      4  C   UNL     1       0.162   9.829  20.054  0.00  0.00    +0.000 A 
ATOM      5  C   UNL     1       0.217  10.179  18.700  0.00  0.00    +0.000 A 
ATOM      6  C   UNL     1       1.138   9.510  17.867  0.00  0.00    +0.000 A 
ENDROOT
BRANCH   5   7
ATOM      7  C   UNL     1      -0.718  11.249  18.155  0.00  0.00    +0.000 C 
ATOM      8  C   UNL     1      -2.162  10.749  18.026  0.00  0.00    +0.000 C 
ATOM      9  C   UNL     1      -2.880  11.746  18.893  0.00  0.00    +0.000 C 
ATOM     10  N   UNL     1      -2.121  12.617  19.485  0.00  0.00    +0.000 NA
ATOM     11  N   UNL     1      -0.844  12.381  19.069  0.00  0.00    +0.000 N 
BRANCH   9  12
ATOM     12  C   UNL     1      -4.356  11.725  19.030  0.00  0.00    +0.000 A 
ATOM     13  C   UNL     1      -5.166  11.035  18.117  0.00  0.00    +0.000 A 
ATOM     14  C   UNL     1      -6.557  11.065  18.251  0.00  0.00    +0.000 A 
ATOM     15  C   UNL     1      -7.143  11.783  19.289  0.00  0.00    +0.000 A 
ATOM     16  C   UNL     1      -6.342  12.471  20.202  0.00  0.00    +0.000 A 
ATOM     17  C   UNL     1      -4.953  12.440  20.075  0.00  0.00    +0.000 A 
ENDBRANCH   9  12
BRANCH  11  18
ATOM     18  C   UNL     1       0.212  13.185  19.490  0.00  0.00    +0.000 A 
ATOM     19  C   UNL     1       0.410  13.442  20.854  0.00  0.00    +0.000 A 
ATOM     20  C   UNL     1       1.505  14.183  21.308  0.00  0.00    +0.000 A 
ATOM     21  C   UNL     1       2.410  14.717  20.396  0.00  0.00    +0.000 A 
ATOM     22  C   UNL     1       2.216  14.511  19.034  0.00  0.00    +0.000 A 
ATOM     23  C   UNL     1       1.130  13.749  18.588  0.00  0.00    +0.000 A 
ENDBRANCH  11  18
ENDBRANCH   5   7
BRANCH   1  24
ATOM     24  N   UNL     1       2.963   7.946  17.517  0.00  0.00    +0.000 N 
ATOM     25  H   UNL     1       2.931   8.275  16.558  0.00  0.00    +0.000 HD
BRANCH  24  31
ATOM     26 CL   UNL     1       1.815   1.346  18.807  0.00  0.00    +0.000 Cl
ATOM     27  C   UNL     1       2.364   2.937  18.446  0.00  0.00    +0.000 A 
ATOM     28  C   UNL     1       1.444   3.941  18.183  0.00  0.00    +0.000 A 
ATOM     29  C   UNL     1       1.902   5.234  17.924  0.00  0.00    +0.000 A 
ATOM     30  C   UNL     1       3.285   5.536  17.931  0.00  0.00    +0.000 A 
ATOM     31  C   UNL     1       3.817   6.836  17.712  0.00  0.00    +0.000 A 
ATOM     32  C   UNL     1       5.203   6.995  17.670  0.00  0.00    +0.000 A 
ATOM     33  C   UNL     1       6.006   5.893  17.873  0.00  0.00    +0.000 A 
ATOM     34  N   UNL     1       5.534   4.656  18.121  0.00  0.00    +0.000 NA
ATOM     35  C   UNL     1       4.205   4.482  18.153  0.00  0.00    +0.000 A 
ATOM     36  C   UNL     1       3.728   3.209  18.418  0.00  0.00    +0.000 A 
ENDBRANCH  24  31
ENDBRANCH   1  24
TORSDOF 5
ENDMDL
