MODEL 1
REMARK VINA RESULT:      -7.9      0.000      0.000
REMARK  Name = 
REMARK  5 active torsions:
REMARK  status: ('A' for Active; 'I' for Inactive)
REMARK    1  A    between atoms: C_1  and  C_2
REMARK    2  A    between atoms: C_2  and  C_3
REMARK    3  A    between atoms: C_2  and  C_4
REMARK    4  A    between atoms: C_11  and  C_13
REMARK    5  A    between atoms: C_16  and  N_17
REMARK                            x       y       z     vdW  Elec       q    Type
REMARK                         _______ _______ _______ _____ _____    ______ ____
ROOT
ATOM      1  C   UNL     1      -1.233  11.644  22.160  0.00  0.00    +0.000 A 
ATOM      2  C   UNL     1      -0.909  10.767  23.204  0.00  0.00    +0.000 A 
ATOM      3  C   UNL     1      -0.150   9.608  22.974  0.00  0.00    +0.000 A 
ATOM      4  C   UNL     1       0.318   9.317  21.676  0.00  0.00    +0.000 A 
ATOM      5  N   UNL     1       1.096   8.227  21.291  0.00  0.00    +0.000 NA
ATOM      6  C   UNL     1       1.414   8.341  20.023  0.00  0.00    +0.000 A 
ATOM      7  N   UNL     1       2.229   7.442  19.374  0.00  0.00    +0.000 N 
ATOM      8  C   UNL     1       2.844   7.659  18.161  0.00  0.00    +0.000 C 
ATOM      9  O   UNL     1       2.803   8.690  17.496  0.00  0.00    +0.000 OA
ATOM     10  S   UNL     1       0.689   9.642  19.192  0.00  0.00    +0.000 S 
ATOM     11  C   UNL     1      -0.011  10.202  20.649  0.00  0.00    +0.000 A 
ATOM     12  C   UNL     1      -0.787  11.353  20.862  0.00  0.00    +0.000 A 
ATOM     13  H   UNL     1       2.479   6.613  19.894  0.00  0.00    +0.000 HD
ENDROOT
BRANCH   8  14
ATOM     14  C   UNL     1       3.635   6.516  17.686  0.00  0.00    +0.000 A 
ATOM     15  C   UNL     1       4.703   6.673  16.819  0.00  0.00    +0.000 A 
ATOM     16  S   UNL     1       5.346   5.161  16.385  0.00  0.00    +0.000 S 
ATOM     17  C   UNL     1       4.158   4.370  17.365  0.00  0.00    +0.000 A 
ATOM     18  N   UNL     1       3.366   5.191  18.041  0.00  0.00    +0.000 NA
BRANCH  17  19
ATOM     19  N   UNL     1       4.120   3.017  17.303  0.00  0.00    +0.000 NA
ATOM     20  C   UNL     1       3.897   2.348  18.379  0.00  0.00    +0.000 C 
ATOM     21  N   UNL     1       3.732   2.771  19.656  0.00  0.00    +0.000 N 
ATOM     22  N   UNL     1       3.811   0.996  18.334  0.00  0.00    +0.000 N 
ATOM     23  H   UNL     1       3.573   3.775  19.704  0.00  0.00    +0.000 HD
ATOM     24  H   UNL     1       2.993   2.270  20.135  0.00  0.00    +0.000 HD
ATOM     25  H   UNL     1       4.131   0.640  17.437  0.00  0.00    +0.000 HD
ATOM     26  H   UNL     1       4.288   0.539  19.101  0.00  0.00    +0.000 HD
ENDBRANCH  17  19
ENDBRANCH   8  14
BRANCH   1  28
ATOM     27  C   UNL     1      -3.480  12.615  22.802  0.00  0.00    +0.000 C 
ATOM     28  C   UNL     1      -2.036  12.915  22.393  0.00  0.00    +0.000 C 
ATOM     29  C   UNL     1      -1.353  13.828  23.413  0.00  0.00    +0.000 C 
ENDBRANCH   1  28
TORSDOF 3
ENDMDL
MODEL 2
REMARK VINA RESULT:      -7.9      4.197      9.922
REMARK  Name = 
REMARK  5 active torsions:
REMARK  status: ('A' for Active; 'I' for Inactive)
REMARK    1  A    between atoms: C_1  and  C_2
REMARK    2  A    between atoms: C_2  and  C_3
REMARK    3  A    between atoms: C_2  and  C_4
REMARK    4  A    between atoms: C_11  and  C_13
REMARK    5  A    between atoms: C_16  and  N_17
REMARK                            x       y       z     vdW  Elec       q    Type
REMARK                         _______ _______ _______ _____ _____    ______ ____
ROOT
ATOM      1  C   UNL     1       3.033   6.919  18.482  0.00  0.00    +0.000 A 
ATOM      2  C   UNL     1       2.875   7.917  17.511  0.00  0.00    +0.000 A 
ATOM      3  C   UNL     1       2.054   9.034  17.738  0.00  0.00    +0.000 A 
ATOM      4  C   UNL     1       1.385   9.178  18.971  0.00  0.00    +0.000 A 
ATOM      5  N   UNL     1       0.560  10.232  19.357  0.00  0.00    +0.000 NA
ATOM      6  C   UNL     1       0.191  10.066  20.606  0.00  0.00    +0.000 A 
ATOM      7  N   UNL     1      -0.581  10.981  21.284  0.00  0.00    +0.000 N 
ATOM      8  C   UNL     1      -0.742  11.027  22.651  0.00  0.00    +0.000 C 
ATOM      9  O   UNL     1      -0.195  10.300  23.475  0.00  0.00    +0.000 OA
ATOM     10  S   UNL     1       0.666   8.596  21.329  0.00  0.00    +0.000 S 
ATOM     11  C   UNL     1       1.555   8.178  19.928  0.00  0.00    +0.000 A 
ATOM     12  C   UNL     1       2.355   7.045  19.705  0.00  0.00    +0.000 A 
ATOM     13  H   UNL     1      -0.958  11.740  20.733  0.00  0.00    +0.000 HD
ENDROOT
BRANCH   8  14
ATOM     14  C   UNL     1      -1.648  12.090  23.105  0.00  0.00    +0.000 A 
ATOM     15  C   UNL     1      -1.226  13.400  23.253  0.00  0.00    +0.000 A 
ATOM     16  S   UNL     1      -2.478  14.362  23.882  0.00  0.00    +0.000 S 
ATOM     17  C   UNL     1      -3.518  12.980  23.938  0.00  0.00    +0.000 A 
ATOM     18  N   UNL     1      -2.987  11.870  23.446  0.00  0.00    +0.000 NA
BRANCH  17  19
ATOM     19  N   UNL     1      -4.730  13.153  24.520  0.00  0.00    +0.000 NA
ATOM     20  C   UNL     1      -5.792  12.905  23.836  0.00  0.00    +0.000 C 
ATOM     21  N   UNL     1      -5.934  12.526  22.544  0.00  0.00    +0.000 N 
ATOM     22  N   UNL     1      -7.013  13.029  24.411  0.00  0.00    +0.000 N 
ATOM     23  H   UNL     1      -5.053  12.214  22.142  0.00  0.00    +0.000 HD
ATOM     24  H   UNL     1      -6.649  11.818  22.426  0.00  0.00    +0.000 HD
ATOM     25  H   UNL     1      -6.949  13.504  25.306  0.00  0.00    +0.000 HD
ATOM     26  H   UNL     1      -7.695  13.473  23.808  0.00  0.00    +0.000 HD
ENDBRANCH  17  19
ENDBRANCH   8  14
BRANCH   1  28
ATOM     27  C   UNL     1       5.108   6.036  17.337  0.00  0.00    +0.000 C 
ATOM     28  C   UNL     1       3.934   5.713  18.263  0.00  0.00    +0.000 C 
ATOM     29  C   UNL     1       4.421   5.131  19.591  0.00  0.00    +0.000 C 
ENDBRANCH   1  28
TORSDOF 3
ENDMDL
MODEL 3
REMARK VINA RESULT:      -7.7      1.612      2.207
REMARK  Name = 
REMARK  5 active torsions:
REMARK  status: ('A' for Active; 'I' for Inactive)
REMARK    1  A    between atoms: C_1  and  C_2
REMARK    2  A    between atoms: C_2  and  C_3
REMARK    3  A    between atoms: C_2  and  C_4
REMARK    4  A    between atoms: C_11  and  C_13
REMARK    5  A    between atoms: C_16  and  N_17
REMARK                            x       y       z     vdW  Elec       q    Type
REMARK                         _______ _______ _______ _____ _____    ______ ____
ROOT
ATOM      1  C   UNL     1      -1.325  11.609  21.983  0.00  0.00    +0.000 A 
ATOM      2  C   UNL     1      -1.057  10.853  23.131  0.00  0.00    +0.000 A 
ATOM      3  C   UNL     1      -0.276   9.687  23.072  0.00  0.00    +0.000 A 
ATOM      4  C   UNL     1       0.272   9.267  21.843  0.00  0.00    +0.000 A 
ATOM      5  N   UNL     1       1.081   8.153  21.624  0.00  0.00    +0.000 NA
ATOM      6  C   UNL     1       1.474   8.136  20.372  0.00  0.00    +0.000 A 
ATOM      7  N   UNL     1       2.334   7.185  19.873  0.00  0.00    +0.000 N 
ATOM      8  C   UNL     1       3.019   7.280  18.681  0.00  0.00    +0.000 C 
ATOM      9  O   UNL     1       3.009   8.234  17.908  0.00  0.00    +0.000 OA
ATOM     10  S   UNL     1       0.789   9.330  19.364  0.00  0.00    +0.000 S 
ATOM     11  C   UNL     1      -0.002  10.032  20.710  0.00  0.00    +0.000 A 
ATOM     12  C   UNL     1      -0.799  11.187  20.751  0.00  0.00    +0.000 A 
ATOM     13  H   UNL     1       2.559   6.419  20.492  0.00  0.00    +0.000 HD
ENDROOT
BRANCH   8  14
ATOM     14  C   UNL     1       3.847   6.105  18.379  0.00  0.00    +0.000 A 
ATOM     15  C   UNL     1       4.715   5.561  19.309  0.00  0.00    +0.000 A 
ATOM     16  S   UNL     1       5.593   4.276  18.624  0.00  0.00    +0.000 S 
ATOM     17  C   UNL     1       4.779   4.519  17.116  0.00  0.00    +0.000 A 
ATOM     18  N   UNL     1       3.848   5.461  17.137  0.00  0.00    +0.000 NA
BRANCH  17  19
ATOM     19  N   UNL     1       5.206   3.774  16.067  0.00  0.00    +0.000 NA
ATOM     20  C   UNL     1       5.891   4.340  15.136  0.00  0.00    +0.000 C 
ATOM     21  N   UNL     1       6.246   5.637  14.974  0.00  0.00    +0.000 N 
ATOM     22  N   UNL     1       6.364   3.606  14.099  0.00  0.00    +0.000 N 
ATOM     23  H   UNL     1       6.102   6.177  15.824  0.00  0.00    +0.000 HD
ATOM     24  H   UNL     1       7.199   5.737  14.645  0.00  0.00    +0.000 HD
ATOM     25  H   UNL     1       5.945   2.681  14.086  0.00  0.00    +0.000 HD
ATOM     26  H   UNL     1       6.263   4.068  13.204  0.00  0.00    +0.000 HD
ENDBRANCH  17  19
ENDBRANCH   8  14
BRANCH   1  28
ATOM     27  C   UNL     1      -2.788  13.206  20.677  0.00  0.00    +0.000 C 
ATOM     28  C   UNL     1      -2.151  12.885  22.030  0.00  0.00    +0.000 C 
ATOM     29  C   UNL     1      -3.205  12.827  23.137  0.00  0.00    +0.000 C 
ENDBRANCH   1  28
TORSDOF 3
ENDMDL
MODEL 4
REMARK VINA RESULT:      -7.6      1.059      1.139
REMARK  Name = 
REMARK  5 active torsions:
REMARK  status: ('A' for Active; 'I' for Inactive)
REMARK    1  A    between atoms: C_1  and  C_2
REMARK    2  A    between atoms: C_2  and  C_3
REMARK    3  A    between atoms: C_2  and  C_4
REMARK    4  A    between atoms: C_11  and  C_13
REMARK    5  A    between atoms: C_16  and  N_17
REMARK                            x       y       z     vdW  Elec       q    Type
REMARK                         _______ _______ _______ _____ _____    ______ ____
ROOT
ATOM      1  C   UNL     1      -1.735  11.846  21.915  0.00  0.00    +0.000 A 
ATOM      2  C   UNL     1      -1.341  11.167  23.075  0.00  0.00    +0.000 A 
ATOM      3  C   UNL     1      -0.465  10.069  23.018  0.00  0.00    +0.000 A 
ATOM      4  C   UNL     1       0.050   9.644  21.776  0.00  0.00    +0.000 A 
ATOM      5  N   UNL     1       0.941   8.595  21.555  0.00  0.00    +0.000 NA
ATOM      6  C   UNL     1       1.266   8.556  20.284  0.00  0.00    +0.000 A 
ATOM      7  N   UNL     1       2.178   7.660  19.775  0.00  0.00    +0.000 N 
ATOM      8  C   UNL     1       2.787   7.761  18.543  0.00  0.00    +0.000 C 
ATOM      9  O   UNL     1       2.652   8.675  17.735  0.00  0.00    +0.000 OA
ATOM     10  S   UNL     1       0.426   9.641  19.272  0.00  0.00    +0.000 S 
ATOM     11  C   UNL     1      -0.349  10.332  20.632  0.00  0.00    +0.000 A 
ATOM     12  C   UNL     1      -1.241  11.416  20.673  0.00  0.00    +0.000 A 
ATOM     13  H   UNL     1       2.501   6.944  20.410  0.00  0.00    +0.000 HD
ENDROOT
BRANCH   8  14
ATOM     14  C   UNL     1       3.696   6.648  18.240  0.00  0.00    +0.000 A 
ATOM     15  C   UNL     1       4.141   6.394  16.954  0.00  0.00    +0.000 A 
ATOM     16  S   UNL     1       5.097   4.989  16.921  0.00  0.00    +0.000 S 
ATOM     17  C   UNL     1       4.859   4.781  18.623  0.00  0.00    +0.000 A 
ATOM     18  N   UNL     1       4.163   5.748  19.204  0.00  0.00    +0.000 NA
BRANCH  17  19
ATOM     19  N   UNL     1       5.351   3.644  19.173  0.00  0.00    +0.000 NA
ATOM     20  C   UNL     1       4.531   2.788  19.674  0.00  0.00    +0.000 C 
ATOM     21  N   UNL     1       3.184   2.838  19.808  0.00  0.00    +0.000 N 
ATOM     22  N   UNL     1       4.997   1.625  20.191  0.00  0.00    +0.000 N 
ATOM     23  H   UNL     1       2.776   3.582  19.247  0.00  0.00    +0.000 HD
ATOM     24  H   UNL     1       2.744   1.950  19.598  0.00  0.00    +0.000 HD
ATOM     25  H   UNL     1       6.008   1.648  20.291  0.00  0.00    +0.000 HD
ATOM     26  H   UNL     1       4.548   1.366  21.061  0.00  0.00    +0.000 HD
ENDBRANCH  17  19
ENDBRANCH   8  14
BRANCH   1  28
ATOM     27  C   UNL     1      -3.631  13.070  20.773  0.00  0.00    +0.000 C 
ATOM     28  C   UNL     1      -2.665  13.048  21.960  0.00  0.00    +0.000 C 
ATOM     29  C   UNL     1      -3.420  13.121  23.288  0.00  0.00    +0.000 C 
ENDBRANCH   1  28
TORSDOF 3
ENDMDL
MODEL 5
REMARK VINA RESULT:      -7.6      3.951      9.818
REMARK  Name = 
REMARK  5 active torsions:
REMARK  status: ('A' for Active; 'I' for Inactive)
REMARK    1  A    between atoms: C_1  and  C_2
REMARK    2  A    between atoms: C_2  and  C_3
REMARK    3  A    between atoms: C_2  and  C_4
REMARK    4  A    between atoms: C_11  and  C_13
REMARK    5  A    between atoms: C_16  and  N_17
REMARK                            x       y       z     vdW  Elec       q    Type
REMARK                         _______ _______ _______ _____ _____    ______ ____
ROOT
ATOM      1  C   UNL     1       3.392   6.099  18.742  0.00  0.00    +0.000 A 
ATOM      2  C   UNL     1       3.404   7.053  17.716  0.00  0.00    +0.000 A 
ATOM      3  C   UNL     1       2.665   8.244  17.818  0.00  0.00    +0.000 A 
ATOM      4  C   UNL     1       1.907   8.506  18.978  0.00  0.00    +0.000 A 
ATOM      5  N   UNL     1       1.145   9.643  19.240  0.00  0.00    +0.000 NA
ATOM      6  C   UNL     1       0.658   9.573  20.456  0.00  0.00    +0.000 A 
ATOM      7  N   UNL     1      -0.089  10.582  21.020  0.00  0.00    +0.000 N 
ATOM      8  C   UNL     1      -0.363  10.713  22.363  0.00  0.00    +0.000 C 
ATOM      9  O   UNL     1       0.047   9.988  23.265  0.00  0.00    +0.000 OA
ATOM     10  S   UNL     1       0.940   8.109  21.284  0.00  0.00    +0.000 S 
ATOM     11  C   UNL     1       1.908   7.548  19.990  0.00  0.00    +0.000 A 
ATOM     12  C   UNL     1       2.625   6.344  19.891  0.00  0.00    +0.000 A 
ATOM     13  H   UNL     1      -0.351  11.339  20.404  0.00  0.00    +0.000 HD
ENDROOT
BRANCH   8  14
ATOM     14  C   UNL     1      -1.211  11.868  22.686  0.00  0.00    +0.000 A 
ATOM     15  C   UNL     1      -0.803  13.168  22.437  0.00  0.00    +0.000 A 
ATOM     16  S   UNL     1      -1.961  14.274  23.008  0.00  0.00    +0.000 S 
ATOM     17  C   UNL     1      -2.942  12.964  23.570  0.00  0.00    +0.000 A 
ATOM     18  N   UNL     1      -2.469  11.759  23.284  0.00  0.00    +0.000 NA
BRANCH  17  19
ATOM     19  N   UNL     1      -4.048  13.292  24.282  0.00  0.00    +0.000 NA
ATOM     20  C   UNL     1      -5.208  13.036  23.788  0.00  0.00    +0.000 C 
ATOM     21  N   UNL     1      -5.554  12.510  22.589  0.00  0.00    +0.000 N 
ATOM     22  N   UNL     1      -6.326  13.316  24.501  0.00  0.00    +0.000 N 
ATOM     23  H   UNL     1      -4.756  12.089  22.117  0.00  0.00    +0.000 HD
ATOM     24  H   UNL     1      -6.314  11.845  22.665  0.00  0.00    +0.000 HD
ATOM     25  H   UNL     1      -6.110  13.893  25.308  0.00  0.00    +0.000 HD
ATOM     26  H   UNL     1      -7.064  13.728  23.942  0.00  0.00    +0.000 HD
ENDBRANCH  17  19
ENDBRANCH   8  14
BRANCH   1  28
ATOM     27  C   UNL     1       3.619   3.711  19.546  0.00  0.00    +0.000 C 
ATOM     28  C   UNL     1       4.201   4.814  18.659  0.00  0.00    +0.000 C 
ATOM     29  C   UNL     1       4.347   4.339  17.212  0.00  0.00    +0.000 C 
ENDBRANCH   1  28
TORSDOF 3
ENDMDL
MODEL 6
REMARK VINA RESULT:      -7.6      1.735      2.038
REMARK  Name = 
REMARK  5 active torsions:
REMARK  status: ('A' for Active; 'I' for Inactive)
REMARK    1  A    between atoms: C_1  and  C_2
REMARK    2  A    between atoms: C_2  and  C_3
REMARK    3  A    between atoms: C_2  and  C_4
REMARK    4  A    between atoms: C_11  and  C_13
REMARK    5  A    between atoms: C_16  and  N_17
REMARK                            x       y       z     vdW  Elec       q    Type
REMARK                         _______ _______ _______ _____ _____    ______ ____
ROOT
ATOM      1  C   UNL     1      -1.373  12.117  22.147  0.00  0.00    +0.000 A 
ATOM      2  C   UNL     1      -1.226  11.213  23.208  0.00  0.00    +0.000 A 
ATOM      3  C   UNL     1      -0.590   9.974  23.030  0.00  0.00    +0.000 A 
ATOM      4  C   UNL     1      -0.067   9.626  21.767  0.00  0.00    +0.000 A 
ATOM      5  N   UNL     1       0.607   8.452  21.436  0.00  0.00    +0.000 NA
ATOM      6  C   UNL     1       1.026   8.523  20.194  0.00  0.00    +0.000 A 
ATOM      7  N   UNL     1       1.777   7.533  19.602  0.00  0.00    +0.000 N 
ATOM      8  C   UNL     1       2.497   7.672  18.436  0.00  0.00    +0.000 C 
ATOM      9  O   UNL     1       2.621   8.698  17.773  0.00  0.00    +0.000 OA
ATOM     10  S   UNL     1       0.514   9.893  19.317  0.00  0.00    +0.000 S 
ATOM     11  C   UNL     1      -0.219  10.536  20.723  0.00  0.00    +0.000 A 
ATOM     12  C   UNL     1      -0.872  11.769  20.883  0.00  0.00    +0.000 A 
ATOM     13  H   UNL     1       1.893   6.683  20.136  0.00  0.00    +0.000 HD
ENDROOT
BRANCH   8  14
ATOM     14  C   UNL     1       3.185   6.444  18.015  0.00  0.00    +0.000 A 
ATOM     15  C   UNL     1       2.553   5.213  18.019  0.00  0.00    +0.000 A 
ATOM     16  S   UNL     1       3.640   3.985  17.572  0.00  0.00    +0.000 S 
ATOM     17  C   UNL     1       4.903   5.156  17.407  0.00  0.00    +0.000 A 
ATOM     18  N   UNL     1       4.521   6.410  17.605  0.00  0.00    +0.000 NA
BRANCH  17  19
ATOM     19  N   UNL     1       6.147   4.681  17.153  0.00  0.00    +0.000 NA
ATOM     20  C   UNL     1       7.045   4.760  18.071  0.00  0.00    +0.000 C 
ATOM     21  N   UNL     1       6.990   5.312  19.307  0.00  0.00    +0.000 N 
ATOM     22  N   UNL     1       8.283   4.253  17.855  0.00  0.00    +0.000 N 
ATOM     23  H   UNL     1       6.033   5.507  19.591  0.00  0.00    +0.000 HD
ATOM     24  H   UNL     1       7.460   4.744  20.003  0.00  0.00    +0.000 HD
ATOM     25  H   UNL     1       8.417   4.019  16.875  0.00  0.00    +0.000 HD
ATOM     26  H   UNL     1       9.026   4.852  18.194  0.00  0.00    +0.000 HD
ENDBRANCH  17  19
ENDBRANCH   8  14
BRANCH   1  28
ATOM     27  C   UNL     1      -2.839  13.886  21.089  0.00  0.00    +0.000 C 
ATOM     28  C   UNL     1      -2.040  13.472  22.326  0.00  0.00    +0.000 C 
ATOM     29  C   UNL     1      -2.913  13.503  23.582  0.00  0.00    +0.000 C 
ENDBRANCH   1  28
TORSDOF 3
ENDMDL
MODEL 7
REMARK VINA RESULT:      -7.5      2.108      2.748
REMARK  Name = 
REMARK  5 active torsions:
REMARK  status: ('A' for Active; 'I' for Inactive)
REMARK    1  A    between atoms: C_1  and  C_2
REMARK    2  A    between atoms: C_2  and  C_3
REMARK    3  A    between atoms: C_2  and  C_4
REMARK    4  A    between atoms: C_11  and  C_13
REMARK    5  A    between atoms: C_16  and  N_17
REMARK                            x       y       z     vdW  Elec       q    Type
REMARK                         _______ _______ _______ _____ _____    ______ ____
ROOT
ATOM      1  C   UNL     1      -0.899  12.098  21.978  0.00  0.00    +0.000 A 
ATOM      2  C   UNL     1      -0.762  12.564  20.664  0.00  0.00    +0.000 A 
ATOM      3  C   UNL     1      -0.069  11.821  19.694  0.00  0.00    +0.000 A 
ATOM      4  C   UNL     1       0.489  10.570  20.030  0.00  0.00    +0.000 A 
ATOM      5  N   UNL     1       1.181   9.707  19.182  0.00  0.00    +0.000 NA
ATOM      6  C   UNL     1       1.468   8.599  19.824  0.00  0.00    +0.000 A 
ATOM      7  N   UNL     1       2.098   7.532  19.225  0.00  0.00    +0.000 N 
ATOM      8  C   UNL     1       2.151   6.253  19.734  0.00  0.00    +0.000 C 
ATOM      9  O   UNL     1       1.614   5.854  20.763  0.00  0.00    +0.000 OA
ATOM     10  S   UNL     1       1.080   8.583  21.485  0.00  0.00    +0.000 S 
ATOM     11  C   UNL     1       0.342  10.120  21.341  0.00  0.00    +0.000 A 
ATOM     12  C   UNL     1      -0.330  10.863  22.326  0.00  0.00    +0.000 A 
ATOM     13  H   UNL     1       2.443   7.688  18.288  0.00  0.00    +0.000 HD
ENDROOT
BRANCH   8  14
ATOM     14  C   UNL     1       2.917   5.316  18.901  0.00  0.00    +0.000 A 
ATOM     15  C   UNL     1       2.780   3.944  19.026  0.00  0.00    +0.000 A 
ATOM     16  S   UNL     1       3.867   3.141  17.995  0.00  0.00    +0.000 S 
ATOM     17  C   UNL     1       4.475   4.664  17.442  0.00  0.00    +0.000 A 
ATOM     18  N   UNL     1       3.853   5.721  17.945  0.00  0.00    +0.000 NA
BRANCH  17  19
ATOM     19  N   UNL     1       5.544   4.628  16.610  0.00  0.00    +0.000 NA
ATOM     20  C   UNL     1       6.728   4.630  17.113  0.00  0.00    +0.000 C 
ATOM     21  N   UNL     1       7.133   4.718  18.403  0.00  0.00    +0.000 N 
ATOM     22  N   UNL     1       7.811   4.551  16.302  0.00  0.00    +0.000 N 
ATOM     23  H   UNL     1       6.365   4.562  19.051  0.00  0.00    +0.000 HD
ATOM     24  H   UNL     1       7.904   4.095  18.608  0.00  0.00    +0.000 HD
ATOM     25  H   UNL     1       7.550   4.690  15.330  0.00  0.00    +0.000 HD
ATOM     26  H   UNL     1       8.561   5.176  16.573  0.00  0.00    +0.000 HD
ENDBRANCH  17  19
ENDBRANCH   8  14
BRANCH   1  28
ATOM     27  C   UNL     1      -2.016  14.291  22.564  0.00  0.00    +0.000 C 
ATOM     28  C   UNL     1      -1.663  12.879  23.036  0.00  0.00    +0.000 C 
ATOM     29  C   UNL     1      -2.911  12.123  23.495  0.00  0.00    +0.000 C 
ENDBRANCH   1  28
TORSDOF 3
ENDMDL
MODEL 8
REMARK VINA RESULT:      -7.5      0.832      1.140
REMARK  Name = 
REMARK  5 active torsions:
REMARK  status: ('A' for Active; 'I' for Inactive)
REMARK    1  A    between atoms: C_1  and  C_2
REMARK    2  A    between atoms: C_2  and  C_3
REMARK    3  A    between atoms: C_2  and  C_4
REMARK    4  A    between atoms: C_11  and  C_13
REMARK    5  A    between atoms: C_16  and  N_17
REMARK                            x       y       z     vdW  Elec       q    Type
REMARK                         _______ _______ _______ _____ _____    ______ ____
ROOT
ATOM      1  C   UNL     1      -1.687  12.000  21.951  0.00  0.00    +0.000 A 
ATOM      2  C   UNL     1      -1.294  11.271  23.080  0.00  0.00    +0.000 A 
ATOM      3  C   UNL     1      -0.455  10.150  22.971  0.00  0.00    +0.000 A 
ATOM      4  C   UNL     1       0.024   9.749  21.707  0.00  0.00    +0.000 A 
ATOM      5  N   UNL     1       0.877   8.681  21.435  0.00  0.00    +0.000 NA
ATOM      6  C   UNL     1       1.178   8.674  20.158  0.00  0.00    +0.000 A 
ATOM      7  N   UNL     1       2.051   7.767  19.602  0.00  0.00    +0.000 N 
ATOM      8  C   UNL     1       2.641   7.889  18.363  0.00  0.00    +0.000 C 
ATOM      9  O   UNL     1       2.522   8.833  17.588  0.00  0.00    +0.000 OA
ATOM     10  S   UNL     1       0.355   9.818  19.197  0.00  0.00    +0.000 S 
ATOM     11  C   UNL     1      -0.374  10.487  20.593  0.00  0.00    +0.000 A 
ATOM     12  C   UNL     1      -1.230  11.597  20.686  0.00  0.00    +0.000 A 
ATOM     13  H   UNL     1       2.363   7.021  20.208  0.00  0.00    +0.000 HD
ENDROOT
BRANCH   8  14
ATOM     14  C   UNL     1       3.509   6.759  18.007  0.00  0.00    +0.000 A 
ATOM     15  C   UNL     1       4.351   6.799  16.909  0.00  0.00    +0.000 A 
ATOM     16  S   UNL     1       5.146   5.309  16.714  0.00  0.00    +0.000 S 
ATOM     17  C   UNL     1       4.318   4.681  18.097  0.00  0.00    +0.000 A 
ATOM     18  N   UNL     1       3.541   5.556  18.719  0.00  0.00    +0.000 NA
BRANCH  17  19
ATOM     19  N   UNL     1       4.498   3.365  18.370  0.00  0.00    +0.000 NA
ATOM     20  C   UNL     1       3.566   2.531  18.065  0.00  0.00    +0.000 C 
ATOM     21  N   UNL     1       2.339   2.743  17.533  0.00  0.00    +0.000 N 
ATOM     22  N   UNL     1       3.742   1.206  18.289  0.00  0.00    +0.000 N 
ATOM     23  H   UNL     1       2.249   3.682  17.152  0.00  0.00    +0.000 HD
ATOM     24  H   UNL     1       2.098   2.051  16.834  0.00  0.00    +0.000 HD
ATOM     25  H   UNL     1       4.559   1.038  18.869  0.00  0.00    +0.000 HD
ATOM     26  H   UNL     1       2.921   0.753  18.671  0.00  0.00    +0.000 HD
ENDBRANCH  17  19
ENDBRANCH   8  14
BRANCH   1  28
ATOM     27  C   UNL     1      -1.784  14.483  22.423  0.00  0.00    +0.000 C 
ATOM     28  C   UNL     1      -2.578  13.229  22.051  0.00  0.00    +0.000 C 
ATOM     29  C   UNL     1      -3.380  13.444  20.767  0.00  0.00    +0.000 C 
ENDBRANCH   1  28
TORSDOF 3
ENDMDL
MODEL 9
REMARK VINA RESULT:      -7.4      2.050      2.446
REMARK  Name = 
REMARK  5 active torsions:
REMARK  status: ('A' for Active; 'I' for Inactive)
REMARK    1  A    between atoms: C_1  and  C_2
REMARK    2  A    between atoms: C_2  and  C_3
REMARK    3  A    between atoms: C_2  and  C_4
REMARK    4  A    between atoms: C_11  and  C_13
REMARK    5  A    between atoms: C_16  and  N_17
REMARK                            x       y       z     vdW  Elec       q    Type
REMARK                         _______ _______ _______ _____ _____    ______ ____
ROOT
ATOM      1  C   UNL     1      -1.711  12.482  21.604  0.00  0.00    +0.000 A 
ATOM      2  C   UNL     1      -1.520  11.951  22.887  0.00  0.00    +0.000 A 
ATOM      3  C   UNL     1      -0.817  10.751  23.084  0.00  0.00    +0.000 A 
ATOM      4  C   UNL     1      -0.269  10.066  21.979  0.00  0.00    +0.000 A 
ATOM      5  N   UNL     1       0.470   8.885  22.010  0.00  0.00    +0.000 NA
ATOM      6  C   UNL     1       0.890   8.599  20.800  0.00  0.00    +0.000 A 
ATOM      7  N   UNL     1       1.696   7.518  20.526  0.00  0.00    +0.000 N 
ATOM      8  C   UNL     1       2.414   7.337  19.364  0.00  0.00    +0.000 C 
ATOM      9  O   UNL     1       2.485   8.119  18.421  0.00  0.00    +0.000 OA
ATOM     10  S   UNL     1       0.309   9.611  19.556  0.00  0.00    +0.000 S 
ATOM     11  C   UNL     1      -0.465  10.609  20.711  0.00  0.00    +0.000 A 
ATOM     12  C   UNL     1      -1.185  11.796  20.498  0.00  0.00    +0.000 A 
ATOM     13  H   UNL     1       1.856   6.877  21.291  0.00  0.00    +0.000 HD
ENDROOT
BRANCH   8  14
ATOM     14  C   UNL     1       3.169   6.077  19.326  0.00  0.00    +0.000 A 
ATOM     15  C   UNL     1       2.625   4.883  19.766  0.00  0.00    +0.000 A 
ATOM     16  S   UNL     1       3.778   3.636  19.680  0.00  0.00    +0.000 S 
ATOM     17  C   UNL     1       4.949   4.755  19.071  0.00  0.00    +0.000 A 
ATOM     18  N   UNL     1       4.488   5.982  18.872  0.00  0.00    +0.000 NA
BRANCH  17  19
ATOM     19  N   UNL     1       6.212   4.290  18.914  0.00  0.00    +0.000 NA
ATOM     20  C   UNL     1       6.883   4.642  17.874  0.00  0.00    +0.000 C 
ATOM     21  N   UNL     1       6.520   5.401  16.812  0.00  0.00    +0.000 N 
ATOM     22  N   UNL     1       8.163   4.224  17.717  0.00  0.00    +0.000 N 
ATOM     23  H   UNL     1       5.655   5.908  16.988  0.00  0.00    +0.000 HD
ATOM     24  H   UNL     1       7.254   6.036  16.524  0.00  0.00    +0.000 HD
ATOM     25  H   UNL     1       8.393   3.495  18.386  0.00  0.00    +0.000 HD
ATOM     26  H   UNL     1       8.376   3.934  16.770  0.00  0.00    +0.000 HD
ENDBRANCH  17  19
ENDBRANCH   8  14
BRANCH   1  28
ATOM     27  C   UNL     1      -3.146  14.287  22.643  0.00  0.00    +0.000 C 
ATOM     28  C   UNL     1      -2.451  13.790  21.374  0.00  0.00    +0.000 C 
ATOM     29  C   UNL     1      -1.524  14.862  20.796  0.00  0.00    +0.000 C 
ENDBRANCH   1  28
TORSDOF 3
ENDMDL
