MODEL 1
REMARK VINA RESULT:      -7.5      0.000      0.000
REMARK  Name = 
REMARK  9 active torsions:
REMARK  status: ('A' for Active; 'I' for Inactive)
REMARK    1  A    between atoms: C_1  and  O_2
REMARK    2  A    between atoms: O_2  and  C_3
REMARK    3  A    between atoms: C_7  and  N_8
REMARK    4  A    between atoms: C_11  and  C_12
REMARK    5  A    between atoms: C_12  and  O_13
REMARK    6  A    between atoms: C_12  and  C_14
REMARK    7  A    between atoms: C_14  and  N_15
REMARK    8  A    between atoms: C_17  and  C_18
REMARK    9  A    between atoms: C_24  and  C_25
REMARK                            x       y       z     vdW  Elec       q    Type
REMARK                         _______ _______ _______ _____ _____    ______ ____
ROOT
ATOM      1  C   UNL     1       1.644   4.172  19.864  0.00  0.00    +0.000 C 
ENDROOT
BRANCH   1   5
ATOM      2  N   UNL     1       4.480   3.678  17.284  0.00  0.00    +0.000 N 
ATOM      3  C   UNL     1       4.736   4.108  18.658  0.00  0.00    +0.000 C 
ATOM      4  C   UNL     1       3.989   3.152  19.597  0.00  0.00    +0.000 C 
ATOM      5  C   UNL     1       2.481   3.006  19.281  0.00  0.00    +0.000 C 
ATOM      6  C   UNL     1       2.289   2.752  17.775  0.00  0.00    +0.000 C 
ATOM      7  C   UNL     1       3.070   3.713  16.886  0.00  0.00    +0.000 C 
BRANCH   2  12
ATOM      8  C   UNL     1       6.154   3.951  13.951  0.00  0.00    +0.000 A 
ATOM      9  C   UNL     1       7.286   4.688  14.321  0.00  0.00    +0.000 A 
ATOM     10  C   UNL     1       7.458   5.104  15.634  0.00  0.00    +0.000 A 
ATOM     11  C   UNL     1       6.501   4.766  16.585  0.00  0.00    +0.000 A 
ATOM     12  C   UNL     1       5.362   4.010  16.254  0.00  0.00    +0.000 A 
ATOM     13  C   UNL     1       5.190   3.632  14.916  0.00  0.00    +0.000 A 
BRANCH   8  15
ATOM     14  C   UNL     1       7.186   4.090  11.811  0.00  0.00    +0.000 C 
ATOM     15  O   UNL     1       6.139   3.593  12.629  0.00  0.00    +0.000 OA
ENDBRANCH   8  15
ENDBRANCH   2  12
ENDBRANCH   1   5
BRANCH   1  16
ATOM     16  O   UNL     1       0.592   3.708  20.710  0.00  0.00    +0.000 OA
ATOM     17  H   UNL     1       0.964   3.438  21.566  0.00  0.00    +0.000 HD
ENDBRANCH   1  16
BRANCH   1  18
ATOM     18  C   UNL     1       2.453   5.250  20.604  0.00  0.00    +0.000 C 
BRANCH  18  19
ATOM     19  N   UNL     1       1.996   6.601  20.344  0.00  0.00    +0.000 N 
ATOM     20  N   UNL     1       1.165   7.196  21.222  0.00  0.00    +0.000 NA
ATOM     21  C   UNL     1       0.917   8.410  20.682  0.00  0.00    +0.000 A 
ATOM     22  C   UNL     1       1.600   8.557  19.451  0.00  0.00    +0.000 A 
ATOM     23 CL   UNL     1       1.564   9.916  18.436  0.00  0.00    +0.000 Cl
ATOM     24  C   UNL     1       2.285   7.378  19.251  0.00  0.00    +0.000 A 
ATOM     25  C   UNL     1       3.163   6.935  18.140  0.00  0.00    +0.000 C 
BRANCH  21  26
ATOM     26  C   UNL     1       0.031   9.442  21.316  0.00  0.00    +0.000 C 
ATOM     27  F   UNL     1      -0.857  10.005  20.452  0.00  0.00    +0.000 F 
ATOM     28  F   UNL     1      -0.706   8.917  22.334  0.00  0.00    +0.000 F 
ATOM     29  F   UNL     1       0.749  10.468  21.849  0.00  0.00    +0.000 F 
ENDBRANCH  21  26
ENDBRANCH  18  19
ENDBRANCH   1  18
TORSDOF 7
ENDMDL
MODEL 2
REMARK VINA RESULT:      -7.4      3.945      7.135
REMARK  Name = 
REMARK  9 active torsions:
REMARK  status: ('A' for Active; 'I' for Inactive)
REMARK    1  A    between atoms: C_1  and  O_2
REMARK    2  A    between atoms: O_2  and  C_3
REMARK    3  A    between atoms: C_7  and  N_8
REMARK    4  A    between atoms: C_11  and  C_12
REMARK    5  A    between atoms: C_12  and  O_13
REMARK    6  A    between atoms: C_12  and  C_14
REMARK    7  A    between atoms: C_14  and  N_15
REMARK    8  A    between atoms: C_17  and  C_18
REMARK    9  A    between atoms: C_24  and  C_25
REMARK                            x       y       z     vdW  Elec       q    Type
REMARK                         _______ _______ _______ _____ _____    ______ ____
ROOT
ATOM      1  C   UNL     1       4.064   2.753  18.314  0.00  0.00    +0.000 C 
ENDROOT
BRANCH   1   5
ATOM      2  N   UNL     1       2.136   6.023  19.043  0.00  0.00    +0.000 N 
ATOM      3  C   UNL     1       2.050   5.331  17.757  0.00  0.00    +0.000 C 
ATOM      4  C   UNL     1       1.757   3.852  18.037  0.00  0.00    +0.000 C 
ATOM      5  C   UNL     1       2.752   3.184  19.015  0.00  0.00    +0.000 C 
ATOM      6  C   UNL     1       2.937   4.077  20.256  0.00  0.00    +0.000 C 
ATOM      7  C   UNL     1       3.202   5.541  19.925  0.00  0.00    +0.000 C 
BRANCH   2  12
ATOM      8  C   UNL     1       1.231   9.429  20.292  0.00  0.00    +0.000 A 
ATOM      9  C   UNL     1       1.417  10.164  19.114  0.00  0.00    +0.000 A 
ATOM     10  C   UNL     1       1.863   9.539  17.957  0.00  0.00    +0.000 A 
ATOM     11  C   UNL     1       2.106   8.171  17.975  0.00  0.00    +0.000 A 
ATOM     12  C   UNL     1       1.911   7.397  19.133  0.00  0.00    +0.000 A 
ATOM     13  C   UNL     1       1.496   8.054  20.300  0.00  0.00    +0.000 A 
BRANCH   8  15
ATOM     14  C   UNL     1       0.396   9.481  22.520  0.00  0.00    +0.000 C 
ATOM     15  O   UNL     1       0.764  10.178  21.339  0.00  0.00    +0.000 OA
ENDBRANCH   8  15
ENDBRANCH   2  12
ENDBRANCH   1   5
BRANCH   1  16
ATOM     16  O   UNL     1       4.038   1.381  17.920  0.00  0.00    +0.000 OA
ATOM     17  H   UNL     1       4.742   1.220  17.269  0.00  0.00    +0.000 HD
ENDBRANCH   1  16
BRANCH   1  18
ATOM     18  C   UNL     1       4.478   3.618  17.112  0.00  0.00    +0.000 C 
BRANCH  18  19
ATOM     19  N   UNL     1       5.503   4.595  17.423  0.00  0.00    +0.000 N 
ATOM     20  N   UNL     1       6.304   4.393  18.488  0.00  0.00    +0.000 NA
ATOM     21  C   UNL     1       7.112   5.477  18.510  0.00  0.00    +0.000 A 
ATOM     22  C   UNL     1       6.796   6.357  17.449  0.00  0.00    +0.000 A 
ATOM     23 CL   UNL     1       7.553   7.837  17.108  0.00  0.00    +0.000 Cl
ATOM     24  C   UNL     1       5.753   5.772  16.765  0.00  0.00    +0.000 A 
ATOM     25  C   UNL     1       4.991   6.223  15.574  0.00  0.00    +0.000 C 
BRANCH  21  26
ATOM     26  C   UNL     1       8.188   5.696  19.534  0.00  0.00    +0.000 C 
ATOM     27  F   UNL     1       9.188   4.775  19.481  0.00  0.00    +0.000 F 
ATOM     28  F   UNL     1       8.780   6.914  19.390  0.00  0.00    +0.000 F 
ATOM     29  F   UNL     1       7.696   5.653  20.803  0.00  0.00    +0.000 F 
ENDBRANCH  21  26
ENDBRANCH  18  19
ENDBRANCH   1  18
TORSDOF 7
ENDMDL
MODEL 3
REMARK VINA RESULT:      -7.3      1.258      2.020
REMARK  Name = 
REMARK  9 active torsions:
REMARK  status: ('A' for Active; 'I' for Inactive)
REMARK    1  A    between atoms: C_1  and  O_2
REMARK    2  A    between atoms: O_2  and  C_3
REMARK    3  A    between atoms: C_7  and  N_8
REMARK    4  A    between atoms: C_11  and  C_12
REMARK    5  A    between atoms: C_12  and  O_13
REMARK    6  A    between atoms: C_12  and  C_14
REMARK    7  A    between atoms: C_14  and  N_15
REMARK    8  A    between atoms: C_17  and  C_18
REMARK    9  A    between atoms: C_24  and  C_25
REMARK                            x       y       z     vdW  Elec       q    Type
REMARK                         _______ _______ _______ _____ _____    ______ ____
ROOT
ATOM      1  C   UNL     1       1.306   4.011  20.238  0.00  0.00    +0.000 C 
ENDROOT
BRANCH   1   5
ATOM      2  N   UNL     1       4.056   3.749  17.534  0.00  0.00    +0.000 N 
ATOM      3  C   UNL     1       4.298   3.409  18.936  0.00  0.00    +0.000 C 
ATOM      4  C   UNL     1       3.178   2.466  19.392  0.00  0.00    +0.000 C 
ATOM      5  C   UNL     1       1.752   3.012  19.143  0.00  0.00    +0.000 C 
ATOM      6  C   UNL     1       1.642   3.533  17.697  0.00  0.00    +0.000 C 
ATOM      7  C   UNL     1       2.791   4.446  17.286  0.00  0.00    +0.000 C 
BRANCH   2  12
ATOM      8  C   UNL     1       6.972   5.611  16.116  0.00  0.00    +0.000 A 
ATOM      9  C   UNL     1       7.094   4.948  14.888  0.00  0.00    +0.000 A 
ATOM     10  C   UNL     1       6.249   3.894  14.569  0.00  0.00    +0.000 A 
ATOM     11  C   UNL     1       5.266   3.514  15.475  0.00  0.00    +0.000 A 
ATOM     12  C   UNL     1       5.100   4.169  16.708  0.00  0.00    +0.000 A 
ATOM     13  C   UNL     1       5.988   5.206  17.027  0.00  0.00    +0.000 A 
BRANCH   8  15
ATOM     14  C   UNL     1       7.685   7.476  17.411  0.00  0.00    +0.000 C 
ATOM     15  O   UNL     1       7.858   6.643  16.274  0.00  0.00    +0.000 OA
ENDBRANCH   8  15
ENDBRANCH   2  12
ENDBRANCH   1   5
BRANCH   1  16
ATOM     16  O   UNL     1       0.833   3.348  21.411  0.00  0.00    +0.000 OA
ATOM     17  H   UNL     1       1.479   3.466  22.129  0.00  0.00    +0.000 HD
ENDBRANCH   1  16
BRANCH   1  18
ATOM     18  C   UNL     1       2.360   5.058  20.636  0.00  0.00    +0.000 C 
BRANCH  18  19
ATOM     19  N   UNL     1       1.901   6.426  20.504  0.00  0.00    +0.000 N 
ATOM     20  N   UNL     1       1.022   6.916  21.401  0.00  0.00    +0.000 NA
ATOM     21  C   UNL     1       0.786   8.180  20.986  0.00  0.00    +0.000 A 
ATOM     22  C   UNL     1       1.525   8.466  19.813  0.00  0.00    +0.000 A 
ATOM     23 CL   UNL     1       1.522   9.928  18.953  0.00  0.00    +0.000 Cl
ATOM     24  C   UNL     1       2.232   7.321  19.519  0.00  0.00    +0.000 A 
ATOM     25  C   UNL     1       3.168   7.008  18.409  0.00  0.00    +0.000 C 
BRANCH  21  26
ATOM     26  C   UNL     1      -0.141   9.130  21.686  0.00  0.00    +0.000 C 
ATOM     27  F   UNL     1      -0.964   8.528  22.586  0.00  0.00    +0.000 F 
ATOM     28  F   UNL     1       0.543  10.087  22.373  0.00  0.00    +0.000 F 
ATOM     29  F   UNL     1      -0.949   9.789  20.809  0.00  0.00    +0.000 F 
ENDBRANCH  21  26
ENDBRANCH  18  19
ENDBRANCH   1  18
TORSDOF 7
ENDMDL
MODEL 4
REMARK VINA RESULT:      -7.2      5.112      8.533
REMARK  Name = 
REMARK  9 active torsions:
REMARK  status: ('A' for Active; 'I' for Inactive)
REMARK    1  A    between atoms: C_1  and  O_2
REMARK    2  A    between atoms: O_2  and  C_3
REMARK    3  A    between atoms: C_7  and  N_8
REMARK    4  A    between atoms: C_11  and  C_12
REMARK    5  A    between atoms: C_12  and  O_13
REMARK    6  A    between atoms: C_12  and  C_14
REMARK    7  A    between atoms: C_14  and  N_15
REMARK    8  A    between atoms: C_17  and  C_18
REMARK    9  A    between atoms: C_24  and  C_25
REMARK                            x       y       z     vdW  Elec       q    Type
REMARK                         _______ _______ _______ _____ _____    ______ ____
ROOT
ATOM      1  C   UNL     1       2.224   7.880  19.759  0.00  0.00    +0.000 C 
ENDROOT
BRANCH   1   5
ATOM      2  N   UNL     1       1.054  11.469  18.926  0.00  0.00    +0.000 N 
ATOM      3  C   UNL     1       1.829  10.658  17.987  0.00  0.00    +0.000 C 
ATOM      4  C   UNL     1       1.157   9.283  17.888  0.00  0.00    +0.000 C 
ATOM      5  C   UNL     1       0.942   8.585  19.251  0.00  0.00    +0.000 C 
ATOM      6  C   UNL     1       0.302   9.573  20.244  0.00  0.00    +0.000 C 
ATOM      7  C   UNL     1       0.991  10.932  20.288  0.00  0.00    +0.000 C 
BRANCH   2  12
ATOM      8  C   UNL     1       2.248  15.011  18.814  0.00  0.00    +0.000 A 
ATOM      9  C   UNL     1       1.015  15.673  18.869  0.00  0.00    +0.000 A 
ATOM     10  C   UNL     1      -0.171  14.951  18.907  0.00  0.00    +0.000 A 
ATOM     11  C   UNL     1      -0.120  13.561  18.908  0.00  0.00    +0.000 A 
ATOM     12  C   UNL     1       1.100  12.863  18.874  0.00  0.00    +0.000 A 
ATOM     13  C   UNL     1       2.283  13.611  18.798  0.00  0.00    +0.000 A 
BRANCH   8  15
ATOM     14  C   UNL     1       3.412  16.785  17.737  0.00  0.00    +0.000 C 
ATOM     15  O   UNL     1       3.326  15.856  18.806  0.00  0.00    +0.000 OA
ENDBRANCH   8  15
ENDBRANCH   2  12
ENDBRANCH   1   5
BRANCH   1  16
ATOM     16  O   UNL     1       1.986   7.119  20.944  0.00  0.00    +0.000 OA
ATOM     17  H   UNL     1       2.835   6.801  21.296  0.00  0.00    +0.000 HD
ENDBRANCH   1  16
BRANCH   1  18
ATOM     18  C   UNL     1       2.938   6.997  18.723  0.00  0.00    +0.000 C 
BRANCH  18  19
ATOM     19  N   UNL     1       3.002   5.598  19.095  0.00  0.00    +0.000 N 
ATOM     20  N   UNL     1       1.857   4.905  19.254  0.00  0.00    +0.000 NA
ATOM     21  C   UNL     1       2.260   3.668  19.618  0.00  0.00    +0.000 A 
ATOM     22  C   UNL     1       3.672   3.604  19.690  0.00  0.00    +0.000 A 
ATOM     23 CL   UNL     1       4.598   2.247  20.114  0.00  0.00    +0.000 Cl
ATOM     24  C   UNL     1       4.128   4.860  19.354  0.00  0.00    +0.000 A 
ATOM     25  C   UNL     1       5.505   5.407  19.263  0.00  0.00    +0.000 C 
BRANCH  21  26
ATOM     26  C   UNL     1       1.320   2.533  19.905  0.00  0.00    +0.000 C 
ATOM     27  F   UNL     1       0.036   2.779  19.529  0.00  0.00    +0.000 F 
ATOM     28  F   UNL     1       1.695   1.392  19.263  0.00  0.00    +0.000 F 
ATOM     29  F   UNL     1       1.279   2.233  21.233  0.00  0.00    +0.000 F 
ENDBRANCH  21  26
ENDBRANCH  18  19
ENDBRANCH   1  18
TORSDOF 7
ENDMDL
MODEL 5
REMARK VINA RESULT:      -7.1      4.282      7.889
REMARK  Name = 
REMARK  9 active torsions:
REMARK  status: ('A' for Active; 'I' for Inactive)
REMARK    1  A    between atoms: C_1  and  O_2
REMARK    2  A    between atoms: O_2  and  C_3
REMARK    3  A    between atoms: C_7  and  N_8
REMARK    4  A    between atoms: C_11  and  C_12
REMARK    5  A    between atoms: C_12  and  O_13
REMARK    6  A    between atoms: C_12  and  C_14
REMARK    7  A    between atoms: C_14  and  N_15
REMARK    8  A    between atoms: C_17  and  C_18
REMARK    9  A    between atoms: C_24  and  C_25
REMARK                            x       y       z     vdW  Elec       q    Type
REMARK                         _______ _______ _______ _____ _____    ______ ____
ROOT
ATOM      1  C   UNL     1       3.346   3.496  19.646  0.00  0.00    +0.000 C 
ENDROOT
BRANCH   1   5
ATOM      2  N   UNL     1       1.605   6.945  19.521  0.00  0.00    +0.000 N 
ATOM      3  C   UNL     1       2.464   6.460  18.441  0.00  0.00    +0.000 C 
ATOM      4  C   UNL     1       2.011   5.040  18.082  0.00  0.00    +0.000 C 
ATOM      5  C   UNL     1       1.953   4.071  19.287  0.00  0.00    +0.000 C 
ATOM      6  C   UNL     1       1.201   4.739  20.453  0.00  0.00    +0.000 C 
ATOM      7  C   UNL     1       1.672   6.157  20.755  0.00  0.00    +0.000 C 
BRANCH   2  12
ATOM      8  C   UNL     1       0.871  10.256  21.097  0.00  0.00    +0.000 A 
ATOM      9  C   UNL     1       1.031  11.085  19.978  0.00  0.00    +0.000 A 
ATOM     10  C   UNL     1       1.406  10.550  18.753  0.00  0.00    +0.000 A 
ATOM     11  C   UNL     1       1.603   9.178  18.643  0.00  0.00    +0.000 A 
ATOM     12  C   UNL     1       1.431   8.313  19.738  0.00  0.00    +0.000 A 
ATOM     13  C   UNL     1       1.089   8.878  20.974  0.00  0.00    +0.000 A 
BRANCH   8  15
ATOM     14  C   UNL     1      -0.860  11.406  22.257  0.00  0.00    +0.000 C 
ATOM     15  O   UNL     1       0.475  10.925  22.224  0.00  0.00    +0.000 OA
ENDBRANCH   8  15
ENDBRANCH   2  12
ENDBRANCH   1   5
BRANCH   1  16
ATOM     16  O   UNL     1       3.290   2.612  20.766  0.00  0.00    +0.000 OA
ATOM     17  H   UNL     1       4.187   2.300  20.974  0.00  0.00    +0.000 HD
ENDBRANCH   1  16
BRANCH   1  18
ATOM     18  C   UNL     1       4.085   2.804  18.489  0.00  0.00    +0.000 C 
BRANCH  18  19
ATOM     19  N   UNL     1       4.913   3.701  17.708  0.00  0.00    +0.000 N 
ATOM     20  N   UNL     1       4.986   3.536  16.372  0.00  0.00    +0.000 NA
ATOM     21  C   UNL     1       5.843   4.497  15.961  0.00  0.00    +0.000 A 
ATOM     22  C   UNL     1       6.307   5.256  17.061  0.00  0.00    +0.000 A 
ATOM     23 CL   UNL     1       7.399   6.553  17.001  0.00  0.00    +0.000 Cl
ATOM     24  C   UNL     1       5.699   4.722  18.177  0.00  0.00    +0.000 A 
ATOM     25  C   UNL     1       5.800   5.086  19.613  0.00  0.00    +0.000 C 
BRANCH  21  26
ATOM     26  C   UNL     1       6.237   4.708  14.528  0.00  0.00    +0.000 C 
ATOM     27  F   UNL     1       7.556   4.994  14.360  0.00  0.00    +0.000 F 
ATOM     28  F   UNL     1       5.985   3.606  13.768  0.00  0.00    +0.000 F 
ATOM     29  F   UNL     1       5.548   5.735  13.959  0.00  0.00    +0.000 F 
ENDBRANCH  21  26
ENDBRANCH  18  19
ENDBRANCH   1  18
TORSDOF 7
ENDMDL
MODEL 6
REMARK VINA RESULT:      -7.1      4.170      7.150
REMARK  Name = 
REMARK  9 active torsions:
REMARK  status: ('A' for Active; 'I' for Inactive)
REMARK    1  A    between atoms: C_1  and  O_2
REMARK    2  A    between atoms: O_2  and  C_3
REMARK    3  A    between atoms: C_7  and  N_8
REMARK    4  A    between atoms: C_11  and  C_12
REMARK    5  A    between atoms: C_12  and  O_13
REMARK    6  A    between atoms: C_12  and  C_14
REMARK    7  A    between atoms: C_14  and  N_15
REMARK    8  A    between atoms: C_17  and  C_18
REMARK    9  A    between atoms: C_24  and  C_25
REMARK                            x       y       z     vdW  Elec       q    Type
REMARK                         _______ _______ _______ _____ _____    ______ ____
ROOT
ATOM      1  C   UNL     1      -0.846  11.032  21.278  0.00  0.00    +0.000 C 
ENDROOT
BRANCH   1   5
ATOM      2  N   UNL     1       1.696   8.386  20.061  0.00  0.00    +0.000 N 
ATOM      3  C   UNL     1       1.078   9.356  19.157  0.00  0.00    +0.000 C 
ATOM      4  C   UNL     1       1.227  10.747  19.785  0.00  0.00    +0.000 C 
ATOM      5  C   UNL     1       0.691  10.847  21.233  0.00  0.00    +0.000 C 
ATOM      6  C   UNL     1       1.233   9.672  22.068  0.00  0.00    +0.000 C 
ATOM      7  C   UNL     1       1.083   8.316  21.390  0.00  0.00    +0.000 C 
BRANCH   2  12
ATOM      8  C   UNL     1       2.600   4.768  19.784  0.00  0.00    +0.000 A 
ATOM      9  C   UNL     1       3.204   4.778  18.520  0.00  0.00    +0.000 A 
ATOM     10  C   UNL     1       3.271   5.950  17.779  0.00  0.00    +0.000 A 
ATOM     11  C   UNL     1       2.747   7.122  18.314  0.00  0.00    +0.000 A 
ATOM     12  C   UNL     1       2.151   7.155  19.587  0.00  0.00    +0.000 A 
ATOM     13  C   UNL     1       2.061   5.953  20.302  0.00  0.00    +0.000 A 
BRANCH   8  15
ATOM     14  C   UNL     1       1.960   2.476  19.756  0.00  0.00    +0.000 C 
ATOM     15  O   UNL     1       2.634   3.546  20.401  0.00  0.00    +0.000 OA
ENDBRANCH   8  15
ENDBRANCH   2  12
ENDBRANCH   1   5
BRANCH   1  16
ATOM     16  O   UNL     1      -1.350  11.019  22.614  0.00  0.00    +0.000 OA
ATOM     17  H   UNL     1      -1.310  11.918  22.981  0.00  0.00    +0.000 HD
ENDBRANCH   1  16
BRANCH   1  18
ATOM     18  C   UNL     1      -1.376  12.277  20.548  0.00  0.00    +0.000 C 
BRANCH  18  19
ATOM     19  N   UNL     1      -2.397  11.983  19.562  0.00  0.00    +0.000 N 
ATOM     20  N   UNL     1      -2.045  11.389  18.405  0.00  0.00    +0.000 NA
ATOM     21  C   UNL     1      -3.202  11.284  17.715  0.00  0.00    +0.000 A 
ATOM     22  C   UNL     1      -4.277  11.829  18.456  0.00  0.00    +0.000 A 
ATOM     23 CL   UNL     1      -5.899  11.912  17.966  0.00  0.00    +0.000 Cl
ATOM     24  C   UNL     1      -3.735  12.278  19.641  0.00  0.00    +0.000 A 
ATOM     25  C   UNL     1      -4.359  12.949  20.809  0.00  0.00    +0.000 C 
BRANCH  21  26
ATOM     26  C   UNL     1      -3.307  10.674  16.348  0.00  0.00    +0.000 C 
ATOM     27  F   UNL     1      -2.426  11.190  15.449  0.00  0.00    +0.000 F 
ATOM     28  F   UNL     1      -3.081   9.331  16.376  0.00  0.00    +0.000 F 
ATOM     29  F   UNL     1      -4.547  10.845  15.810  0.00  0.00    +0.000 F 
ENDBRANCH  21  26
ENDBRANCH  18  19
ENDBRANCH   1  18
TORSDOF 7
ENDMDL
MODEL 7
REMARK VINA RESULT:      -7.1      4.311      6.936
REMARK  Name = 
REMARK  9 active torsions:
REMARK  status: ('A' for Active; 'I' for Inactive)
REMARK    1  A    between atoms: C_1  and  O_2
REMARK    2  A    between atoms: O_2  and  C_3
REMARK    3  A    between atoms: C_7  and  N_8
REMARK    4  A    between atoms: C_11  and  C_12
REMARK    5  A    between atoms: C_12  and  O_13
REMARK    6  A    between atoms: C_12  and  C_14
REMARK    7  A    between atoms: C_14  and  N_15
REMARK    8  A    between atoms: C_17  and  C_18
REMARK    9  A    between atoms: C_24  and  C_25
REMARK                            x       y       z     vdW  Elec       q    Type
REMARK                         _______ _______ _______ _____ _____    ______ ____
ROOT
ATOM      1  C   UNL     1      -0.779  11.151  20.826  0.00  0.00    +0.000 C 
ENDROOT
BRANCH   1   5
ATOM      2  N   UNL     1       1.709   8.310  19.999  0.00  0.00    +0.000 N 
ATOM      3  C   UNL     1       1.212   9.239  18.984  0.00  0.00    +0.000 C 
ATOM      4  C   UNL     1       1.384  10.663  19.524  0.00  0.00    +0.000 C 
ATOM      5  C   UNL     1       0.746  10.893  20.915  0.00  0.00    +0.000 C 
ATOM      6  C   UNL     1       1.163   9.758  21.870  0.00  0.00    +0.000 C 
ATOM      7  C   UNL     1       0.995   8.365  21.277  0.00  0.00    +0.000 C 
BRANCH   2  12
ATOM      8  C   UNL     1       3.185   5.404  18.166  0.00  0.00    +0.000 A 
ATOM      9  C   UNL     1       2.841   4.374  19.051  0.00  0.00    +0.000 A 
ATOM     10  C   UNL     1       2.171   4.656  20.234  0.00  0.00    +0.000 A 
ATOM     11  C   UNL     1       1.826   5.972  20.522  0.00  0.00    +0.000 A 
ATOM     12  C   UNL     1       2.136   7.028  19.648  0.00  0.00    +0.000 A 
ATOM     13  C   UNL     1       2.847   6.727  18.478  0.00  0.00    +0.000 A 
BRANCH   8  15
ATOM     14  C   UNL     1       5.009   4.213  17.208  0.00  0.00    +0.000 C 
ATOM     15  O   UNL     1       3.819   4.967  17.034  0.00  0.00    +0.000 OA
ENDBRANCH   8  15
ENDBRANCH   2  12
ENDBRANCH   1   5
BRANCH   1  16
ATOM     16  O   UNL     1      -1.355  11.418  22.105  0.00  0.00    +0.000 OA
ATOM     17  H   UNL     1      -1.987  12.153  22.025  0.00  0.00    +0.000 HD
ENDBRANCH   1  16
BRANCH   1  18
ATOM     18  C   UNL     1      -1.198  12.253  19.840  0.00  0.00    +0.000 C 
BRANCH  18  19
ATOM     19  N   UNL     1      -2.262  11.856  18.939  0.00  0.00    +0.000 N 
ATOM     20  N   UNL     1      -1.951  11.236  17.784  0.00  0.00    +0.000 NA
ATOM     21  C   UNL     1      -3.142  11.031  17.180  0.00  0.00    +0.000 A 
ATOM     22  C   UNL     1      -4.198  11.539  17.974  0.00  0.00    +0.000 A 
ATOM     23 CL   UNL     1      -5.852  11.500  17.596  0.00  0.00    +0.000 Cl
ATOM     24  C   UNL     1      -3.607  12.071  19.100  0.00  0.00    +0.000 A 
ATOM     25  C   UNL     1      -4.193  12.750  20.282  0.00  0.00    +0.000 C 
BRANCH  21  26
ATOM     26  C   UNL     1      -3.300  10.357  15.849  0.00  0.00    +0.000 C 
ATOM     27  F   UNL     1      -2.326  10.679  14.954  0.00  0.00    +0.000 F 
ATOM     28  F   UNL     1      -3.280   9.000  15.964  0.00  0.00    +0.000 F 
ATOM     29  F   UNL     1      -4.483  10.676  15.256  0.00  0.00    +0.000 F 
ENDBRANCH  21  26
ENDBRANCH  18  19
ENDBRANCH   1  18
TORSDOF 7
ENDMDL
MODEL 8
REMARK VINA RESULT:      -7.1      5.095      8.485
REMARK  Name = 
REMARK  9 active torsions:
REMARK  status: ('A' for Active; 'I' for Inactive)
REMARK    1  A    between atoms: C_1  and  O_2
REMARK    2  A    between atoms: O_2  and  C_3
REMARK    3  A    between atoms: C_7  and  N_8
REMARK    4  A    between atoms: C_11  and  C_12
REMARK    5  A    between atoms: C_12  and  O_13
REMARK    6  A    between atoms: C_12  and  C_14
REMARK    7  A    between atoms: C_14  and  N_15
REMARK    8  A    between atoms: C_17  and  C_18
REMARK    9  A    between atoms: C_24  and  C_25
REMARK                            x       y       z     vdW  Elec       q    Type
REMARK                         _______ _______ _______ _____ _____    ______ ____
ROOT
ATOM      1  C   UNL     1       4.834   3.483  17.719  0.00  0.00    +0.000 C 
ENDROOT
BRANCH   1   5
ATOM      2  N   UNL     1       2.882   6.418  19.307  0.00  0.00    +0.000 N 
ATOM      3  C   UNL     1       2.241   5.155  18.943  0.00  0.00    +0.000 C 
ATOM      4  C   UNL     1       3.084   4.014  19.526  0.00  0.00    +0.000 C 
ATOM      5  C   UNL     1       4.579   4.067  19.130  0.00  0.00    +0.000 C 
ATOM      6  C   UNL     1       5.125   5.489  19.359  0.00  0.00    +0.000 C 
ATOM      7  C   UNL     1       4.240   6.586  18.781  0.00  0.00    +0.000 C 
BRANCH   2  12
ATOM      8  C   UNL     1       0.788   9.286  20.478  0.00  0.00    +0.000 A 
ATOM      9  C   UNL     1       0.625   9.964  19.263  0.00  0.00    +0.000 A 
ATOM     10  C   UNL     1       1.227   9.490  18.106  0.00  0.00    +0.000 A 
ATOM     11  C   UNL     1       1.980   8.323  18.160  0.00  0.00    +0.000 A 
ATOM     12  C   UNL     1       2.149   7.605  19.357  0.00  0.00    +0.000 A 
ATOM     13  C   UNL     1       1.564   8.120  20.522  0.00  0.00    +0.000 A 
BRANCH   8  15
ATOM     14  C   UNL     1       0.365   9.339  22.819  0.00  0.00    +0.000 C 
ATOM     15  O   UNL     1       0.114   9.860  21.523  0.00  0.00    +0.000 OA
ENDBRANCH   8  15
ENDBRANCH   2  12
ENDBRANCH   1   5
BRANCH   1  16
ATOM     16  O   UNL     1       4.326   2.155  17.586  0.00  0.00    +0.000 OA
ATOM     17  H   UNL     1       3.957   2.040  16.693  0.00  0.00    +0.000 HD
ENDBRANCH   1  16
BRANCH   1  18
ATOM     18  C   UNL     1       4.317   4.343  16.553  0.00  0.00    +0.000 C 
BRANCH  18  19
ATOM     19  N   UNL     1       5.218   4.390  15.419  0.00  0.00    +0.000 N 
ATOM     20  N   UNL     1       4.932   3.664  14.320  0.00  0.00    +0.000 NA
ATOM     21  C   UNL     1       5.963   3.905  13.480  0.00  0.00    +0.000 A 
ATOM     22  C   UNL     1       6.897   4.785  14.076  0.00  0.00    +0.000 A 
ATOM     23 CL   UNL     1       8.339   5.347  13.379  0.00  0.00    +0.000 Cl
ATOM     24  C   UNL     1       6.400   5.080  15.327  0.00  0.00    +0.000 A 
ATOM     25  C   UNL     1       6.936   5.935  16.415  0.00  0.00    +0.000 C 
BRANCH  21  26
ATOM     26  C   UNL     1       6.081   3.307  12.109  0.00  0.00    +0.000 C 
ATOM     27  F   UNL     1       6.034   1.948  12.099  0.00  0.00    +0.000 F 
ATOM     28  F   UNL     1       5.082   3.730  11.286  0.00  0.00    +0.000 F 
ATOM     29  F   UNL     1       7.251   3.654  11.504  0.00  0.00    +0.000 F 
ENDBRANCH  21  26
ENDBRANCH  18  19
ENDBRANCH   1  18
TORSDOF 7
ENDMDL
MODEL 9
REMARK VINA RESULT:      -7.1      4.840      8.750
REMARK  Name = 
REMARK  9 active torsions:
REMARK  status: ('A' for Active; 'I' for Inactive)
REMARK    1  A    between atoms: C_1  and  O_2
REMARK    2  A    between atoms: O_2  and  C_3
REMARK    3  A    between atoms: C_7  and  N_8
REMARK    4  A    between atoms: C_11  and  C_12
REMARK    5  A    between atoms: C_12  and  O_13
REMARK    6  A    between atoms: C_12  and  C_14
REMARK    7  A    between atoms: C_14  and  N_15
REMARK    8  A    between atoms: C_17  and  C_18
REMARK    9  A    between atoms: C_24  and  C_25
REMARK                            x       y       z     vdW  Elec       q    Type
REMARK                         _______ _______ _______ _____ _____    ______ ____
ROOT
ATOM      1  C   UNL     1       1.873   8.242  20.224  0.00  0.00    +0.000 C 
ENDROOT
BRANCH   1   5
ATOM      2  N   UNL     1      -0.910  10.428  18.668  0.00  0.00    +0.000 N 
ATOM      3  C   UNL     1      -0.951   9.978  20.059  0.00  0.00    +0.000 C 
ATOM      4  C   UNL     1       0.405  10.299  20.698  0.00  0.00    +0.000 C 
ATOM      5  C   UNL     1       1.619   9.740  19.919  0.00  0.00    +0.000 C 
ATOM      6  C   UNL     1       1.483  10.089  18.426  0.00  0.00    +0.000 C 
ATOM      7  C   UNL     1       0.110   9.772  17.845  0.00  0.00    +0.000 C 
BRANCH   2  12
ATOM      8  C   UNL     1      -4.304  11.706  17.757  0.00  0.00    +0.000 A 
ATOM      9  C   UNL     1      -4.428  11.144  16.480  0.00  0.00    +0.000 A 
ATOM     10  C   UNL     1      -3.393  10.395  15.937  0.00  0.00    +0.000 A 
ATOM     11  C   UNL     1      -2.237  10.192  16.683  0.00  0.00    +0.000 A 
ATOM     12  C   UNL     1      -2.085  10.723  17.976  0.00  0.00    +0.000 A 
ATOM     13  C   UNL     1      -3.127  11.508  18.490  0.00  0.00    +0.000 A 
BRANCH   8  15
ATOM     14  C   UNL     1      -6.354  12.759  17.165  0.00  0.00    +0.000 C 
ATOM     15  O   UNL     1      -5.415  12.395  18.165  0.00  0.00    +0.000 OA
ENDBRANCH   8  15
ENDBRANCH   2  12
ENDBRANCH   1   5
BRANCH   1  16
ATOM     16  O   UNL     1       0.867   7.689  21.074  0.00  0.00    +0.000 OA
ATOM     17  H   UNL     1       0.056   7.542  20.559  0.00  0.00    +0.000 HD
ENDBRANCH   1  16
BRANCH   1  18
ATOM     18  C   UNL     1       2.043   7.344  18.988  0.00  0.00    +0.000 C 
BRANCH  18  19
ATOM     19  N   UNL     1       2.497   6.003  19.301  0.00  0.00    +0.000 N 
ATOM     20  N   UNL     1       1.734   5.215  20.084  0.00  0.00    +0.000 NA
ATOM     21  C   UNL     1       2.442   4.069  20.198  0.00  0.00    +0.000 A 
ATOM     22  C   UNL     1       3.658   4.160  19.481  0.00  0.00    +0.000 A 
ATOM     23 CL   UNL     1       4.849   2.957  19.361  0.00  0.00    +0.000 Cl
ATOM     24  C   UNL     1       3.675   5.416  18.916  0.00  0.00    +0.000 A 
ATOM     25  C   UNL     1       4.688   6.092  18.067  0.00  0.00    +0.000 C 
BRANCH  21  26
ATOM     26  C   UNL     1       1.981   2.878  20.986  0.00  0.00    +0.000 C 
ATOM     27  F   UNL     1       0.840   3.098  21.693  0.00  0.00    +0.000 F 
ATOM     28  F   UNL     1       1.733   1.806  20.182  0.00  0.00    +0.000 F 
ATOM     29  F   UNL     1       2.918   2.473  21.888  0.00  0.00    +0.000 F 
ENDBRANCH  21  26
ENDBRANCH  18  19
ENDBRANCH   1  18
TORSDOF 7
ENDMDL
