MODEL 1
REMARK VINA RESULT:      -6.4      0.000      0.000
REMARK  Name = 
REMARK  12 active torsions:
REMARK  status: ('A' for Active; 'I' for Inactive)
REMARK    1  A    between atoms: C_1  and  C_2
REMARK    2  A    between atoms: C_2  and  O_3
REMARK    3  A    between atoms: O_3  and  C_4
REMARK    4  A    between atoms: C_4  and  C_6
REMARK    5  A    between atoms: C_7  and  O_8
REMARK    6  A    between atoms: C_10  and  C_11
REMARK    7  A    between atoms: C_12  and  C_13
REMARK    8  A    between atoms: C_13  and  C_14
REMARK    9  A    between atoms: C_15  and  S_16
REMARK   10  A    between atoms: S_16  and  C_17
REMARK   11  A    between atoms: C_19  and  C_20
REMARK   12  A    between atoms: C_22  and  C_23
REMARK                            x       y       z     vdW  Elec       q    Type
REMARK                         _______ _______ _______ _____ _____    ______ ____
ROOT
ATOM      1  C   UNL     1      -0.292  10.923  21.780  0.00  0.00    +0.000 A 
ATOM      2  C   UNL     1       0.238   9.884  22.536  0.00  0.00    +0.000 A 
ATOM      3  N   UNL     1       0.861   8.819  22.008  0.00  0.00    +0.000 NA
ATOM      4  C   UNL     1       1.036   8.773  20.667  0.00  0.00    +0.000 A 
ATOM      5  C   UNL     1       1.780   7.557  20.195  0.00  0.00    +0.000 C 
ATOM      6  C   UNL     1       0.593   9.792  19.802  0.00  0.00    +0.000 A 
ATOM      7  C   UNL     1      -0.111  10.890  20.377  0.00  0.00    +0.000 A 
ENDROOT
BRANCH   1   8
ATOM      8  C   UNL     1      -0.999  11.963  22.543  0.00  0.00    +0.000 C 
ATOM      9  O   UNL     1      -0.402  12.865  23.115  0.00  0.00    +0.000 OA
BRANCH   8  10
ATOM     10  O   UNL     1      -2.299  11.635  22.713  0.00  0.00    +0.000 OA
BRANCH  10  12
ATOM     11  C   UNL     1      -4.368  12.870  22.763  0.00  0.00    +0.000 C 
ATOM     12  C   UNL     1      -3.087  12.534  23.506  0.00  0.00    +0.000 C 
ENDBRANCH  10  12
ENDBRANCH   8  10
ENDBRANCH   1   8
BRANCH   2  13
ATOM     13  O   UNL     1       0.186   9.834  23.902  0.00  0.00    +0.000 OA
ATOM     14  H   UNL     1       1.079  10.025  24.253  0.00  0.00    +0.000 HD
ENDBRANCH   2  13
BRANCH   6  15
ATOM     15  C   UNL     1       0.912   9.697  18.318  0.00  0.00    +0.000 C 
ATOM     16  C   UNL     1       2.230  10.347  17.921  0.00  0.00    +0.000 C 
ENDBRANCH   6  15
BRANCH   7  17
ATOM     17  S   UNL     1      -0.586  12.295  19.345  0.00  0.00    +0.000 S 
BRANCH  17  18
ATOM     18  C   UNL     1      -2.159  11.860  18.603  0.00  0.00    +0.000 A 
ATOM     19  C   UNL     1      -3.392  12.034  19.234  0.00  0.00    +0.000 A 
ATOM     20  C   UNL     1      -4.593  11.751  18.567  0.00  0.00    +0.000 A 
ATOM     21  C   UNL     1      -5.911  11.991  19.244  0.00  0.00    +0.000 C 
ATOM     22  C   UNL     1      -4.556  11.254  17.260  0.00  0.00    +0.000 A 
ATOM     23  C   UNL     1      -3.334  11.064  16.606  0.00  0.00    +0.000 A 
ATOM     24  C   UNL     1      -3.297  10.578  15.186  0.00  0.00    +0.000 C 
ATOM     25  C   UNL     1      -2.144  11.362  17.289  0.00  0.00    +0.000 A 
ENDBRANCH  17  18
ENDBRANCH   7  17
TORSDOF 7
ENDMDL
MODEL 2
REMARK VINA RESULT:      -6.4      7.752     10.752
REMARK  Name = 
REMARK  12 active torsions:
REMARK  status: ('A' for Active; 'I' for Inactive)
REMARK    1  A    between atoms: C_1  and  C_2
REMARK    2  A    between atoms: C_2  and  O_3
REMARK    3  A    between atoms: O_3  and  C_4
REMARK    4  A    between atoms: C_4  and  C_6
REMARK    5  A    between atoms: C_7  and  O_8
REMARK    6  A    between atoms: C_10  and  C_11
REMARK    7  A    between atoms: C_12  and  C_13
REMARK    8  A    between atoms: C_13  and  C_14
REMARK    9  A    between atoms: C_15  and  S_16
REMARK   10  A    between atoms: S_16  and  C_17
REMARK   11  A    between atoms: C_19  and  C_20
REMARK   12  A    between atoms: C_22  and  C_23
REMARK                            x       y       z     vdW  Elec       q    Type
REMARK                         _______ _______ _______ _____ _____    ______ ____
ROOT
ATOM      1  C   UNL     1       4.305   5.949  17.177  0.00  0.00    +0.000 A 
ATOM      2  C   UNL     1       3.102   6.451  17.658  0.00  0.00    +0.000 A 
ATOM      3  N   UNL     1       2.085   5.681  18.073  0.00  0.00    +0.000 NA
ATOM      4  C   UNL     1       2.251   4.339  18.077  0.00  0.00    +0.000 A 
ATOM      5  C   UNL     1       1.063   3.582  18.598  0.00  0.00    +0.000 C 
ATOM      6  C   UNL     1       3.445   3.714  17.664  0.00  0.00    +0.000 A 
ATOM      7  C   UNL     1       4.495   4.547  17.180  0.00  0.00    +0.000 A 
ENDROOT
BRANCH   1   8
ATOM      8  C   UNL     1       5.267   6.958  16.704  0.00  0.00    +0.000 C 
ATOM      9  O   UNL     1       5.403   7.216  15.516  0.00  0.00    +0.000 OA
BRANCH   8  10
ATOM     10  O   UNL     1       6.098   7.335  17.702  0.00  0.00    +0.000 OA
BRANCH  10  12
ATOM     11  C   UNL     1       8.108   8.649  17.887  0.00  0.00    +0.000 C 
ATOM     12  C   UNL     1       7.499   7.348  17.397  0.00  0.00    +0.000 C 
ENDBRANCH  10  12
ENDBRANCH   8  10
ENDBRANCH   1   8
BRANCH   2  13
ATOM     13  O   UNL     1       2.824   7.786  17.767  0.00  0.00    +0.000 OA
ATOM     14  H   UNL     1       1.909   7.886  18.098  0.00  0.00    +0.000 HD
ENDBRANCH   2  13
BRANCH   6  15
ATOM     15  C   UNL     1       3.573   2.204  17.787  0.00  0.00    +0.000 C 
ATOM     16  C   UNL     1       4.029   1.726  19.158  0.00  0.00    +0.000 C 
ENDBRANCH   6  15
BRANCH   7  17
ATOM     17  S   UNL     1       6.098   3.825  16.765  0.00  0.00    +0.000 S 
BRANCH  17  18
ATOM     18  C   UNL     1       6.280   4.002  14.991  0.00  0.00    +0.000 A 
ATOM     19  C   UNL     1       5.394   3.458  14.058  0.00  0.00    +0.000 A 
ATOM     20  C   UNL     1       5.546   3.702  12.686  0.00  0.00    +0.000 A 
ATOM     21  C   UNL     1       4.556   3.151  11.702  0.00  0.00    +0.000 C 
ATOM     22  C   UNL     1       6.623   4.475  12.238  0.00  0.00    +0.000 A 
ATOM     23  C   UNL     1       7.529   5.027  13.149  0.00  0.00    +0.000 A 
ATOM     24  C   UNL     1       8.655   5.898  12.671  0.00  0.00    +0.000 C 
ATOM     25  C   UNL     1       7.354   4.778  14.520  0.00  0.00    +0.000 A 
ENDBRANCH  17  18
ENDBRANCH   7  17
TORSDOF 7
ENDMDL
MODEL 3
REMARK VINA RESULT:      -6.3      0.246      1.771
REMARK  Name = 
REMARK  12 active torsions:
REMARK  status: ('A' for Active; 'I' for Inactive)
REMARK    1  A    between atoms: C_1  and  C_2
REMARK    2  A    between atoms: C_2  and  O_3
REMARK    3  A    between atoms: O_3  and  C_4
REMARK    4  A    between atoms: C_4  and  C_6
REMARK    5  A    between atoms: C_7  and  O_8
REMARK    6  A    between atoms: C_10  and  C_11
REMARK    7  A    between atoms: C_12  and  C_13
REMARK    8  A    between atoms: C_13  and  C_14
REMARK    9  A    between atoms: C_15  and  S_16
REMARK   10  A    between atoms: S_16  and  C_17
REMARK   11  A    between atoms: C_19  and  C_20
REMARK   12  A    between atoms: C_22  and  C_23
REMARK                            x       y       z     vdW  Elec       q    Type
REMARK                         _______ _______ _______ _____ _____    ______ ____
ROOT
ATOM      1  C   UNL     1      -0.235  10.875  21.712  0.00  0.00    +0.000 A 
ATOM      2  C   UNL     1       0.272   9.833  22.479  0.00  0.00    +0.000 A 
ATOM      3  N   UNL     1       0.888   8.759  21.963  0.00  0.00    +0.000 NA
ATOM      4  C   UNL     1       1.080   8.705  20.626  0.00  0.00    +0.000 A 
ATOM      5  C   UNL     1       1.815   7.477  20.167  0.00  0.00    +0.000 C 
ATOM      6  C   UNL     1       0.661   9.726  19.750  0.00  0.00    +0.000 A 
ATOM      7  C   UNL     1      -0.036  10.834  20.311  0.00  0.00    +0.000 A 
ENDROOT
BRANCH   1   8
ATOM      8  C   UNL     1      -0.939  11.928  22.462  0.00  0.00    +0.000 C 
ATOM      9  O   UNL     1      -0.407  12.996  22.731  0.00  0.00    +0.000 OA
BRANCH   8  10
ATOM     10  O   UNL     1      -2.090  11.455  22.990  0.00  0.00    +0.000 OA
BRANCH  10  12
ATOM     11  C   UNL     1      -4.061  12.772  22.562  0.00  0.00    +0.000 C 
ATOM     12  C   UNL     1      -2.976  12.425  23.565  0.00  0.00    +0.000 C 
ENDBRANCH  10  12
ENDBRANCH   8  10
ENDBRANCH   1   8
BRANCH   2  13
ATOM     13  O   UNL     1       0.201   9.790  23.844  0.00  0.00    +0.000 OA
ATOM     14  H   UNL     1       0.757  10.510  24.206  0.00  0.00    +0.000 HD
ENDBRANCH   2  13
BRANCH   6  15
ATOM     15  C   UNL     1       0.999   9.621  18.271  0.00  0.00    +0.000 C 
ATOM     16  C   UNL     1       2.310  10.289  17.882  0.00  0.00    +0.000 C 
ENDBRANCH   6  15
BRANCH   7  17
ATOM     17  S   UNL     1      -0.480  12.241  19.268  0.00  0.00    +0.000 S 
BRANCH  17  18
ATOM     18  C   UNL     1      -1.986  11.775  18.416  0.00  0.00    +0.000 A 
ATOM     19  C   UNL     1      -2.013  11.165  17.159  0.00  0.00    +0.000 A 
ATOM     20  C   UNL     1      -3.222  10.749  16.582  0.00  0.00    +0.000 A 
ATOM     21  C   UNL     1      -3.228  10.051  15.254  0.00  0.00    +0.000 C 
ATOM     22  C   UNL     1      -4.425  10.978  17.259  0.00  0.00    +0.000 A 
ATOM     23  C   UNL     1      -4.427  11.592  18.516  0.00  0.00    +0.000 A 
ATOM     24  C   UNL     1      -5.714  11.792  19.264  0.00  0.00    +0.000 C 
ATOM     25  C   UNL     1      -3.205  11.993  19.080  0.00  0.00    +0.000 A 
ENDBRANCH  17  18
ENDBRANCH   7  17
TORSDOF 7
ENDMDL
MODEL 4
REMARK VINA RESULT:      -6.3      7.755     10.786
REMARK  Name = 
REMARK  12 active torsions:
REMARK  status: ('A' for Active; 'I' for Inactive)
REMARK    1  A    between atoms: C_1  and  C_2
REMARK    2  A    between atoms: C_2  and  O_3
REMARK    3  A    between atoms: O_3  and  C_4
REMARK    4  A    between atoms: C_4  and  C_6
REMARK    5  A    between atoms: C_7  and  O_8
REMARK    6  A    between atoms: C_10  and  C_11
REMARK    7  A    between atoms: C_12  and  C_13
REMARK    8  A    between atoms: C_13  and  C_14
REMARK    9  A    between atoms: C_15  and  S_16
REMARK   10  A    between atoms: S_16  and  C_17
REMARK   11  A    between atoms: C_19  and  C_20
REMARK   12  A    between atoms: C_22  and  C_23
REMARK                            x       y       z     vdW  Elec       q    Type
REMARK                         _______ _______ _______ _____ _____    ______ ____
ROOT
ATOM      1  C   UNL     1       4.213   5.855  17.184  0.00  0.00    +0.000 A 
ATOM      2  C   UNL     1       3.001   6.339  17.661  0.00  0.00    +0.000 A 
ATOM      3  N   UNL     1       1.983   5.555  18.045  0.00  0.00    +0.000 NA
ATOM      4  C   UNL     1       2.157   4.214  18.022  0.00  0.00    +0.000 A 
ATOM      5  C   UNL     1       0.967   3.439  18.509  0.00  0.00    +0.000 C 
ATOM      6  C   UNL     1       3.359   3.605  17.611  0.00  0.00    +0.000 A 
ATOM      7  C   UNL     1       4.411   4.454  17.160  0.00  0.00    +0.000 A 
ENDROOT
BRANCH   1   8
ATOM      8  C   UNL     1       5.176   6.879  16.748  0.00  0.00    +0.000 C 
ATOM      9  O   UNL     1       5.313   7.177  15.569  0.00  0.00    +0.000 OA
BRANCH   8  10
ATOM     10  O   UNL     1       6.005   7.221  17.759  0.00  0.00    +0.000 OA
BRANCH  10  12
ATOM     11  C   UNL     1       8.011   8.557  17.741  0.00  0.00    +0.000 C 
ATOM     12  C   UNL     1       7.410   7.188  17.472  0.00  0.00    +0.000 C 
ENDBRANCH  10  12
ENDBRANCH   8  10
ENDBRANCH   1   8
BRANCH   2  13
ATOM     13  O   UNL     1       2.715   7.670  17.796  0.00  0.00    +0.000 OA
ATOM     14  H   UNL     1       3.410   8.082  18.348  0.00  0.00    +0.000 HD
ENDBRANCH   2  13
BRANCH   6  15
ATOM     15  C   UNL     1       3.495   2.093  17.701  0.00  0.00    +0.000 C 
ATOM     16  C   UNL     1       3.914   1.585  19.074  0.00  0.00    +0.000 C 
ENDBRANCH   6  15
BRANCH   7  17
ATOM     17  S   UNL     1       6.024   3.750  16.750  0.00  0.00    +0.000 S 
BRANCH  17  18
ATOM     18  C   UNL     1       6.300   4.111  15.016  0.00  0.00    +0.000 A 
ATOM     19  C   UNL     1       7.347   4.905  14.543  0.00  0.00    +0.000 A 
ATOM     20  C   UNL     1       7.558   5.082  13.167  0.00  0.00    +0.000 A 
ATOM     21  C   UNL     1       8.718   5.898  12.676  0.00  0.00    +0.000 C 
ATOM     22  C   UNL     1       6.686   4.483  12.253  0.00  0.00    +0.000 A 
ATOM     23  C   UNL     1       5.624   3.688  12.699  0.00  0.00    +0.000 A 
ATOM     24  C   UNL     1       4.718   3.004  11.716  0.00  0.00    +0.000 C 
ATOM     25  C   UNL     1       5.436   3.516  14.080  0.00  0.00    +0.000 A 
ENDBRANCH  17  18
ENDBRANCH   7  17
TORSDOF 7
ENDMDL
MODEL 5
REMARK VINA RESULT:      -6.2      6.831     10.370
REMARK  Name = 
REMARK  12 active torsions:
REMARK  status: ('A' for Active; 'I' for Inactive)
REMARK    1  A    between atoms: C_1  and  C_2
REMARK    2  A    between atoms: C_2  and  O_3
REMARK    3  A    between atoms: O_3  and  C_4
REMARK    4  A    between atoms: C_4  and  C_6
REMARK    5  A    between atoms: C_7  and  O_8
REMARK    6  A    between atoms: C_10  and  C_11
REMARK    7  A    between atoms: C_12  and  C_13
REMARK    8  A    between atoms: C_13  and  C_14
REMARK    9  A    between atoms: C_15  and  S_16
REMARK   10  A    between atoms: S_16  and  C_17
REMARK   11  A    between atoms: C_19  and  C_20
REMARK   12  A    between atoms: C_22  and  C_23
REMARK                            x       y       z     vdW  Elec       q    Type
REMARK                         _______ _______ _______ _____ _____    ______ ____
ROOT
ATOM      1  C   UNL     1       3.217   3.144  19.722  0.00  0.00    +0.000 A 
ATOM      2  C   UNL     1       2.750   3.390  21.007  0.00  0.00    +0.000 A 
ATOM      3  N   UNL     1       2.147   4.530  21.377  0.00  0.00    +0.000 NA
ATOM      4  C   UNL     1       1.929   5.478  20.438  0.00  0.00    +0.000 A 
ATOM      5  C   UNL     1       1.213   6.692  20.957  0.00  0.00    +0.000 C 
ATOM      6  C   UNL     1       2.308   5.323  19.090  0.00  0.00    +0.000 A 
ATOM      7  C   UNL     1       2.991   4.126  18.728  0.00  0.00    +0.000 A 
ENDROOT
BRANCH   1   8
ATOM      8  C   UNL     1       3.913   1.860  19.536  0.00  0.00    +0.000 C 
ATOM      9  O   UNL     1       3.440   0.960  18.856  0.00  0.00    +0.000 OA
BRANCH   8  10
ATOM     10  O   UNL     1       4.956   1.751  20.388  0.00  0.00    +0.000 OA
BRANCH  10  12
ATOM     11  C   UNL     1       5.999   0.396  22.086  0.00  0.00    +0.000 C 
ATOM     12  C   UNL     1       5.397   0.420  20.692  0.00  0.00    +0.000 C 
ENDBRANCH  10  12
ENDBRANCH   8  10
ENDBRANCH   1   8
BRANCH   2  13
ATOM     13  O   UNL     1       2.849   2.493  22.036  0.00  0.00    +0.000 OA
ATOM     14  H   UNL     1       2.656   1.599  21.688  0.00  0.00    +0.000 HD
ENDBRANCH   2  13
BRANCH   6  15
ATOM     15  C   UNL     1       1.943   6.405  18.086  0.00  0.00    +0.000 C 
ATOM     16  C   UNL     1       2.965   7.528  17.980  0.00  0.00    +0.000 C 
ENDBRANCH   6  15
BRANCH   7  17
ATOM     17  S   UNL     1       3.382   3.801  16.994  0.00  0.00    +0.000 S 
BRANCH  17  18
ATOM     18  C   UNL     1       4.960   4.592  16.682  0.00  0.00    +0.000 A 
ATOM     19  C   UNL     1       5.711   5.246  17.661  0.00  0.00    +0.000 A 
ATOM     20  C   UNL     1       6.978   5.773  17.371  0.00  0.00    +0.000 A 
ATOM     21  C   UNL     1       7.792   6.429  18.447  0.00  0.00    +0.000 C 
ATOM     22  C   UNL     1       7.486   5.673  16.071  0.00  0.00    +0.000 A 
ATOM     23  C   UNL     1       6.752   5.028  15.070  0.00  0.00    +0.000 A 
ATOM     24  C   UNL     1       7.319   4.877  13.687  0.00  0.00    +0.000 C 
ATOM     25  C   UNL     1       5.490   4.500  15.383  0.00  0.00    +0.000 A 
ENDBRANCH  17  18
ENDBRANCH   7  17
TORSDOF 7
ENDMDL
MODEL 6
REMARK VINA RESULT:      -6.2      6.851     10.541
REMARK  Name = 
REMARK  12 active torsions:
REMARK  status: ('A' for Active; 'I' for Inactive)
REMARK    1  A    between atoms: C_1  and  C_2
REMARK    2  A    between atoms: C_2  and  O_3
REMARK    3  A    between atoms: O_3  and  C_4
REMARK    4  A    between atoms: C_4  and  C_6
REMARK    5  A    between atoms: C_7  and  O_8
REMARK    6  A    between atoms: C_10  and  C_11
REMARK    7  A    between atoms: C_12  and  C_13
REMARK    8  A    between atoms: C_13  and  C_14
REMARK    9  A    between atoms: C_15  and  S_16
REMARK   10  A    between atoms: S_16  and  C_17
REMARK   11  A    between atoms: C_19  and  C_20
REMARK   12  A    between atoms: C_22  and  C_23
REMARK                            x       y       z     vdW  Elec       q    Type
REMARK                         _______ _______ _______ _____ _____    ______ ____
ROOT
ATOM      1  C   UNL     1       3.253   3.140  19.707  0.00  0.00    +0.000 A 
ATOM      2  C   UNL     1       2.823   3.419  20.999  0.00  0.00    +0.000 A 
ATOM      3  N   UNL     1       2.244   4.574  21.359  0.00  0.00    +0.000 NA
ATOM      4  C   UNL     1       2.011   5.505  20.406  0.00  0.00    +0.000 A 
ATOM      5  C   UNL     1       1.324   6.738  20.917  0.00  0.00    +0.000 C 
ATOM      6  C   UNL     1       2.351   5.315  19.051  0.00  0.00    +0.000 A 
ATOM      7  C   UNL     1       3.010   4.102  18.698  0.00  0.00    +0.000 A 
ENDROOT
BRANCH   1   8
ATOM      8  C   UNL     1       3.928   1.844  19.532  0.00  0.00    +0.000 C 
ATOM      9  O   UNL     1       3.464   0.964  18.820  0.00  0.00    +0.000 OA
BRANCH   8  10
ATOM     10  O   UNL     1       4.933   1.701  20.424  0.00  0.00    +0.000 OA
BRANCH  10  12
ATOM     11  C   UNL     1       6.024   0.310  22.061  0.00  0.00    +0.000 C 
ATOM     12  C   UNL     1       5.360   0.359  20.696  0.00  0.00    +0.000 C 
ENDBRANCH  10  12
ENDBRANCH   8  10
ENDBRANCH   1   8
BRANCH   2  13
ATOM     13  O   UNL     1       2.940   2.545  22.045  0.00  0.00    +0.000 OA
ATOM     14  H   UNL     1       3.335   3.021  22.803  0.00  0.00    +0.000 HD
ENDBRANCH   2  13
BRANCH   6  15
ATOM     15  C   UNL     1       1.971   6.379  18.034  0.00  0.00    +0.000 C 
ATOM     16  C   UNL     1       3.028   7.456  17.834  0.00  0.00    +0.000 C 
ENDBRANCH   6  15
BRANCH   7  17
ATOM     17  S   UNL     1       3.350   3.734  16.962  0.00  0.00    +0.000 S 
BRANCH  17  18
ATOM     18  C   UNL     1       4.992   4.372  16.629  0.00  0.00    +0.000 A 
ATOM     19  C   UNL     1       5.577   4.391  15.361  0.00  0.00    +0.000 A 
ATOM     20  C   UNL     1       6.833   4.980  15.152  0.00  0.00    +0.000 A 
ATOM     21  C   UNL     1       7.426   5.036  13.775  0.00  0.00    +0.000 C 
ATOM     22  C   UNL     1       7.527   5.529  16.236  0.00  0.00    +0.000 A 
ATOM     23  C   UNL     1       6.966   5.518  17.518  0.00  0.00    +0.000 A 
ATOM     24  C   UNL     1       7.689   6.152  18.671  0.00  0.00    +0.000 C 
ATOM     25  C   UNL     1       5.704   4.931  17.704  0.00  0.00    +0.000 A 
ENDBRANCH  17  18
ENDBRANCH   7  17
TORSDOF 7
ENDMDL
MODEL 7
REMARK VINA RESULT:      -6.0      0.867      2.144
REMARK  Name = 
REMARK  12 active torsions:
REMARK  status: ('A' for Active; 'I' for Inactive)
REMARK    1  A    between atoms: C_1  and  C_2
REMARK    2  A    between atoms: C_2  and  O_3
REMARK    3  A    between atoms: O_3  and  C_4
REMARK    4  A    between atoms: C_4  and  C_6
REMARK    5  A    between atoms: C_7  and  O_8
REMARK    6  A    between atoms: C_10  and  C_11
REMARK    7  A    between atoms: C_12  and  C_13
REMARK    8  A    between atoms: C_13  and  C_14
REMARK    9  A    between atoms: C_15  and  S_16
REMARK   10  A    between atoms: S_16  and  C_17
REMARK   11  A    between atoms: C_19  and  C_20
REMARK   12  A    between atoms: C_22  and  C_23
REMARK                            x       y       z     vdW  Elec       q    Type
REMARK                         _______ _______ _______ _____ _____    ______ ____
ROOT
ATOM      1  C   UNL     1      -0.383  10.889  22.001  0.00  0.00    +0.000 A 
ATOM      2  C   UNL     1       0.171   9.796  22.656  0.00  0.00    +0.000 A 
ATOM      3  N   UNL     1       0.843   8.816  22.035  0.00  0.00    +0.000 NA
ATOM      4  C   UNL     1       1.046   8.916  20.702  0.00  0.00    +0.000 A 
ATOM      5  C   UNL     1       1.843   7.783  20.122  0.00  0.00    +0.000 C 
ATOM      6  C   UNL     1       0.581  10.004  19.937  0.00  0.00    +0.000 A 
ATOM      7  C   UNL     1      -0.173  11.010  20.606  0.00  0.00    +0.000 A 
ENDROOT
BRANCH   1   8
ATOM      8  C   UNL     1      -1.143  11.819  22.852  0.00  0.00    +0.000 C 
ATOM      9  O   UNL     1      -2.336  11.664  23.074  0.00  0.00    +0.000 OA
BRANCH   8  10
ATOM     10  O   UNL     1      -0.421  12.931  23.114  0.00  0.00    +0.000 OA
BRANCH  10  12
ATOM     11  C   UNL     1      -0.847  15.238  22.568  0.00  0.00    +0.000 C 
ATOM     12  C   UNL     1      -1.159  14.093  23.515  0.00  0.00    +0.000 C 
ENDBRANCH  10  12
ENDBRANCH   8  10
ENDBRANCH   1   8
BRANCH   2  13
ATOM     13  O   UNL     1       0.094   9.602  24.008  0.00  0.00    +0.000 OA
ATOM     14  H   UNL     1       0.332   8.672  24.201  0.00  0.00    +0.000 HD
ENDBRANCH   2  13
BRANCH   6  15
ATOM     15  C   UNL     1       0.932  10.076  18.459  0.00  0.00    +0.000 C 
ATOM     16  C   UNL     1       2.166  10.914  18.151  0.00  0.00    +0.000 C 
ENDBRANCH   6  15
BRANCH   7  17
ATOM     17  S   UNL     1      -0.681  12.498  19.716  0.00  0.00    +0.000 S 
BRANCH  17  18
ATOM     18  C   UNL     1      -2.128  12.040  18.763  0.00  0.00    +0.000 A 
ATOM     19  C   UNL     1      -2.076  11.519  17.468  0.00  0.00    +0.000 A 
ATOM     20  C   UNL     1      -3.241  11.102  16.807  0.00  0.00    +0.000 A 
ATOM     21  C   UNL     1      -3.161  10.498  15.436  0.00  0.00    +0.000 C 
ATOM     22  C   UNL     1      -4.480  11.242  17.440  0.00  0.00    +0.000 A 
ATOM     23  C   UNL     1      -4.563  11.767  18.734  0.00  0.00    +0.000 A 
ATOM     24  C   UNL     1      -5.889  11.871  19.432  0.00  0.00    +0.000 C 
ATOM     25  C   UNL     1      -3.384  12.170  19.382  0.00  0.00    +0.000 A 
ENDBRANCH  17  18
ENDBRANCH   7  17
TORSDOF 7
ENDMDL
MODEL 8
REMARK VINA RESULT:      -6.0      5.489      9.210
REMARK  Name = 
REMARK  12 active torsions:
REMARK  status: ('A' for Active; 'I' for Inactive)
REMARK    1  A    between atoms: C_1  and  C_2
REMARK    2  A    between atoms: C_2  and  O_3
REMARK    3  A    between atoms: O_3  and  C_4
REMARK    4  A    between atoms: C_4  and  C_6
REMARK    5  A    between atoms: C_7  and  O_8
REMARK    6  A    between atoms: C_10  and  C_11
REMARK    7  A    between atoms: C_12  and  C_13
REMARK    8  A    between atoms: C_13  and  C_14
REMARK    9  A    between atoms: C_15  and  S_16
REMARK   10  A    between atoms: S_16  and  C_17
REMARK   11  A    between atoms: C_19  and  C_20
REMARK   12  A    between atoms: C_22  and  C_23
REMARK                            x       y       z     vdW  Elec       q    Type
REMARK                         _______ _______ _______ _____ _____    ______ ____
ROOT
ATOM      1  C   UNL     1       2.483   6.004  18.871  0.00  0.00    +0.000 A 
ATOM      2  C   UNL     1       2.299   6.301  20.216  0.00  0.00    +0.000 A 
ATOM      3  N   UNL     1       2.059   5.376  21.158  0.00  0.00    +0.000 NA
ATOM      4  C   UNL     1       2.047   4.073  20.796  0.00  0.00    +0.000 A 
ATOM      5  C   UNL     1       1.809   3.128  21.938  0.00  0.00    +0.000 C 
ATOM      6  C   UNL     1       2.276   3.644  19.473  0.00  0.00    +0.000 A 
ATOM      7  C   UNL     1       2.479   4.644  18.479  0.00  0.00    +0.000 A 
ENDROOT
BRANCH   1   8
ATOM      8  C   UNL     1       2.664   7.166  17.985  0.00  0.00    +0.000 C 
ATOM      9  O   UNL     1       3.773   7.559  17.653  0.00  0.00    +0.000 OA
BRANCH   8  10
ATOM     10  O   UNL     1       1.500   7.834  17.825  0.00  0.00    +0.000 OA
BRANCH  10  12
ATOM     11  C   UNL     1       0.555   9.876  18.688  0.00  0.00    +0.000 C 
ATOM     12  C   UNL     1       1.588   9.264  17.758  0.00  0.00    +0.000 C 
ENDBRANCH  10  12
ENDBRANCH   8  10
ENDBRANCH   1   8
BRANCH   2  13
ATOM     13  O   UNL     1       2.346   7.568  20.728  0.00  0.00    +0.000 OA
ATOM     14  H   UNL     1       2.203   7.517  21.695  0.00  0.00    +0.000 HD
ENDBRANCH   2  13
BRANCH   6  15
ATOM     15  C   UNL     1       2.332   2.154  19.175  0.00  0.00    +0.000 C 
ATOM     16  C   UNL     1       1.014   1.564  18.695  0.00  0.00    +0.000 C 
ENDBRANCH   6  15
BRANCH   7  17
ATOM     17  S   UNL     1       2.913   4.162  16.792  0.00  0.00    +0.000 S 
BRANCH  17  18
ATOM     18  C   UNL     1       4.674   4.453  16.628  0.00  0.00    +0.000 A 
ATOM     19  C   UNL     1       5.346   4.495  15.404  0.00  0.00    +0.000 A 
ATOM     20  C   UNL     1       6.711   4.810  15.337  0.00  0.00    +0.000 A 
ATOM     21  C   UNL     1       7.405   4.899  14.010  0.00  0.00    +0.000 C 
ATOM     22  C   UNL     1       7.422   5.052  16.518  0.00  0.00    +0.000 A 
ATOM     23  C   UNL     1       6.775   5.011  17.758  0.00  0.00    +0.000 A 
ATOM     24  C   UNL     1       7.527   5.321  19.020  0.00  0.00    +0.000 C 
ATOM     25  C   UNL     1       5.406   4.703  17.802  0.00  0.00    +0.000 A 
ENDBRANCH  17  18
ENDBRANCH   7  17
TORSDOF 7
ENDMDL
MODEL 9
REMARK VINA RESULT:      -6.0      0.957      1.274
REMARK  Name = 
REMARK  12 active torsions:
REMARK  status: ('A' for Active; 'I' for Inactive)
REMARK    1  A    between atoms: C_1  and  C_2
REMARK    2  A    between atoms: C_2  and  O_3
REMARK    3  A    between atoms: O_3  and  C_4
REMARK    4  A    between atoms: C_4  and  C_6
REMARK    5  A    between atoms: C_7  and  O_8
REMARK    6  A    between atoms: C_10  and  C_11
REMARK    7  A    between atoms: C_12  and  C_13
REMARK    8  A    between atoms: C_13  and  C_14
REMARK    9  A    between atoms: C_15  and  S_16
REMARK   10  A    between atoms: S_16  and  C_17
REMARK   11  A    between atoms: C_19  and  C_20
REMARK   12  A    between atoms: C_22  and  C_23
REMARK                            x       y       z     vdW  Elec       q    Type
REMARK                         _______ _______ _______ _____ _____    ______ ____
ROOT
ATOM      1  C   UNL     1      -0.322  10.915  21.552  0.00  0.00    +0.000 A 
ATOM      2  C   UNL     1       0.151   9.939  22.421  0.00  0.00    +0.000 A 
ATOM      3  N   UNL     1       0.799   8.835  22.020  0.00  0.00    +0.000 NA
ATOM      4  C   UNL     1       1.058   8.680  20.702  0.00  0.00    +0.000 A 
ATOM      5  C   UNL     1       1.821   7.428  20.377  0.00  0.00    +0.000 C 
ATOM      6  C   UNL     1       0.677   9.627  19.731  0.00  0.00    +0.000 A 
ATOM      7  C   UNL     1      -0.053  10.768  20.170  0.00  0.00    +0.000 A 
ENDROOT
BRANCH   1   8
ATOM      8  C   UNL     1      -1.069  12.015  22.183  0.00  0.00    +0.000 C 
ATOM      9  O   UNL     1      -2.290  12.081  22.133  0.00  0.00    +0.000 OA
BRANCH   8  10
ATOM     10  O   UNL     1      -0.233  13.003  22.572  0.00  0.00    +0.000 OA
BRANCH  10  12
ATOM     11  C   UNL     1      -1.168  14.712  23.990  0.00  0.00    +0.000 C 
ATOM     12  C   UNL     1      -0.771  14.332  22.574  0.00  0.00    +0.000 C 
ENDBRANCH  10  12
ENDBRANCH   8  10
ENDBRANCH   1   8
BRANCH   2  13
ATOM     13  O   UNL     1       0.013  10.000  23.781  0.00  0.00    +0.000 OA
ATOM     14  H   UNL     1      -0.438  10.838  24.008  0.00  0.00    +0.000 HD
ENDBRANCH   2  13
BRANCH   6  15
ATOM     15  C   UNL     1       1.089   9.412  18.283  0.00  0.00    +0.000 C 
ATOM     16  C   UNL     1       2.262  10.272  17.834  0.00  0.00    +0.000 C 
ENDBRANCH   6  15
BRANCH   7  17
ATOM     17  S   UNL     1      -0.452  12.087  19.001  0.00  0.00    +0.000 S 
BRANCH  17  18
ATOM     18  C   UNL     1      -2.006  11.622  18.236  0.00  0.00    +0.000 A 
ATOM     19  C   UNL     1      -3.258  11.882  18.797  0.00  0.00    +0.000 A 
ATOM     20  C   UNL     1      -4.439  11.567  18.109  0.00  0.00    +0.000 A 
ATOM     21  C   UNL     1      -5.776  11.898  18.705  0.00  0.00    +0.000 C 
ATOM     22  C   UNL     1      -4.364  10.952  16.855  0.00  0.00    +0.000 A 
ATOM     23  C   UNL     1      -3.122  10.675  16.272  0.00  0.00    +0.000 A 
ATOM     24  C   UNL     1      -3.042  10.060  14.904  0.00  0.00    +0.000 C 
ATOM     25  C   UNL     1      -1.952  11.006  16.974  0.00  0.00    +0.000 A 
ENDBRANCH  17  18
ENDBRANCH   7  17
TORSDOF 7
ENDMDL
