MODEL 1
REMARK VINA RESULT:      -7.8      0.000      0.000
REMARK  Name = 
REMARK  8 active torsions:
REMARK  status: ('A' for Active; 'I' for Inactive)
REMARK    1  A    between atoms: C_1  and  C_2
REMARK    2  A    between atoms: C_5  and  S_6
REMARK    3  A    between atoms: S_6  and  N_9
REMARK    4  A    between atoms: C_13  and  C_15
REMARK    5  A    between atoms: C_15  and  O_16
REMARK    6  A    between atoms: O_16  and  C_17
REMARK    7  A    between atoms: C_17  and  C_19
REMARK    8  A    between atoms: C_29  and  C_30
REMARK                            x       y       z     vdW  Elec       q    Type
REMARK                         _______ _______ _______ _____ _____    ______ ____
ROOT
ATOM      1  N   UNL     1       0.060  10.005  19.967  0.00  0.00    +0.000 NA
ATOM      2  C   UNL     1       0.693   9.540  18.703  0.00  0.00    +0.000 C 
ATOM      3  C   UNL     1       2.087   8.995  19.010  0.00  0.00    +0.000 C 
ATOM      4  N   UNL     1       1.940   7.812  19.856  0.00  0.00    +0.000 N 
ATOM      5  C   UNL     1       2.039   6.574  19.236  0.00  0.00    +0.000 C 
ATOM      6  O   UNL     1       2.293   6.490  18.027  0.00  0.00    +0.000 OA
ATOM      7  C   UNL     1       1.330   8.114  21.159  0.00  0.00    +0.000 C 
ATOM      8  C   UNL     1       0.051   8.990  21.062  0.00  0.00    +0.000 C 
ENDROOT
BRANCH   1   9
ATOM      9  S   UNL     1       0.193  11.643  20.323  0.00  0.00    +0.000 S 
ATOM     10  O   UNL     1       0.558  12.324  19.096  0.00  0.00    +0.000 OA
ATOM     11  O   UNL     1       0.975  11.828  21.526  0.00  0.00    +0.000 OA
BRANCH   9  16
ATOM     12  C   UNL     1      -5.476  13.388  21.770  0.00  0.00    +0.000 C 
ATOM     13  C   UNL     1      -4.098  12.906  21.426  0.00  0.00    +0.000 A 
ATOM     14  C   UNL     1      -3.106  12.779  22.402  0.00  0.00    +0.000 A 
ATOM     15  C   UNL     1      -1.818  12.363  22.052  0.00  0.00    +0.000 A 
ATOM     16  C   UNL     1      -1.507  12.061  20.718  0.00  0.00    +0.000 A 
ATOM     17  C   UNL     1      -2.496  12.155  19.720  0.00  0.00    +0.000 A 
ATOM     18  C   UNL     1      -2.298  11.841  18.265  0.00  0.00    +0.000 C 
ATOM     19  C   UNL     1      -3.787  12.578  20.100  0.00  0.00    +0.000 A 
ENDBRANCH   9  16
ENDBRANCH   1   9
BRANCH   5  20
ATOM     20  C   UNL     1       1.875   5.288  20.056  0.00  0.00    +0.000 C 
BRANCH  20  21
ATOM     21  O   UNL     1       3.146   4.830  20.535  0.00  0.00    +0.000 OA
BRANCH  21  22
ATOM     22  C   UNL     1       3.553   3.661  19.965  0.00  0.00    +0.000 C 
ATOM     23  O   UNL     1       3.196   2.553  20.334  0.00  0.00    +0.000 OA
BRANCH  22  24
ATOM     24  C   UNL     1       4.473   3.940  18.820  0.00  0.00    +0.000 A 
ATOM     25  N   UNL     1       5.695   4.455  19.156  0.00  0.00    +0.000 NA
ATOM     26  C   UNL     1       6.544   4.716  18.143  0.00  0.00    +0.000 A 
ATOM     27 CL   UNL     1       8.051   5.374  18.622  0.00  0.00    +0.000 Cl
ATOM     28  C   UNL     1       6.263   4.487  16.810  0.00  0.00    +0.000 A 
ATOM     29  C   UNL     1       5.016   3.956  16.487  0.00  0.00    +0.000 A 
ATOM     30  C   UNL     1       4.096   3.676  17.502  0.00  0.00    +0.000 A 
ATOM     31 CL   UNL     1       2.557   3.067  17.021  0.00  0.00    +0.000 Cl
ENDBRANCH  22  24
ENDBRANCH  21  22
ENDBRANCH  20  21
ENDBRANCH   5  20
TORSDOF 6
ENDMDL
MODEL 2
REMARK VINA RESULT:      -7.5      1.986      3.120
REMARK  Name = 
REMARK  8 active torsions:
REMARK  status: ('A' for Active; 'I' for Inactive)
REMARK    1  A    between atoms: C_1  and  C_2
REMARK    2  A    between atoms: C_5  and  S_6
REMARK    3  A    between atoms: S_6  and  N_9
REMARK    4  A    between atoms: C_13  and  C_15
REMARK    5  A    between atoms: C_15  and  O_16
REMARK    6  A    between atoms: O_16  and  C_17
REMARK    7  A    between atoms: C_17  and  C_19
REMARK    8  A    between atoms: C_29  and  C_30
REMARK                            x       y       z     vdW  Elec       q    Type
REMARK                         _______ _______ _______ _____ _____    ______ ____
ROOT
ATOM      1  N   UNL     1      -0.893  10.467  19.691  0.00  0.00    +0.000 NA
ATOM      2  C   UNL     1      -0.196  10.512  18.377  0.00  0.00    +0.000 C 
ATOM      3  C   UNL     1       1.314  10.509  18.610  0.00  0.00    +0.000 C 
ATOM      4  N   UNL     1       1.680   9.236  19.227  0.00  0.00    +0.000 N 
ATOM      5  C   UNL     1       2.218   8.261  18.397  0.00  0.00    +0.000 C 
ATOM      6  O   UNL     1       2.422   8.494  17.199  0.00  0.00    +0.000 OA
ATOM      7  C   UNL     1       1.068   9.046  20.551  0.00  0.00    +0.000 C 
ATOM      8  C   UNL     1      -0.453   9.355  20.586  0.00  0.00    +0.000 C 
ENDROOT
BRANCH   1   9
ATOM      9  S   UNL     1      -1.387  11.939  20.338  0.00  0.00    +0.000 S 
ATOM     10  O   UNL     1      -0.553  12.970  19.750  0.00  0.00    +0.000 OA
ATOM     11  O   UNL     1      -1.518  11.831  21.774  0.00  0.00    +0.000 OA
BRANCH   9  16
ATOM     12  C   UNL     1      -7.053  12.104  18.071  0.00  0.00    +0.000 C 
ATOM     13  C   UNL     1      -5.647  12.108  18.594  0.00  0.00    +0.000 A 
ATOM     14  C   UNL     1      -4.632  11.389  17.959  0.00  0.00    +0.000 A 
ATOM     15  C   UNL     1      -3.338  11.377  18.486  0.00  0.00    +0.000 A 
ATOM     16  C   UNL     1      -3.040  12.092  19.656  0.00  0.00    +0.000 A 
ATOM     17  C   UNL     1      -4.040  12.845  20.300  0.00  0.00    +0.000 A 
ATOM     18  C   UNL     1      -3.846  13.667  21.542  0.00  0.00    +0.000 C 
ATOM     19  C   UNL     1      -5.337  12.840  19.749  0.00  0.00    +0.000 A 
ENDBRANCH   9  16
ENDBRANCH   1   9
BRANCH   5  20
ATOM     20  C   UNL     1       2.607   6.893  18.970  0.00  0.00    +0.000 C 
BRANCH  20  21
ATOM     21  O   UNL     1       3.835   6.433  18.390  0.00  0.00    +0.000 OA
BRANCH  21  22
ATOM     22  C   UNL     1       4.418   5.416  19.086  0.00  0.00    +0.000 C 
ATOM     23  O   UNL     1       5.492   5.502  19.660  0.00  0.00    +0.000 OA
BRANCH  22  24
ATOM     24  C   UNL     1       3.543   4.204  19.056  0.00  0.00    +0.000 A 
ATOM     25  N   UNL     1       2.901   3.910  20.227  0.00  0.00    +0.000 NA
ATOM     26  C   UNL     1       2.106   2.822  20.228  0.00  0.00    +0.000 A 
ATOM     27 CL   UNL     1       1.342   2.493  21.725  0.00  0.00    +0.000 Cl
ATOM     28  C   UNL     1       1.896   2.007  19.131  0.00  0.00    +0.000 A 
ATOM     29  C   UNL     1       2.553   2.327  17.945  0.00  0.00    +0.000 A 
ATOM     30  C   UNL     1       3.396   3.441  17.896  0.00  0.00    +0.000 A 
ATOM     31 CL   UNL     1       4.212   3.743  16.408  0.00  0.00    +0.000 Cl
ENDBRANCH  22  24
ENDBRANCH  21  22
ENDBRANCH  20  21
ENDBRANCH   5  20
TORSDOF 6
ENDMDL
MODEL 3
REMARK VINA RESULT:      -7.4      1.548      2.117
REMARK  Name = 
REMARK  8 active torsions:
REMARK  status: ('A' for Active; 'I' for Inactive)
REMARK    1  A    between atoms: C_1  and  C_2
REMARK    2  A    between atoms: C_5  and  S_6
REMARK    3  A    between atoms: S_6  and  N_9
REMARK    4  A    between atoms: C_13  and  C_15
REMARK    5  A    between atoms: C_15  and  O_16
REMARK    6  A    between atoms: O_16  and  C_17
REMARK    7  A    between atoms: C_17  and  C_19
REMARK    8  A    between atoms: C_29  and  C_30
REMARK                            x       y       z     vdW  Elec       q    Type
REMARK                         _______ _______ _______ _____ _____    ______ ____
ROOT
ATOM      1  N   UNL     1      -1.212  11.439  20.987  0.00  0.00    +0.000 NA
ATOM      2  C   UNL     1      -0.820  11.171  19.577  0.00  0.00    +0.000 C 
ATOM      3  C   UNL     1       0.703  11.108  19.482  0.00  0.00    +0.000 C 
ATOM      4  N   UNL     1       1.163   9.961  20.262  0.00  0.00    +0.000 N 
ATOM      5  C   UNL     1       1.480   8.805  19.562  0.00  0.00    +0.000 C 
ATOM      6  O   UNL     1       1.420   8.778  18.326  0.00  0.00    +0.000 OA
ATOM      7  C   UNL     1       0.854  10.083  21.694  0.00  0.00    +0.000 C 
ATOM      8  C   UNL     1      -0.613  10.501  21.983  0.00  0.00    +0.000 C 
ENDROOT
BRANCH   1   9
ATOM      9  S   UNL     1      -1.512  13.043  21.399  0.00  0.00    +0.000 S 
ATOM     10  O   UNL     1      -1.640  13.789  20.162  0.00  0.00    +0.000 OA
ATOM     11  O   UNL     1      -0.588  13.473  22.425  0.00  0.00    +0.000 OA
BRANCH   9  16
ATOM     12  C   UNL     1      -6.992  12.956  24.089  0.00  0.00    +0.000 C 
ATOM     13  C   UNL     1      -5.642  12.921  23.436  0.00  0.00    +0.000 A 
ATOM     14  C   UNL     1      -4.468  13.030  24.185  0.00  0.00    +0.000 A 
ATOM     15  C   UNL     1      -3.222  13.032  23.550  0.00  0.00    +0.000 A 
ATOM     16  C   UNL     1      -3.136  12.918  22.154  0.00  0.00    +0.000 A 
ATOM     17  C   UNL     1      -4.303  12.780  21.380  0.00  0.00    +0.000 A 
ATOM     18  C   UNL     1      -4.345  12.629  19.886  0.00  0.00    +0.000 C 
ATOM     19  C   UNL     1      -5.547  12.782  22.045  0.00  0.00    +0.000 A 
ENDBRANCH   9  16
ENDBRANCH   1   9
BRANCH   5  20
ATOM     20  C   UNL     1       1.950   7.554  20.315  0.00  0.00    +0.000 C 
BRANCH  20  21
ATOM     21  O   UNL     1       2.016   6.427  19.431  0.00  0.00    +0.000 OA
BRANCH  21  22
ATOM     22  C   UNL     1       2.724   5.379  19.938  0.00  0.00    +0.000 C 
ATOM     23  O   UNL     1       2.446   4.796  20.975  0.00  0.00    +0.000 OA
BRANCH  22  24
ATOM     24  C   UNL     1       3.865   5.043  19.033  0.00  0.00    +0.000 A 
ATOM     25  N   UNL     1       5.094   5.483  19.442  0.00  0.00    +0.000 NA
ATOM     26  C   UNL     1       6.139   5.193  18.643  0.00  0.00    +0.000 A 
ATOM     27 CL   UNL     1       7.649   5.783  19.197  0.00  0.00    +0.000 Cl
ATOM     28  C   UNL     1       6.048   4.480  17.463  0.00  0.00    +0.000 A 
ATOM     29  C   UNL     1       4.789   4.035  17.065  0.00  0.00    +0.000 A 
ATOM     30  C   UNL     1       3.670   4.317  17.856  0.00  0.00    +0.000 A 
ATOM     31 CL   UNL     1       2.141   3.775  17.274  0.00  0.00    +0.000 Cl
ENDBRANCH  22  24
ENDBRANCH  21  22
ENDBRANCH  20  21
ENDBRANCH   5  20
TORSDOF 6
ENDMDL
MODEL 4
REMARK VINA RESULT:      -7.4      0.701      1.392
REMARK  Name = 
REMARK  8 active torsions:
REMARK  status: ('A' for Active; 'I' for Inactive)
REMARK    1  A    between atoms: C_1  and  C_2
REMARK    2  A    between atoms: C_5  and  S_6
REMARK    3  A    between atoms: S_6  and  N_9
REMARK    4  A    between atoms: C_13  and  C_15
REMARK    5  A    between atoms: C_15  and  O_16
REMARK    6  A    between atoms: O_16  and  C_17
REMARK    7  A    between atoms: C_17  and  C_19
REMARK    8  A    between atoms: C_29  and  C_30
REMARK                            x       y       z     vdW  Elec       q    Type
REMARK                         _______ _______ _______ _____ _____    ______ ____
ROOT
ATOM      1  N   UNL     1      -0.288  10.390  19.816  0.00  0.00    +0.000 NA
ATOM      2  C   UNL     1       0.315   9.826  18.579  0.00  0.00    +0.000 C 
ATOM      3  C   UNL     1       1.775   9.469  18.850  0.00  0.00    +0.000 C 
ATOM      4  N   UNL     1       1.809   8.402  19.848  0.00  0.00    +0.000 N 
ATOM      5  C   UNL     1       2.004   7.107  19.386  0.00  0.00    +0.000 C 
ATOM      6  O   UNL     1       2.194   6.888  18.183  0.00  0.00    +0.000 OA
ATOM      7  C   UNL     1       1.247   8.814  21.143  0.00  0.00    +0.000 C 
ATOM      8  C   UNL     1      -0.123   9.536  21.029  0.00  0.00    +0.000 C 
ENDROOT
BRANCH   1   9
ATOM      9  S   UNL     1      -0.313  12.067  19.950  0.00  0.00    +0.000 S 
ATOM     10  O   UNL     1      -0.187  12.609  18.611  0.00  0.00    +0.000 OA
ATOM     11  O   UNL     1       0.581  12.494  21.003  0.00  0.00    +0.000 OA
BRANCH   9  16
ATOM     12  C   UNL     1      -6.109  12.720  21.755  0.00  0.00    +0.000 C 
ATOM     13  C   UNL     1      -4.682  12.616  21.306  0.00  0.00    +0.000 A 
ATOM     14  C   UNL     1      -4.348  12.537  19.952  0.00  0.00    +0.000 A 
ATOM     15  C   UNL     1      -3.013  12.404  19.559  0.00  0.00    +0.000 A 
ATOM     16  C   UNL     1      -1.991  12.354  20.520  0.00  0.00    +0.000 A 
ATOM     17  C   UNL     1      -2.300  12.458  21.889  0.00  0.00    +0.000 A 
ATOM     18  C   UNL     1      -1.301  12.439  23.011  0.00  0.00    +0.000 C 
ATOM     19  C   UNL     1      -3.654  12.591  22.259  0.00  0.00    +0.000 A 
ENDBRANCH   9  16
ENDBRANCH   1   9
BRANCH   5  20
ATOM     20  C   UNL     1       2.030   5.934  20.373  0.00  0.00    +0.000 C 
BRANCH  20  21
ATOM     21  O   UNL     1       2.001   4.684  19.672  0.00  0.00    +0.000 OA
BRANCH  21  22
ATOM     22  C   UNL     1       3.084   3.895  19.922  0.00  0.00    +0.000 C 
ATOM     23  O   UNL     1       3.154   3.091  20.839  0.00  0.00    +0.000 OA
BRANCH  22  24
ATOM     24  C   UNL     1       4.149   4.145  18.904  0.00  0.00    +0.000 A 
ATOM     25  N   UNL     1       5.290   4.735  19.374  0.00  0.00    +0.000 NA
ATOM     26  C   UNL     1       6.266   4.972  18.477  0.00  0.00    +0.000 A 
ATOM     27 CL   UNL     1       7.663   5.727  19.119  0.00  0.00    +0.000 Cl
ATOM     28  C   UNL     1       6.190   4.649  17.135  0.00  0.00    +0.000 A 
ATOM     29  C   UNL     1       5.023   4.043  16.675  0.00  0.00    +0.000 A 
ATOM     30  C   UNL     1       3.976   3.784  17.566  0.00  0.00    +0.000 A 
ATOM     31 CL   UNL     1       2.546   3.077  16.913  0.00  0.00    +0.000 Cl
ENDBRANCH  22  24
ENDBRANCH  21  22
ENDBRANCH  20  21
ENDBRANCH   5  20
TORSDOF 6
ENDMDL
MODEL 5
REMARK VINA RESULT:      -7.3      3.869      9.827
REMARK  Name = 
REMARK  8 active torsions:
REMARK  status: ('A' for Active; 'I' for Inactive)
REMARK    1  A    between atoms: C_1  and  C_2
REMARK    2  A    between atoms: C_5  and  S_6
REMARK    3  A    between atoms: S_6  and  N_9
REMARK    4  A    between atoms: C_13  and  C_15
REMARK    5  A    between atoms: C_15  and  O_16
REMARK    6  A    between atoms: O_16  and  C_17
REMARK    7  A    between atoms: C_17  and  C_19
REMARK    8  A    between atoms: C_29  and  C_30
REMARK                            x       y       z     vdW  Elec       q    Type
REMARK                         _______ _______ _______ _____ _____    ______ ____
ROOT
ATOM      1  N   UNL     1       2.073   4.539  18.899  0.00  0.00    +0.000 NA
ATOM      2  C   UNL     1       1.529   4.981  20.211  0.00  0.00    +0.000 C 
ATOM      3  C   UNL     1       2.378   6.133  20.745  0.00  0.00    +0.000 C 
ATOM      4  N   UNL     1       2.233   7.268  19.836  0.00  0.00    +0.000 N 
ATOM      5  C   UNL     1       1.359   8.277  20.216  0.00  0.00    +0.000 C 
ATOM      6  O   UNL     1       0.773   8.228  21.306  0.00  0.00    +0.000 OA
ATOM      7  C   UNL     1       2.741   6.986  18.485  0.00  0.00    +0.000 C 
ATOM      8  C   UNL     1       2.244   5.635  17.900  0.00  0.00    +0.000 C 
ENDROOT
BRANCH   1   9
ATOM      9  S   UNL     1       3.131   3.230  18.919  0.00  0.00    +0.000 S 
ATOM     10  O   UNL     1       2.424   2.095  18.359  0.00  0.00    +0.000 OA
ATOM     11  O   UNL     1       3.774   3.131  20.211  0.00  0.00    +0.000 OA
BRANCH   9  16
ATOM     12  C   UNL     1       7.102   5.207  14.724  0.00  0.00    +0.000 C 
ATOM     13  C   UNL     1       6.159   4.675  15.763  0.00  0.00    +0.000 A 
ATOM     14  C   UNL     1       5.125   3.799  15.427  0.00  0.00    +0.000 A 
ATOM     15  C   UNL     1       4.236   3.346  16.405  0.00  0.00    +0.000 A 
ATOM     16  C   UNL     1       4.375   3.761  17.738  0.00  0.00    +0.000 A 
ATOM     17  C   UNL     1       5.426   4.622  18.107  0.00  0.00    +0.000 A 
ATOM     18  C   UNL     1       5.695   5.121  19.498  0.00  0.00    +0.000 C 
ATOM     19  C   UNL     1       6.308   5.065  17.101  0.00  0.00    +0.000 A 
ENDBRANCH   9  16
ENDBRANCH   1   9
BRANCH   5  20
ATOM     20  C   UNL     1       1.140   9.489  19.303  0.00  0.00    +0.000 C 
BRANCH  20  21
ATOM     21  O   UNL     1      -0.256   9.802  19.204  0.00  0.00    +0.000 OA
BRANCH  21  22
ATOM     22  C   UNL     1      -0.500  11.065  18.754  0.00  0.00    +0.000 C 
ATOM     23  O   UNL     1       0.264  12.006  18.895  0.00  0.00    +0.000 OA
BRANCH  22  24
ATOM     24  C   UNL     1      -1.820  11.115  18.053  0.00  0.00    +0.000 A 
ATOM     25  N   UNL     1      -1.842  10.574  16.797  0.00  0.00    +0.000 NA
ATOM     26  C   UNL     1      -3.019  10.606  16.142  0.00  0.00    +0.000 A 
ATOM     27 CL   UNL     1      -2.984   9.929  14.569  0.00  0.00    +0.000 Cl
ATOM     28  C   UNL     1      -4.187  11.133  16.660  0.00  0.00    +0.000 A 
ATOM     29  C   UNL     1      -4.147  11.674  17.944  0.00  0.00    +0.000 A 
ATOM     30  C   UNL     1      -2.946  11.672  18.661  0.00  0.00    +0.000 A 
ATOM     31 CL   UNL     1      -2.964  12.403  20.222  0.00  0.00    +0.000 Cl
ENDBRANCH  22  24
ENDBRANCH  21  22
ENDBRANCH  20  21
ENDBRANCH   5  20
TORSDOF 6
ENDMDL
MODEL 6
REMARK VINA RESULT:      -7.2      1.416      1.705
REMARK  Name = 
REMARK  8 active torsions:
REMARK  status: ('A' for Active; 'I' for Inactive)
REMARK    1  A    between atoms: C_1  and  C_2
REMARK    2  A    between atoms: C_5  and  S_6
REMARK    3  A    between atoms: S_6  and  N_9
REMARK    4  A    between atoms: C_13  and  C_15
REMARK    5  A    between atoms: C_15  and  O_16
REMARK    6  A    between atoms: O_16  and  C_17
REMARK    7  A    between atoms: C_17  and  C_19
REMARK    8  A    between atoms: C_29  and  C_30
REMARK                            x       y       z     vdW  Elec       q    Type
REMARK                         _______ _______ _______ _____ _____    ______ ____
ROOT
ATOM      1  N   UNL     1      -1.039  10.908  19.603  0.00  0.00    +0.000 NA
ATOM      2  C   UNL     1      -0.345  10.329  18.421  0.00  0.00    +0.000 C 
ATOM      3  C   UNL     1       1.160  10.308  18.683  0.00  0.00    +0.000 C 
ATOM      4  N   UNL     1       1.418   9.399  19.798  0.00  0.00    +0.000 N 
ATOM      5  C   UNL     1       1.869   8.124  19.484  0.00  0.00    +0.000 C 
ATOM      6  O   UNL     1       2.088   7.803  18.309  0.00  0.00    +0.000 OA
ATOM      7  C   UNL     1       0.797   9.845  21.054  0.00  0.00    +0.000 C 
ATOM      8  C   UNL     1      -0.692  10.258  20.902  0.00  0.00    +0.000 C 
ENDROOT
BRANCH   1   9
ATOM      9  S   UNL     1      -1.403  12.549  19.541  0.00  0.00    +0.000 S 
ATOM     10  O   UNL     1      -1.208  12.982  18.171  0.00  0.00    +0.000 OA
ATOM     11  O   UNL     1      -0.755  13.243  20.631  0.00  0.00    +0.000 OA
BRANCH   9  16
ATOM     12  C   UNL     1      -7.388  12.865  20.708  0.00  0.00    +0.000 C 
ATOM     13  C   UNL     1      -5.916  12.737  20.449  0.00  0.00    +0.000 A 
ATOM     14  C   UNL     1      -4.971  13.201  21.368  0.00  0.00    +0.000 A 
ATOM     15  C   UNL     1      -3.606  13.104  21.088  0.00  0.00    +0.000 A 
ATOM     16  C   UNL     1      -3.166  12.536  19.883  0.00  0.00    +0.000 A 
ATOM     17  C   UNL     1      -4.097  12.037  18.953  0.00  0.00    +0.000 A 
ATOM     18  C   UNL     1      -3.756  11.389  17.641  0.00  0.00    +0.000 C 
ATOM     19  C   UNL     1      -5.468  12.147  19.259  0.00  0.00    +0.000 A 
ENDBRANCH   9  16
ENDBRANCH   1   9
BRANCH   5  20
ATOM     20  C   UNL     1       2.142   7.109  20.600  0.00  0.00    +0.000 C 
BRANCH  20  21
ATOM     21  O   UNL     1       1.655   5.812  20.233  0.00  0.00    +0.000 OA
BRANCH  21  22
ATOM     22  C   UNL     1       2.551   4.810  20.459  0.00  0.00    +0.000 C 
ATOM     23  O   UNL     1       2.490   4.030  21.396  0.00  0.00    +0.000 OA
BRANCH  22  24
ATOM     24  C   UNL     1       3.593   4.800  19.386  0.00  0.00    +0.000 A 
ATOM     25  N   UNL     1       4.849   5.171  19.779  0.00  0.00    +0.000 NA
ATOM     26  C   UNL     1       5.807   5.170  18.832  0.00  0.00    +0.000 A 
ATOM     27 CL   UNL     1       7.355   5.659  19.378  0.00  0.00    +0.000 Cl
ATOM     28  C   UNL     1       5.602   4.812  17.513  0.00  0.00    +0.000 A 
ATOM     29  C   UNL     1       4.317   4.431  17.133  0.00  0.00    +0.000 A 
ATOM     30  C   UNL     1       3.286   4.423  18.078  0.00  0.00    +0.000 A 
ATOM     31 CL   UNL     1       1.714   3.987  17.520  0.00  0.00    +0.000 Cl
ENDBRANCH  22  24
ENDBRANCH  21  22
ENDBRANCH  20  21
ENDBRANCH   5  20
TORSDOF 6
ENDMDL
MODEL 7
REMARK VINA RESULT:      -7.2      1.472      2.093
REMARK  Name = 
REMARK  8 active torsions:
REMARK  status: ('A' for Active; 'I' for Inactive)
REMARK    1  A    between atoms: C_1  and  C_2
REMARK    2  A    between atoms: C_5  and  S_6
REMARK    3  A    between atoms: S_6  and  N_9
REMARK    4  A    between atoms: C_13  and  C_15
REMARK    5  A    between atoms: C_15  and  O_16
REMARK    6  A    between atoms: O_16  and  C_17
REMARK    7  A    between atoms: C_17  and  C_19
REMARK    8  A    between atoms: C_29  and  C_30
REMARK                            x       y       z     vdW  Elec       q    Type
REMARK                         _______ _______ _______ _____ _____    ______ ____
ROOT
ATOM      1  N   UNL     1      -0.858  10.562  19.279  0.00  0.00    +0.000 NA
ATOM      2  C   UNL     1      -0.026   9.907  18.235  0.00  0.00    +0.000 C 
ATOM      3  C   UNL     1       1.421   9.832  18.719  0.00  0.00    +0.000 C 
ATOM      4  N   UNL     1       1.469   8.960  19.890  0.00  0.00    +0.000 N 
ATOM      5  C   UNL     1       1.898   7.655  19.691  0.00  0.00    +0.000 C 
ATOM      6  O   UNL     1       2.272   7.276  18.574  0.00  0.00    +0.000 OA
ATOM      7  C   UNL     1       0.691   9.483  21.023  0.00  0.00    +0.000 C 
ATOM      8  C   UNL     1      -0.738   9.953  20.637  0.00  0.00    +0.000 C 
ENDROOT
BRANCH   1   9
ATOM      9  S   UNL     1      -1.129  12.214  19.106  0.00  0.00    +0.000 S 
ATOM     10  O   UNL     1      -1.197  12.493  17.685  0.00  0.00    +0.000 OA
ATOM     11  O   UNL     1      -0.228  12.957  19.959  0.00  0.00    +0.000 OA
BRANCH   9  16
ATOM     12  C   UNL     1      -6.788  12.418  21.388  0.00  0.00    +0.000 C 
ATOM     13  C   UNL     1      -5.404  12.422  20.811  0.00  0.00    +0.000 A 
ATOM     14  C   UNL     1      -5.173  12.104  19.470  0.00  0.00    +0.000 A 
ATOM     15  C   UNL     1      -3.870  12.079  18.964  0.00  0.00    +0.000 A 
ATOM     16  C   UNL     1      -2.779  12.377  19.794  0.00  0.00    +0.000 A 
ATOM     17  C   UNL     1      -2.988  12.726  21.142  0.00  0.00    +0.000 A 
ATOM     18  C   UNL     1      -1.911  13.086  22.125  0.00  0.00    +0.000 C 
ATOM     19  C   UNL     1      -4.311  12.744  21.628  0.00  0.00    +0.000 A 
ENDBRANCH   9  16
ENDBRANCH   1   9
BRANCH   5  20
ATOM     20  C   UNL     1       1.954   6.676  20.870  0.00  0.00    +0.000 C 
BRANCH  20  21
ATOM     21  O   UNL     1       1.346   5.426  20.518  0.00  0.00    +0.000 OA
BRANCH  21  22
ATOM     22  C   UNL     1       2.142   4.347  20.760  0.00  0.00    +0.000 C 
ATOM     23  O   UNL     1       2.266   3.813  21.851  0.00  0.00    +0.000 OA
BRANCH  22  24
ATOM     24  C   UNL     1       2.815   3.910  19.498  0.00  0.00    +0.000 A 
ATOM     25  N   UNL     1       4.083   4.385  19.309  0.00  0.00    +0.000 NA
ATOM     26  C   UNL     1       4.712   4.007  18.180  0.00  0.00    +0.000 A 
ATOM     27 CL   UNL     1       6.290   4.645  17.989  0.00  0.00    +0.000 Cl
ATOM     28  C   UNL     1       4.166   3.172  17.223  0.00  0.00    +0.000 A 
ATOM     29  C   UNL     1       2.875   2.693  17.435  0.00  0.00    +0.000 A 
ATOM     30  C   UNL     1       2.177   3.064  18.589  0.00  0.00    +0.000 A 
ATOM     31 CL   UNL     1       0.567   2.470  18.758  0.00  0.00    +0.000 Cl
ENDBRANCH  22  24
ENDBRANCH  21  22
ENDBRANCH  20  21
ENDBRANCH   5  20
TORSDOF 6
ENDMDL
MODEL 8
REMARK VINA RESULT:      -7.1      1.985      2.824
REMARK  Name = 
REMARK  8 active torsions:
REMARK  status: ('A' for Active; 'I' for Inactive)
REMARK    1  A    between atoms: C_1  and  C_2
REMARK    2  A    between atoms: C_5  and  S_6
REMARK    3  A    between atoms: S_6  and  N_9
REMARK    4  A    between atoms: C_13  and  C_15
REMARK    5  A    between atoms: C_15  and  O_16
REMARK    6  A    between atoms: O_16  and  C_17
REMARK    7  A    between atoms: C_17  and  C_19
REMARK    8  A    between atoms: C_29  and  C_30
REMARK                            x       y       z     vdW  Elec       q    Type
REMARK                         _______ _______ _______ _____ _____    ______ ____
ROOT
ATOM      1  N   UNL     1      -0.767  10.886  19.504  0.00  0.00    +0.000 NA
ATOM      2  C   UNL     1      -0.078  10.792  18.188  0.00  0.00    +0.000 C 
ATOM      3  C   UNL     1       1.431  10.722  18.416  0.00  0.00    +0.000 C 
ATOM      4  N   UNL     1       1.730   9.481  19.127  0.00  0.00    +0.000 N 
ATOM      5  C   UNL     1       2.207   8.418  18.373  0.00  0.00    +0.000 C 
ATOM      6  O   UNL     1       2.415   8.547  17.159  0.00  0.00    +0.000 OA
ATOM      7  C   UNL     1       1.119   9.427  20.463  0.00  0.00    +0.000 C 
ATOM      8  C   UNL     1      -0.383   9.823  20.480  0.00  0.00    +0.000 C 
ENDROOT
BRANCH   1   9
ATOM      9  S   UNL     1      -1.173  12.429  20.038  0.00  0.00    +0.000 S 
ATOM     10  O   UNL     1      -0.831  13.357  18.978  0.00  0.00    +0.000 OA
ATOM     11  O   UNL     1      -0.680  12.635  21.382  0.00  0.00    +0.000 OA
BRANCH   9  16
ATOM     12  C   UNL     1      -7.266  12.392  20.424  0.00  0.00    +0.000 C 
ATOM     13  C   UNL     1      -5.768  12.347  20.348  0.00  0.00    +0.000 A 
ATOM     14  C   UNL     1      -4.973  12.672  21.450  0.00  0.00    +0.000 A 
ATOM     15  C   UNL     1      -3.580  12.659  21.345  0.00  0.00    +0.000 A 
ATOM     16  C   UNL     1      -2.962  12.314  20.133  0.00  0.00    +0.000 A 
ATOM     17  C   UNL     1      -3.740  11.957  19.016  0.00  0.00    +0.000 A 
ATOM     18  C   UNL     1      -3.203  11.548  17.675  0.00  0.00    +0.000 C 
ATOM     19  C   UNL     1      -5.144  11.978  19.149  0.00  0.00    +0.000 A 
ENDBRANCH   9  16
ENDBRANCH   1   9
BRANCH   5  20
ATOM     20  C   UNL     1       2.523   7.077  19.047  0.00  0.00    +0.000 C 
BRANCH  20  21
ATOM     21  O   UNL     1       3.636   6.440  18.406  0.00  0.00    +0.000 OA
BRANCH  21  22
ATOM     22  C   UNL     1       4.200   5.449  19.153  0.00  0.00    +0.000 C 
ATOM     23  O   UNL     1       5.261   5.554  19.748  0.00  0.00    +0.000 OA
BRANCH  22  24
ATOM     24  C   UNL     1       3.321   4.240  19.151  0.00  0.00    +0.000 A 
ATOM     25  N   UNL     1       2.711   3.950  20.341  0.00  0.00    +0.000 NA
ATOM     26  C   UNL     1       1.914   2.865  20.367  0.00  0.00    +0.000 A 
ATOM     27 CL   UNL     1       1.190   2.543  21.885  0.00  0.00    +0.000 Cl
ATOM     28  C   UNL     1       1.670   2.048  19.279  0.00  0.00    +0.000 A 
ATOM     29  C   UNL     1       2.295   2.362  18.073  0.00  0.00    +0.000 A 
ATOM     30  C   UNL     1       3.140   3.474  17.998  0.00  0.00    +0.000 A 
ATOM     31 CL   UNL     1       3.915   3.770  16.487  0.00  0.00    +0.000 Cl
ENDBRANCH  22  24
ENDBRANCH  21  22
ENDBRANCH  20  21
ENDBRANCH   5  20
TORSDOF 6
ENDMDL
MODEL 9
REMARK VINA RESULT:      -7.1      3.931     10.264
REMARK  Name = 
REMARK  8 active torsions:
REMARK  status: ('A' for Active; 'I' for Inactive)
REMARK    1  A    between atoms: C_1  and  C_2
REMARK    2  A    between atoms: C_5  and  S_6
REMARK    3  A    between atoms: S_6  and  N_9
REMARK    4  A    between atoms: C_13  and  C_15
REMARK    5  A    between atoms: C_15  and  O_16
REMARK    6  A    between atoms: O_16  and  C_17
REMARK    7  A    between atoms: C_17  and  C_19
REMARK    8  A    between atoms: C_29  and  C_30
REMARK                            x       y       z     vdW  Elec       q    Type
REMARK                         _______ _______ _______ _____ _____    ______ ____
ROOT
ATOM      1  N   UNL     1       4.302   5.529  18.818  0.00  0.00    +0.000 NA
ATOM      2  C   UNL     1       4.202   6.570  17.759  0.00  0.00    +0.000 C 
ATOM      3  C   UNL     1       2.731   6.802  17.420  0.00  0.00    +0.000 C 
ATOM      4  N   UNL     1       2.069   7.351  18.601  0.00  0.00    +0.000 N 
ATOM      5  C   UNL     1       1.856   8.723  18.627  0.00  0.00    +0.000 C 
ATOM      6  O   UNL     1       2.171   9.430  17.661  0.00  0.00    +0.000 OA
ATOM      7  C   UNL     1       2.077   6.425  19.743  0.00  0.00    +0.000 C 
ATOM      8  C   UNL     1       3.469   5.798  20.028  0.00  0.00    +0.000 C 
ENDROOT
BRANCH   1   9
ATOM      9  S   UNL     1       4.578   3.951  18.305  0.00  0.00    +0.000 S 
ATOM     10  O   UNL     1       3.297   3.392  17.919  0.00  0.00    +0.000 OA
ATOM     11  O   UNL     1       5.424   3.262  19.255  0.00  0.00    +0.000 OA
BRANCH   9  16
ATOM     12  C   UNL     1       7.639   5.133  13.157  0.00  0.00    +0.000 C 
ATOM     13  C   UNL     1       6.906   4.789  14.419  0.00  0.00    +0.000 A 
ATOM     14  C   UNL     1       5.611   4.266  14.390  0.00  0.00    +0.000 A 
ATOM     15  C   UNL     1       4.934   3.987  15.580  0.00  0.00    +0.000 A 
ATOM     16  C   UNL     1       5.548   4.224  16.819  0.00  0.00    +0.000 A 
ATOM     17  C   UNL     1       6.862   4.726  16.875  0.00  0.00    +0.000 A 
ATOM     18  C   UNL     1       7.636   5.001  18.133  0.00  0.00    +0.000 C 
ATOM     19  C   UNL     1       7.523   4.999  15.660  0.00  0.00    +0.000 A 
ENDBRANCH   9  16
ENDBRANCH   1   9
BRANCH   5  20
ATOM     20  C   UNL     1       1.185   9.374  19.843  0.00  0.00    +0.000 C 
BRANCH  20  21
ATOM     21  O   UNL     1       0.780  10.715  19.538  0.00  0.00    +0.000 OA
BRANCH  21  22
ATOM     22  C   UNL     1      -0.560  10.923  19.678  0.00  0.00    +0.000 C 
ATOM     23  O   UNL     1      -1.421  10.280  19.099  0.00  0.00    +0.000 OA
BRANCH  22  24
ATOM     24  C   UNL     1      -0.810  12.029  20.652  0.00  0.00    +0.000 A 
ATOM     25  N   UNL     1      -0.954  13.275  20.108  0.00  0.00    +0.000 NA
ATOM     26  C   UNL     1      -1.180  14.291  20.964  0.00  0.00    +0.000 A 
ATOM     27 CL   UNL     1      -1.336  15.829  20.227  0.00  0.00    +0.000 Cl
ATOM     28  C   UNL     1      -1.285  14.148  22.334  0.00  0.00    +0.000 A 
ATOM     29  C   UNL     1      -1.142  12.870  22.871  0.00  0.00    +0.000 A 
ATOM     30  C   UNL     1      -0.897  11.785  22.024  0.00  0.00    +0.000 A 
ATOM     31 CL   UNL     1      -0.683  10.243  22.766  0.00  0.00    +0.000 Cl
ENDBRANCH  22  24
ENDBRANCH  21  22
ENDBRANCH  20  21
ENDBRANCH   5  20
TORSDOF 6
ENDMDL
