MODEL 1
REMARK VINA RESULT:      -6.6      0.000      0.000
REMARK  Name = 
REMARK  12 active torsions:
REMARK  status: ('A' for Active; 'I' for Inactive)
REMARK    1  A    between atoms: C_1  and  C_2
REMARK    2  A    between atoms: C_2  and  C_3
REMARK    3  A    between atoms: C_3  and  C_4
REMARK    4  A    between atoms: C_4  and  C_5
REMARK    5  A    between atoms: C_5  and  C_6
REMARK    6  A    between atoms: C_6  and  C_7
REMARK    7  A    between atoms: C_7  and  C_8
REMARK    8  A    between atoms: C_13  and  O_14
REMARK    9  A    between atoms: O_14  and  C_15
REMARK   10  A    between atoms: C_15  and  C_16
REMARK   11  A    between atoms: C_16  and  C_17
REMARK   12  A    between atoms: C_17  and  C_18
REMARK                            x       y       z     vdW  Elec       q    Type
REMARK                         _______ _______ _______ _____ _____    ______ ____
ROOT
ATOM      1  C   UNL     1       4.771   5.303  17.509  0.00  0.00    +0.000 C 
ATOM      2  C   UNL     1       3.917   6.570  17.387  0.00  0.00    +0.000 C 
ATOM      3  S   UNL     1       5.094   5.101  19.316  0.00  0.00    +0.000 S 
ATOM      4  C   UNL     1       6.801   5.411  19.153  0.00  0.00    +0.000 C 
ATOM      5  O   UNL     1       7.585   5.479  20.081  0.00  0.00    +0.000 OA
ATOM      6  C   UNL     1       7.188   5.567  17.755  0.00  0.00    +0.000 C 
ATOM      7  C   UNL     1       6.157   5.508  16.899  0.00  0.00    +0.000 C 
ENDROOT
BRANCH   1   8
ATOM      8  C   UNL     1       4.016   4.060  16.958  0.00  0.00    +0.000 C 
BRANCH   8   9
ATOM      9  C   UNL     1       2.513   4.048  17.272  0.00  0.00    +0.000 C 
BRANCH   9  10
ATOM     10  C   UNL     1       2.109   3.087  18.394  0.00  0.00    +0.000 C 
BRANCH  10  11
ATOM     11  C   UNL     1       1.327   3.875  19.452  0.00  0.00    +0.000 C 
BRANCH  11  13
ATOM     12  C   UNL     1       2.437   2.881  21.462  0.00  0.00    +0.000 C 
ATOM     13  C   UNL     1       1.110   3.106  20.751  0.00  0.00    +0.000 C 
ENDBRANCH  11  13
ENDBRANCH  10  11
ENDBRANCH   9  10
ENDBRANCH   8   9
ENDBRANCH   1   8
BRANCH   7  14
ATOM     14  O   UNL     1       6.230   5.598  15.520  0.00  0.00    +0.000 OA
BRANCH  14  15
ATOM     15  C   UNL     1       6.633   4.407  14.829  0.00  0.00    +0.000 C 
BRANCH  15  16
ATOM     16  C   UNL     1       5.667   4.086  13.688  0.00  0.00    +0.000 C 
BRANCH  16  17
ATOM     17  C   UNL     1       6.403   3.507  12.476  0.00  0.00    +0.000 C 
BRANCH  17  18
ATOM     18  C   UNL     1       5.577   2.431  11.783  0.00  0.00    +0.000 C 
ATOM     19 CL   UNL     1       6.644   1.297  10.923  0.00  0.00    +0.000 Cl
ENDBRANCH  17  18
ENDBRANCH  16  17
ENDBRANCH  15  16
ENDBRANCH  14  15
ENDBRANCH   7  14
TORSDOF 10
ENDMDL
MODEL 2
REMARK VINA RESULT:      -6.4      1.394      1.449
REMARK  Name = 
REMARK  12 active torsions:
REMARK  status: ('A' for Active; 'I' for Inactive)
REMARK    1  A    between atoms: C_1  and  C_2
REMARK    2  A    between atoms: C_2  and  C_3
REMARK    3  A    between atoms: C_3  and  C_4
REMARK    4  A    between atoms: C_4  and  C_5
REMARK    5  A    between atoms: C_5  and  C_6
REMARK    6  A    between atoms: C_6  and  C_7
REMARK    7  A    between atoms: C_7  and  C_8
REMARK    8  A    between atoms: C_13  and  O_14
REMARK    9  A    between atoms: O_14  and  C_15
REMARK   10  A    between atoms: C_15  and  C_16
REMARK   11  A    between atoms: C_16  and  C_17
REMARK   12  A    between atoms: C_17  and  C_18
REMARK                            x       y       z     vdW  Elec       q    Type
REMARK                         _______ _______ _______ _____ _____    ______ ____
ROOT
ATOM      1  C   UNL     1       4.938   5.095  17.272  0.00  0.00    +0.000 C 
ATOM      2  C   UNL     1       4.550   6.397  16.561  0.00  0.00    +0.000 C 
ATOM      3  S   UNL     1       5.597   5.612  18.917  0.00  0.00    +0.000 S 
ATOM      4  C   UNL     1       7.218   5.091  18.550  0.00  0.00    +0.000 C 
ATOM      5  O   UNL     1       8.177   5.242  19.282  0.00  0.00    +0.000 OA
ATOM      6  C   UNL     1       7.290   4.433  17.249  0.00  0.00    +0.000 C 
ATOM      7  C   UNL     1       6.125   4.422  16.584  0.00  0.00    +0.000 C 
ENDROOT
BRANCH   1   8
ATOM      8  C   UNL     1       3.705   4.165  17.456  0.00  0.00    +0.000 C 
BRANCH   8   9
ATOM      9  C   UNL     1       3.964   2.950  18.360  0.00  0.00    +0.000 C 
BRANCH   9  10
ATOM     10  C   UNL     1       2.701   2.344  18.982  0.00  0.00    +0.000 C 
BRANCH  10  11
ATOM     11  C   UNL     1       1.553   3.348  18.828  0.00  0.00    +0.000 C 
BRANCH  11  13
ATOM     12  C   UNL     1       1.537   2.993  21.305  0.00  0.00    +0.000 C 
ATOM     13  C   UNL     1       0.966   3.814  20.157  0.00  0.00    +0.000 C 
ENDBRANCH  11  13
ENDBRANCH  10  11
ENDBRANCH   9  10
ENDBRANCH   8   9
ENDBRANCH   1   8
BRANCH   7  14
ATOM     14  O   UNL     1       5.892   3.847  15.347  0.00  0.00    +0.000 OA
BRANCH  14  15
ATOM     15  C   UNL     1       6.542   4.467  14.229  0.00  0.00    +0.000 C 
BRANCH  15  16
ATOM     16  C   UNL     1       6.329   3.651  12.954  0.00  0.00    +0.000 C 
BRANCH  16  17
ATOM     17  C   UNL     1       4.942   3.898  12.354  0.00  0.00    +0.000 C 
BRANCH  17  18
ATOM     18  C   UNL     1       4.601   2.862  11.292  0.00  0.00    +0.000 C 
ATOM     19 CL   UNL     1       3.258   3.441  10.279  0.00  0.00    +0.000 Cl
ENDBRANCH  17  18
ENDBRANCH  16  17
ENDBRANCH  15  16
ENDBRANCH  14  15
ENDBRANCH   7  14
TORSDOF 10
ENDMDL
MODEL 3
REMARK VINA RESULT:      -6.4      1.136      1.210
REMARK  Name = 
REMARK  12 active torsions:
REMARK  status: ('A' for Active; 'I' for Inactive)
REMARK    1  A    between atoms: C_1  and  C_2
REMARK    2  A    between atoms: C_2  and  C_3
REMARK    3  A    between atoms: C_3  and  C_4
REMARK    4  A    between atoms: C_4  and  C_5
REMARK    5  A    between atoms: C_5  and  C_6
REMARK    6  A    between atoms: C_6  and  C_7
REMARK    7  A    between atoms: C_7  and  C_8
REMARK    8  A    between atoms: C_13  and  O_14
REMARK    9  A    between atoms: O_14  and  C_15
REMARK   10  A    between atoms: C_15  and  C_16
REMARK   11  A    between atoms: C_16  and  C_17
REMARK   12  A    between atoms: C_17  and  C_18
REMARK                            x       y       z     vdW  Elec       q    Type
REMARK                         _______ _______ _______ _____ _____    ______ ____
ROOT
ATOM      1  C   UNL     1       4.721   5.311  17.500  0.00  0.00    +0.000 C 
ATOM      2  C   UNL     1       4.199   6.747  17.363  0.00  0.00    +0.000 C 
ATOM      3  S   UNL     1       5.608   5.264  19.119  0.00  0.00    +0.000 S 
ATOM      4  C   UNL     1       7.168   5.033  18.378  0.00  0.00    +0.000 C 
ATOM      5  O   UNL     1       8.222   4.989  18.982  0.00  0.00    +0.000 OA
ATOM      6  C   UNL     1       7.058   4.882  16.931  0.00  0.00    +0.000 C 
ATOM      7  C   UNL     1       5.807   5.017  16.466  0.00  0.00    +0.000 C 
ENDROOT
BRANCH   1   8
ATOM      8  C   UNL     1       3.553   4.285  17.499  0.00  0.00    +0.000 C 
BRANCH   8   9
ATOM      9  C   UNL     1       2.209   4.862  17.966  0.00  0.00    +0.000 C 
BRANCH   9  10
ATOM     10  C   UNL     1       2.071   4.996  19.486  0.00  0.00    +0.000 C 
BRANCH  10  11
ATOM     11  C   UNL     1       0.945   4.069  19.956  0.00  0.00    +0.000 C 
BRANCH  11  13
ATOM     12  C   UNL     1       2.078   2.658  21.685  0.00  0.00    +0.000 C 
ATOM     13  C   UNL     1       1.418   2.663  20.312  0.00  0.00    +0.000 C 
ENDBRANCH  11  13
ENDBRANCH  10  11
ENDBRANCH   9  10
ENDBRANCH   8   9
ENDBRANCH   1   8
BRANCH   7  14
ATOM     14  O   UNL     1       5.405   4.898  15.147  0.00  0.00    +0.000 OA
BRANCH  14  15
ATOM     15  C   UNL     1       6.032   3.857  14.386  0.00  0.00    +0.000 C 
BRANCH  15  16
ATOM     16  C   UNL     1       6.959   4.444  13.321  0.00  0.00    +0.000 C 
BRANCH  16  17
ATOM     17  C   UNL     1       6.731   3.788  11.956  0.00  0.00    +0.000 C 
BRANCH  17  18
ATOM     18  C   UNL     1       5.641   2.727  12.020  0.00  0.00    +0.000 C 
ATOM     19 CL   UNL     1       4.154   3.327  11.249  0.00  0.00    +0.000 Cl
ENDBRANCH  17  18
ENDBRANCH  16  17
ENDBRANCH  15  16
ENDBRANCH  14  15
ENDBRANCH   7  14
TORSDOF 10
ENDMDL
MODEL 4
REMARK VINA RESULT:      -6.3      0.928      1.095
REMARK  Name = 
REMARK  12 active torsions:
REMARK  status: ('A' for Active; 'I' for Inactive)
REMARK    1  A    between atoms: C_1  and  C_2
REMARK    2  A    between atoms: C_2  and  C_3
REMARK    3  A    between atoms: C_3  and  C_4
REMARK    4  A    between atoms: C_4  and  C_5
REMARK    5  A    between atoms: C_5  and  C_6
REMARK    6  A    between atoms: C_6  and  C_7
REMARK    7  A    between atoms: C_7  and  C_8
REMARK    8  A    between atoms: C_13  and  O_14
REMARK    9  A    between atoms: O_14  and  C_15
REMARK   10  A    between atoms: C_15  and  C_16
REMARK   11  A    between atoms: C_16  and  C_17
REMARK   12  A    between atoms: C_17  and  C_18
REMARK                            x       y       z     vdW  Elec       q    Type
REMARK                         _______ _______ _______ _____ _____    ______ ____
ROOT
ATOM      1  C   UNL     1       4.510   5.233  17.523  0.00  0.00    +0.000 C 
ATOM      2  C   UNL     1       3.992   6.666  17.349  0.00  0.00    +0.000 C 
ATOM      3  S   UNL     1       5.307   5.198  19.188  0.00  0.00    +0.000 S 
ATOM      4  C   UNL     1       6.906   4.966  18.535  0.00  0.00    +0.000 C 
ATOM      5  O   UNL     1       7.926   4.929  19.196  0.00  0.00    +0.000 OA
ATOM      6  C   UNL     1       6.876   4.807  17.084  0.00  0.00    +0.000 C 
ATOM      7  C   UNL     1       5.652   4.935  16.551  0.00  0.00    +0.000 C 
ENDROOT
BRANCH   1   8
ATOM      8  C   UNL     1       3.347   4.203  17.464  0.00  0.00    +0.000 C 
BRANCH   8   9
ATOM      9  C   UNL     1       3.801   2.737  17.535  0.00  0.00    +0.000 C 
BRANCH   9  10
ATOM     10  C   UNL     1       3.163   1.932  18.671  0.00  0.00    +0.000 C 
BRANCH  10  11
ATOM     11  C   UNL     1       1.734   2.443  18.887  0.00  0.00    +0.000 C 
BRANCH  11  13
ATOM     12  C   UNL     1       1.103   4.246  20.504  0.00  0.00    +0.000 C 
ATOM     13  C   UNL     1       1.413   2.763  20.344  0.00  0.00    +0.000 C 
ENDBRANCH  11  13
ENDBRANCH  10  11
ENDBRANCH   9  10
ENDBRANCH   8   9
ENDBRANCH   1   8
BRANCH   7  14
ATOM     14  O   UNL     1       5.322   4.808  15.213  0.00  0.00    +0.000 OA
BRANCH  14  15
ATOM     15  C   UNL     1       6.117   3.889  14.452  0.00  0.00    +0.000 C 
BRANCH  15  16
ATOM     16  C   UNL     1       6.733   4.581  13.235  0.00  0.00    +0.000 C 
BRANCH  16  17
ATOM     17  C   UNL     1       6.876   3.617  12.054  0.00  0.00    +0.000 C 
BRANCH  17  18
ATOM     18  C   UNL     1       5.611   2.797  11.845  0.00  0.00    +0.000 C 
ATOM     19 CL   UNL     1       6.015   1.208  11.154  0.00  0.00    +0.000 Cl
ENDBRANCH  17  18
ENDBRANCH  16  17
ENDBRANCH  15  16
ENDBRANCH  14  15
ENDBRANCH   7  14
TORSDOF 10
ENDMDL
MODEL 5
REMARK VINA RESULT:      -6.3      3.016      6.290
REMARK  Name = 
REMARK  12 active torsions:
REMARK  status: ('A' for Active; 'I' for Inactive)
REMARK    1  A    between atoms: C_1  and  C_2
REMARK    2  A    between atoms: C_2  and  C_3
REMARK    3  A    between atoms: C_3  and  C_4
REMARK    4  A    between atoms: C_4  and  C_5
REMARK    5  A    between atoms: C_5  and  C_6
REMARK    6  A    between atoms: C_6  and  C_7
REMARK    7  A    between atoms: C_7  and  C_8
REMARK    8  A    between atoms: C_13  and  O_14
REMARK    9  A    between atoms: O_14  and  C_15
REMARK   10  A    between atoms: C_15  and  C_16
REMARK   11  A    between atoms: C_16  and  C_17
REMARK   12  A    between atoms: C_17  and  C_18
REMARK                            x       y       z     vdW  Elec       q    Type
REMARK                         _______ _______ _______ _____ _____    ______ ____
ROOT
ATOM      1  C   UNL     1       5.377   4.877  16.928  0.00  0.00    +0.000 C 
ATOM      2  C   UNL     1       4.845   3.451  16.748  0.00  0.00    +0.000 C 
ATOM      3  S   UNL     1       7.082   4.681  17.610  0.00  0.00    +0.000 S 
ATOM      4  C   UNL     1       6.660   5.378  19.151  0.00  0.00    +0.000 C 
ATOM      5  O   UNL     1       7.413   5.465  20.102  0.00  0.00    +0.000 OA
ATOM      6  C   UNL     1       5.283   5.863  19.162  0.00  0.00    +0.000 C 
ATOM      7  C   UNL     1       4.615   5.619  18.025  0.00  0.00    +0.000 C 
ENDROOT
BRANCH   1   8
ATOM      8  C   UNL     1       5.427   5.635  15.572  0.00  0.00    +0.000 C 
BRANCH   8   9
ATOM      9  C   UNL     1       6.418   5.044  14.557  0.00  0.00    +0.000 C 
BRANCH   9  10
ATOM     10  C   UNL     1       5.981   3.707  13.952  0.00  0.00    +0.000 C 
BRANCH  10  11
ATOM     11  C   UNL     1       6.414   3.674  12.482  0.00  0.00    +0.000 C 
BRANCH  11  13
ATOM     12  C   UNL     1       4.202   3.244  11.391  0.00  0.00    +0.000 C 
ATOM     13  C   UNL     1       5.606   2.701  11.628  0.00  0.00    +0.000 C 
ENDBRANCH  11  13
ENDBRANCH  10  11
ENDBRANCH   9  10
ENDBRANCH   8   9
ENDBRANCH   1   8
BRANCH   7  14
ATOM     14  O   UNL     1       3.310   5.987  17.746  0.00  0.00    +0.000 OA
BRANCH  14  15
ATOM     15  C   UNL     1       2.302   5.449  18.613  0.00  0.00    +0.000 C 
BRANCH  15  16
ATOM     16  C   UNL     1       1.546   4.310  17.927  0.00  0.00    +0.000 C 
BRANCH  16  17
ATOM     17  C   UNL     1       1.492   3.060  18.811  0.00  0.00    +0.000 C 
BRANCH  17  18
ATOM     18  C   UNL     1       0.882   3.364  20.172  0.00  0.00    +0.000 C 
ATOM     19 CL   UNL     1       2.076   3.074  21.458  0.00  0.00    +0.000 Cl
ENDBRANCH  17  18
ENDBRANCH  16  17
ENDBRANCH  15  16
ENDBRANCH  14  15
ENDBRANCH   7  14
TORSDOF 10
ENDMDL
MODEL 6
REMARK VINA RESULT:      -6.3      3.251      6.498
REMARK  Name = 
REMARK  12 active torsions:
REMARK  status: ('A' for Active; 'I' for Inactive)
REMARK    1  A    between atoms: C_1  and  C_2
REMARK    2  A    between atoms: C_2  and  C_3
REMARK    3  A    between atoms: C_3  and  C_4
REMARK    4  A    between atoms: C_4  and  C_5
REMARK    5  A    between atoms: C_5  and  C_6
REMARK    6  A    between atoms: C_6  and  C_7
REMARK    7  A    between atoms: C_7  and  C_8
REMARK    8  A    between atoms: C_13  and  O_14
REMARK    9  A    between atoms: O_14  and  C_15
REMARK   10  A    between atoms: C_15  and  C_16
REMARK   11  A    between atoms: C_16  and  C_17
REMARK   12  A    between atoms: C_17  and  C_18
REMARK                            x       y       z     vdW  Elec       q    Type
REMARK                         _______ _______ _______ _____ _____    ______ ____
ROOT
ATOM      1  C   UNL     1       6.152   4.933  17.201  0.00  0.00    +0.000 C 
ATOM      2  C   UNL     1       7.137   4.875  18.374  0.00  0.00    +0.000 C 
ATOM      3  S   UNL     1       5.939   6.729  16.828  0.00  0.00    +0.000 S 
ATOM      4  C   UNL     1       4.272   6.745  17.336  0.00  0.00    +0.000 C 
ATOM      5  O   UNL     1       3.571   7.738  17.381  0.00  0.00    +0.000 OA
ATOM      6  C   UNL     1       3.806   5.410  17.694  0.00  0.00    +0.000 C 
ATOM      7  C   UNL     1       4.759   4.468  17.623  0.00  0.00    +0.000 C 
ENDROOT
BRANCH   1   8
ATOM      8  C   UNL     1       6.714   4.191  15.956  0.00  0.00    +0.000 C 
BRANCH   8   9
ATOM      9  C   UNL     1       6.408   4.884  14.619  0.00  0.00    +0.000 C 
BRANCH   9  10
ATOM     10  C   UNL     1       5.432   4.119  13.720  0.00  0.00    +0.000 C 
BRANCH  10  11
ATOM     11  C   UNL     1       6.207   3.574  12.514  0.00  0.00    +0.000 C 
BRANCH  11  13
ATOM     12  C   UNL     1       4.135   3.123  11.184  0.00  0.00    +0.000 C 
ATOM     13  C   UNL     1       5.435   2.531  11.713  0.00  0.00    +0.000 C 
ENDBRANCH  11  13
ENDBRANCH  10  11
ENDBRANCH   9  10
ENDBRANCH   8   9
ENDBRANCH   1   8
BRANCH   7  14
ATOM     14  O   UNL     1       4.598   3.117  17.879  0.00  0.00    +0.000 OA
BRANCH  14  15
ATOM     15  C   UNL     1       3.509   2.763  18.743  0.00  0.00    +0.000 C 
BRANCH  15  16
ATOM     16  C   UNL     1       2.270   2.385  17.930  0.00  0.00    +0.000 C 
BRANCH  16  17
ATOM     17  C   UNL     1       1.018   2.326  18.810  0.00  0.00    +0.000 C 
BRANCH  17  18
ATOM     18  C   UNL     1       1.029   3.417  19.871  0.00  0.00    +0.000 C 
ATOM     19 CL   UNL     1       1.250   2.701  21.485  0.00  0.00    +0.000 Cl
ENDBRANCH  17  18
ENDBRANCH  16  17
ENDBRANCH  15  16
ENDBRANCH  14  15
ENDBRANCH   7  14
TORSDOF 10
ENDMDL
MODEL 7
REMARK VINA RESULT:      -6.3      1.239      1.461
REMARK  Name = 
REMARK  12 active torsions:
REMARK  status: ('A' for Active; 'I' for Inactive)
REMARK    1  A    between atoms: C_1  and  C_2
REMARK    2  A    between atoms: C_2  and  C_3
REMARK    3  A    between atoms: C_3  and  C_4
REMARK    4  A    between atoms: C_4  and  C_5
REMARK    5  A    between atoms: C_5  and  C_6
REMARK    6  A    between atoms: C_6  and  C_7
REMARK    7  A    between atoms: C_7  and  C_8
REMARK    8  A    between atoms: C_13  and  O_14
REMARK    9  A    between atoms: O_14  and  C_15
REMARK   10  A    between atoms: C_15  and  C_16
REMARK   11  A    between atoms: C_16  and  C_17
REMARK   12  A    between atoms: C_17  and  C_18
REMARK                            x       y       z     vdW  Elec       q    Type
REMARK                         _______ _______ _______ _____ _____    ______ ____
ROOT
ATOM      1  C   UNL     1       4.982   4.557  17.726  0.00  0.00    +0.000 C 
ATOM      2  C   UNL     1       4.175   5.711  17.120  0.00  0.00    +0.000 C 
ATOM      3  S   UNL     1       5.650   5.209  19.319  0.00  0.00    +0.000 S 
ATOM      4  C   UNL     1       7.302   5.168  18.766  0.00  0.00    +0.000 C 
ATOM      5  O   UNL     1       8.257   5.568  19.404  0.00  0.00    +0.000 OA
ATOM      6  C   UNL     1       7.408   4.578  17.435  0.00  0.00    +0.000 C 
ATOM      7  C   UNL     1       6.226   4.253  16.892  0.00  0.00    +0.000 C 
ENDROOT
BRANCH   1   8
ATOM      8  C   UNL     1       4.082   3.317  17.991  0.00  0.00    +0.000 C 
BRANCH   8   9
ATOM      9  C   UNL     1       3.824   3.033  19.478  0.00  0.00    +0.000 C 
BRANCH   9  10
ATOM     10  C   UNL     1       2.382   2.637  19.806  0.00  0.00    +0.000 C 
BRANCH  10  11
ATOM     11  C   UNL     1       1.534   3.911  19.890  0.00  0.00    +0.000 C 
BRANCH  11  13
ATOM     12  C   UNL     1       2.042   6.349  20.140  0.00  0.00    +0.000 C 
ATOM     13  C   UNL     1       2.124   4.981  20.803  0.00  0.00    +0.000 C 
ENDBRANCH  11  13
ENDBRANCH  10  11
ENDBRANCH   9  10
ENDBRANCH   8   9
ENDBRANCH   1   8
BRANCH   7  14
ATOM     14  O   UNL     1       6.026   3.656  15.659  0.00  0.00    +0.000 OA
BRANCH  14  15
ATOM     15  C   UNL     1       6.522   4.375  14.521  0.00  0.00    +0.000 C 
BRANCH  15  16
ATOM     16  C   UNL     1       5.636   4.137  13.298  0.00  0.00    +0.000 C 
BRANCH  16  17
ATOM     17  C   UNL     1       6.379   3.356  12.210  0.00  0.00    +0.000 C 
BRANCH  17  18
ATOM     18  C   UNL     1       5.487   2.299  11.574  0.00  0.00    +0.000 C 
ATOM     19 CL   UNL     1       6.475   0.956  10.952  0.00  0.00    +0.000 Cl
ENDBRANCH  17  18
ENDBRANCH  16  17
ENDBRANCH  15  16
ENDBRANCH  14  15
ENDBRANCH   7  14
TORSDOF 10
ENDMDL
MODEL 8
REMARK VINA RESULT:      -6.3      1.021      1.152
REMARK  Name = 
REMARK  12 active torsions:
REMARK  status: ('A' for Active; 'I' for Inactive)
REMARK    1  A    between atoms: C_1  and  C_2
REMARK    2  A    between atoms: C_2  and  C_3
REMARK    3  A    between atoms: C_3  and  C_4
REMARK    4  A    between atoms: C_4  and  C_5
REMARK    5  A    between atoms: C_5  and  C_6
REMARK    6  A    between atoms: C_6  and  C_7
REMARK    7  A    between atoms: C_7  and  C_8
REMARK    8  A    between atoms: C_13  and  O_14
REMARK    9  A    between atoms: O_14  and  C_15
REMARK   10  A    between atoms: C_15  and  C_16
REMARK   11  A    between atoms: C_16  and  C_17
REMARK   12  A    between atoms: C_17  and  C_18
REMARK                            x       y       z     vdW  Elec       q    Type
REMARK                         _______ _______ _______ _____ _____    ______ ____
ROOT
ATOM      1  C   UNL     1       4.692   5.390  17.694  0.00  0.00    +0.000 C 
ATOM      2  C   UNL     1       3.752   6.600  17.754  0.00  0.00    +0.000 C 
ATOM      3  S   UNL     1       5.103   5.001  19.451  0.00  0.00    +0.000 S 
ATOM      4  C   UNL     1       6.777   5.446  19.269  0.00  0.00    +0.000 C 
ATOM      5  O   UNL     1       7.593   5.460  20.171  0.00  0.00    +0.000 OA
ATOM      6  C   UNL     1       7.094   5.793  17.887  0.00  0.00    +0.000 C 
ATOM      7  C   UNL     1       6.034   5.762  17.066  0.00  0.00    +0.000 C 
ENDROOT
BRANCH   1   8
ATOM      8  C   UNL     1       3.998   4.170  17.023  0.00  0.00    +0.000 C 
BRANCH   8   9
ATOM      9  C   UNL     1       2.566   3.912  17.518  0.00  0.00    +0.000 C 
BRANCH   9  10
ATOM     10  C   UNL     1       2.235   2.434  17.751  0.00  0.00    +0.000 C 
BRANCH  10  11
ATOM     11  C   UNL     1       2.344   2.142  19.252  0.00  0.00    +0.000 C 
BRANCH  11  13
ATOM     12  C   UNL     1       1.604   2.723  21.571  0.00  0.00    +0.000 C 
ATOM     13  C   UNL     1       1.699   3.209  20.131  0.00  0.00    +0.000 C 
ENDBRANCH  11  13
ENDBRANCH  10  11
ENDBRANCH   9  10
ENDBRANCH   8   9
ENDBRANCH   1   8
BRANCH   7  14
ATOM     14  O   UNL     1       6.043   6.018  15.706  0.00  0.00    +0.000 OA
BRANCH  14  15
ATOM     15  C   UNL     1       6.881   5.170  14.908  0.00  0.00    +0.000 C 
BRANCH  15  16
ATOM     16  C   UNL     1       6.194   3.833  14.630  0.00  0.00    +0.000 C 
BRANCH  16  17
ATOM     17  C   UNL     1       5.534   3.817  13.248  0.00  0.00    +0.000 C 
BRANCH  17  18
ATOM     18  C   UNL     1       6.504   3.354  12.170  0.00  0.00    +0.000 C 
ATOM     19 CL   UNL     1       7.414   4.740  11.526  0.00  0.00    +0.000 Cl
ENDBRANCH  17  18
ENDBRANCH  16  17
ENDBRANCH  15  16
ENDBRANCH  14  15
ENDBRANCH   7  14
TORSDOF 10
ENDMDL
MODEL 9
REMARK VINA RESULT:      -6.2      3.783      6.627
REMARK  Name = 
REMARK  12 active torsions:
REMARK  status: ('A' for Active; 'I' for Inactive)
REMARK    1  A    between atoms: C_1  and  C_2
REMARK    2  A    between atoms: C_2  and  C_3
REMARK    3  A    between atoms: C_3  and  C_4
REMARK    4  A    between atoms: C_4  and  C_5
REMARK    5  A    between atoms: C_5  and  C_6
REMARK    6  A    between atoms: C_6  and  C_7
REMARK    7  A    between atoms: C_7  and  C_8
REMARK    8  A    between atoms: C_13  and  O_14
REMARK    9  A    between atoms: O_14  and  C_15
REMARK   10  A    between atoms: C_15  and  C_16
REMARK   11  A    between atoms: C_16  and  C_17
REMARK   12  A    between atoms: C_17  and  C_18
REMARK                            x       y       z     vdW  Elec       q    Type
REMARK                         _______ _______ _______ _____ _____    ______ ____
ROOT
ATOM      1  C   UNL     1       5.636   5.094  16.479  0.00  0.00    +0.000 C 
ATOM      2  C   UNL     1       5.108   6.356  15.787  0.00  0.00    +0.000 C 
ATOM      3  S   UNL     1       4.140   4.230  17.131  0.00  0.00    +0.000 S 
ATOM      4  C   UNL     1       4.581   4.498  18.795  0.00  0.00    +0.000 C 
ATOM      5  O   UNL     1       3.898   4.186  19.752  0.00  0.00    +0.000 OA
ATOM      6  C   UNL     1       5.887   5.138  18.909  0.00  0.00    +0.000 C 
ATOM      7  C   UNL     1       6.444   5.444  17.728  0.00  0.00    +0.000 C 
ENDROOT
BRANCH   1   8
ATOM      8  C   UNL     1       6.390   4.176  15.476  0.00  0.00    +0.000 C 
BRANCH   8   9
ATOM      9  C   UNL     1       6.988   4.918  14.271  0.00  0.00    +0.000 C 
BRANCH   9  10
ATOM     10  C   UNL     1       6.847   4.177  12.938  0.00  0.00    +0.000 C 
BRANCH  10  11
ATOM     11  C   UNL     1       5.579   3.317  12.992  0.00  0.00    +0.000 C 
BRANCH  11  13
ATOM     12  C   UNL     1       3.882   3.367  11.153  0.00  0.00    +0.000 C 
ATOM     13  C   UNL     1       5.178   2.734  11.641  0.00  0.00    +0.000 C 
ENDBRANCH  11  13
ENDBRANCH  10  11
ENDBRANCH   9  10
ENDBRANCH   8   9
ENDBRANCH   1   8
BRANCH   7  14
ATOM     14  O   UNL     1       7.683   6.029  17.532  0.00  0.00    +0.000 OA
BRANCH  14  15
ATOM     15  C   UNL     1       8.065   7.033  18.482  0.00  0.00    +0.000 C 
BRANCH  15  16
ATOM     16  C   UNL     1       8.040   8.423  17.847  0.00  0.00    +0.000 C 
BRANCH  16  17
ATOM     17  C   UNL     1       8.796   9.445  18.701  0.00  0.00    +0.000 C 
BRANCH  17  18
ATOM     18  C   UNL     1       8.851  10.807  18.024  0.00  0.00    +0.000 C 
ATOM     19 CL   UNL     1      10.522  11.415  18.002  0.00  0.00    +0.000 Cl
ENDBRANCH  17  18
ENDBRANCH  16  17
ENDBRANCH  15  16
ENDBRANCH  14  15
ENDBRANCH   7  14
TORSDOF 10
ENDMDL
