MODEL 1
REMARK VINA RESULT:      -7.2      0.000      0.000
REMARK  Name = 
REMARK  9 active torsions:
REMARK  status: ('A' for Active; 'I' for Inactive)
REMARK    1  A    between atoms: C_1  and  C_2
REMARK    2  A    between atoms: C_5  and  C_6
REMARK    3  A    between atoms: C_7  and  S_8
REMARK    4  A    between atoms: S_8  and  C_9
REMARK    5  A    between atoms: C_9  and  C_10
REMARK    6  A    between atoms: C_10  and  O_12
REMARK    7  A    between atoms: O_12  and  C_13
REMARK    8  A    between atoms: C_13  and  C_14
REMARK    9  A    between atoms: C_14  and  C_16
REMARK                            x       y       z     vdW  Elec       q    Type
REMARK                         _______ _______ _______ _____ _____    ______ ____
ROOT
ATOM      1  C   UNL     1       4.566   3.312  18.327  0.00  0.00    +0.000 C 
ATOM      2  O   UNL     1       5.120   3.482  19.409  0.00  0.00    +0.000 OA
ENDROOT
BRANCH   1   3
ATOM      3  C   UNL     1       3.484   2.266  18.098  0.00  0.00    +0.000 C 
BRANCH   3   4
ATOM      4  S   UNL     1       1.835   3.030  17.912  0.00  0.00    +0.000 S 
BRANCH   4  11
ATOM      5  C   UNL     1       2.608   8.304  17.930  0.00  0.00    +0.000 C 
ATOM      6  C   UNL     1       2.298   7.047  18.685  0.00  0.00    +0.000 A 
ATOM      7  C   UNL     1       2.094   7.084  20.066  0.00  0.00    +0.000 A 
ATOM      8  C   UNL     1       1.799   5.914  20.764  0.00  0.00    +0.000 A 
ATOM      9  C   UNL     1       1.707   4.684  20.096  0.00  0.00    +0.000 A 
ATOM     10  C   UNL     1       1.375   3.456  20.908  0.00  0.00    +0.000 C 
ATOM     11  C   UNL     1       1.921   4.632  18.698  0.00  0.00    +0.000 A 
ATOM     12  C   UNL     1       2.207   5.819  18.010  0.00  0.00    +0.000 A 
ENDBRANCH   4  11
ENDBRANCH   3   4
ENDBRANCH   1   3
BRANCH   1  13
ATOM     13  O   UNL     1       4.816   4.072  17.226  0.00  0.00    +0.000 OA
BRANCH  13  14
ATOM     14  C   UNL     1       5.798   3.556  16.334  0.00  0.00    +0.000 C 
BRANCH  14  15
ATOM     15  C   UNL     1       6.905   4.577  16.044  0.00  0.00    +0.000 C 
ATOM     16  O   UNL     1       7.401   4.701  14.923  0.00  0.00    +0.000 OA
BRANCH  15  17
ATOM     17  C   UNL     1       7.339   5.361  17.175  0.00  0.00    +0.000 A 
ATOM     18  C   UNL     1       7.401   6.730  17.361  0.00  0.00    +0.000 A 
ATOM     19  C   UNL     1       7.920   6.935  18.659  0.00  0.00    +0.000 A 
ATOM     20  C   UNL     1       8.148   5.687  19.188  0.00  0.00    +0.000 A 
ATOM     21  O   UNL     1       7.798   4.725  18.297  0.00  0.00    +0.000 OA
ENDBRANCH  15  17
ENDBRANCH  14  15
ENDBRANCH  13  14
ENDBRANCH   1  13
TORSDOF 7
ENDMDL
MODEL 2
REMARK VINA RESULT:      -7.0      1.154      2.232
REMARK  Name = 
REMARK  9 active torsions:
REMARK  status: ('A' for Active; 'I' for Inactive)
REMARK    1  A    between atoms: C_1  and  C_2
REMARK    2  A    between atoms: C_5  and  C_6
REMARK    3  A    between atoms: C_7  and  S_8
REMARK    4  A    between atoms: S_8  and  C_9
REMARK    5  A    between atoms: C_9  and  C_10
REMARK    6  A    between atoms: C_10  and  O_12
REMARK    7  A    between atoms: O_12  and  C_13
REMARK    8  A    between atoms: C_13  and  C_14
REMARK    9  A    between atoms: C_14  and  C_16
REMARK                            x       y       z     vdW  Elec       q    Type
REMARK                         _______ _______ _______ _____ _____    ______ ____
ROOT
ATOM      1  C   UNL     1       4.771   3.273  19.188  0.00  0.00    +0.000 C 
ATOM      2  O   UNL     1       4.922   2.465  20.099  0.00  0.00    +0.000 OA
ENDROOT
BRANCH   1   3
ATOM      3  C   UNL     1       4.011   2.957  17.908  0.00  0.00    +0.000 C 
BRANCH   3   4
ATOM      4  S   UNL     1       2.230   3.330  18.071  0.00  0.00    +0.000 S 
BRANCH   4  11
ATOM      5  C   UNL     1       2.498   8.648  17.815  0.00  0.00    +0.000 C 
ATOM      6  C   UNL     1       2.259   7.409  18.625  0.00  0.00    +0.000 A 
ATOM      7  C   UNL     1       1.962   7.501  19.987  0.00  0.00    +0.000 A 
ATOM      8  C   UNL     1       1.734   6.348  20.735  0.00  0.00    +0.000 A 
ATOM      9  C   UNL     1       1.802   5.080  20.139  0.00  0.00    +0.000 A 
ATOM     10  C   UNL     1       1.535   3.872  21.003  0.00  0.00    +0.000 C 
ATOM     11  C   UNL     1       2.113   4.973  18.762  0.00  0.00    +0.000 A 
ATOM     12  C   UNL     1       2.329   6.144  18.022  0.00  0.00    +0.000 A 
ENDBRANCH   4  11
ENDBRANCH   3   4
ENDBRANCH   1   3
BRANCH   1  13
ATOM     13  O   UNL     1       5.219   4.557  19.241  0.00  0.00    +0.000 OA
BRANCH  13  14
ATOM     14  C   UNL     1       6.604   4.736  18.966  0.00  0.00    +0.000 C 
BRANCH  14  15
ATOM     15  C   UNL     1       6.842   5.736  17.828  0.00  0.00    +0.000 C 
ATOM     16  O   UNL     1       7.336   6.847  18.029  0.00  0.00    +0.000 OA
BRANCH  15  17
ATOM     17  C   UNL     1       6.426   5.297  16.518  0.00  0.00    +0.000 A 
ATOM     18  C   UNL     1       5.459   5.788  15.660  0.00  0.00    +0.000 A 
ATOM     19  C   UNL     1       5.476   4.956  14.518  0.00  0.00    +0.000 A 
ATOM     20  C   UNL     1       6.443   4.006  14.745  0.00  0.00    +0.000 A 
ATOM     21  O   UNL     1       7.027   4.205  15.954  0.00  0.00    +0.000 OA
ENDBRANCH  15  17
ENDBRANCH  14  15
ENDBRANCH  13  14
ENDBRANCH   1  13
TORSDOF 7
ENDMDL
MODEL 3
REMARK VINA RESULT:      -7.0      2.407      4.717
REMARK  Name = 
REMARK  9 active torsions:
REMARK  status: ('A' for Active; 'I' for Inactive)
REMARK    1  A    between atoms: C_1  and  C_2
REMARK    2  A    between atoms: C_5  and  C_6
REMARK    3  A    between atoms: C_7  and  S_8
REMARK    4  A    between atoms: S_8  and  C_9
REMARK    5  A    between atoms: C_9  and  C_10
REMARK    6  A    between atoms: C_10  and  O_12
REMARK    7  A    between atoms: O_12  and  C_13
REMARK    8  A    between atoms: C_13  and  C_14
REMARK    9  A    between atoms: C_14  and  C_16
REMARK                            x       y       z     vdW  Elec       q    Type
REMARK                         _______ _______ _______ _____ _____    ______ ____
ROOT
ATOM      1  C   UNL     1       7.529   5.017  17.749  0.00  0.00    +0.000 C 
ATOM      2  O   UNL     1       8.036   4.694  18.819  0.00  0.00    +0.000 OA
ENDROOT
BRANCH   1   3
ATOM      3  C   UNL     1       6.521   6.148  17.609  0.00  0.00    +0.000 C 
BRANCH   3   4
ATOM      4  S   UNL     1       5.320   6.158  18.986  0.00  0.00    +0.000 S 
BRANCH   4  11
ATOM      5  C   UNL     1       3.557   1.169  18.338  0.00  0.00    +0.000 C 
ATOM      6  C   UNL     1       3.295   2.644  18.280  0.00  0.00    +0.000 A 
ATOM      7  C   UNL     1       2.049   3.125  17.872  0.00  0.00    +0.000 A 
ATOM      8  C   UNL     1       1.806   4.496  17.826  0.00  0.00    +0.000 A 
ATOM      9  C   UNL     1       2.805   5.414  18.182  0.00  0.00    +0.000 A 
ATOM     10  C   UNL     1       2.476   6.886  18.120  0.00  0.00    +0.000 C 
ATOM     11  C   UNL     1       4.076   4.940  18.588  0.00  0.00    +0.000 A 
ATOM     12  C   UNL     1       4.299   3.557  18.639  0.00  0.00    +0.000 A 
ENDBRANCH   4  11
ENDBRANCH   3   4
ENDBRANCH   1   3
BRANCH   1  13
ATOM     13  O   UNL     1       7.852   4.438  16.559  0.00  0.00    +0.000 OA
BRANCH  13  14
ATOM     14  C   UNL     1       6.757   4.184  15.685  0.00  0.00    +0.000 C 
BRANCH  14  15
ATOM     15  C   UNL     1       7.047   4.645  14.251  0.00  0.00    +0.000 C 
ATOM     16  O   UNL     1       7.833   5.562  14.006  0.00  0.00    +0.000 OA
BRANCH  15  17
ATOM     17  C   UNL     1       6.322   3.947  13.217  0.00  0.00    +0.000 A 
ATOM     18  C   UNL     1       6.768   3.238  12.116  0.00  0.00    +0.000 A 
ATOM     19  C   UNL     1       5.614   2.781  11.439  0.00  0.00    +0.000 A 
ATOM     20  C   UNL     1       4.536   3.239  12.158  0.00  0.00    +0.000 A 
ATOM     21  O   UNL     1       4.954   3.946  13.240  0.00  0.00    +0.000 OA
ENDBRANCH  15  17
ENDBRANCH  14  15
ENDBRANCH  13  14
ENDBRANCH   1  13
TORSDOF 7
ENDMDL
MODEL 4
REMARK VINA RESULT:      -6.8      2.596      5.695
REMARK  Name = 
REMARK  9 active torsions:
REMARK  status: ('A' for Active; 'I' for Inactive)
REMARK    1  A    between atoms: C_1  and  C_2
REMARK    2  A    between atoms: C_5  and  C_6
REMARK    3  A    between atoms: C_7  and  S_8
REMARK    4  A    between atoms: S_8  and  C_9
REMARK    5  A    between atoms: C_9  and  C_10
REMARK    6  A    between atoms: C_10  and  O_12
REMARK    7  A    between atoms: O_12  and  C_13
REMARK    8  A    between atoms: C_13  and  C_14
REMARK    9  A    between atoms: C_14  and  C_16
REMARK                            x       y       z     vdW  Elec       q    Type
REMARK                         _______ _______ _______ _____ _____    ______ ____
ROOT
ATOM      1  C   UNL     1       1.741   2.964  18.208  0.00  0.00    +0.000 C 
ATOM      2  O   UNL     1       1.253   3.732  17.384  0.00  0.00    +0.000 OA
ENDROOT
BRANCH   1   3
ATOM      3  C   UNL     1       3.108   2.316  18.039  0.00  0.00    +0.000 C 
BRANCH   3   4
ATOM      4  S   UNL     1       4.426   3.302  18.833  0.00  0.00    +0.000 S 
BRANCH   4  11
ATOM      5  C   UNL     1       5.815   3.962  13.729  0.00  0.00    +0.000 C 
ATOM      6  C   UNL     1       5.988   4.341  15.169  0.00  0.00    +0.000 A 
ATOM      7  C   UNL     1       6.928   5.307  15.538  0.00  0.00    +0.000 A 
ATOM      8  C   UNL     1       7.082   5.662  16.876  0.00  0.00    +0.000 A 
ATOM      9  C   UNL     1       6.304   5.056  17.873  0.00  0.00    +0.000 A 
ATOM     10  C   UNL     1       6.512   5.492  19.303  0.00  0.00    +0.000 C 
ATOM     11  C   UNL     1       5.355   4.069  17.514  0.00  0.00    +0.000 A 
ATOM     12  C   UNL     1       5.206   3.731  16.162  0.00  0.00    +0.000 A 
ENDBRANCH   4  11
ENDBRANCH   3   4
ENDBRANCH   1   3
BRANCH   1  13
ATOM     13  O   UNL     1       1.142   2.648  19.389  0.00  0.00    +0.000 OA
BRANCH  13  14
ATOM     14  C   UNL     1       0.620   3.749  20.125  0.00  0.00    +0.000 C 
BRANCH  14  15
ATOM     15  C   UNL     1       1.728   4.574  20.790  0.00  0.00    +0.000 C 
ATOM     16  O   UNL     1       2.442   4.111  21.682  0.00  0.00    +0.000 OA
BRANCH  15  17
ATOM     17  C   UNL     1       1.862   5.931  20.316  0.00  0.00    +0.000 A 
ATOM     18  C   UNL     1       2.474   6.442  19.186  0.00  0.00    +0.000 A 
ATOM     19  C   UNL     1       2.309   7.844  19.239  0.00  0.00    +0.000 A 
ATOM     20  C   UNL     1       1.613   8.109  20.394  0.00  0.00    +0.000 A 
ATOM     21  O   UNL     1       1.335   6.955  21.054  0.00  0.00    +0.000 OA
ENDBRANCH  15  17
ENDBRANCH  14  15
ENDBRANCH  13  14
ENDBRANCH   1  13
TORSDOF 7
ENDMDL
MODEL 5
REMARK VINA RESULT:      -6.8      2.327      4.207
REMARK  Name = 
REMARK  9 active torsions:
REMARK  status: ('A' for Active; 'I' for Inactive)
REMARK    1  A    between atoms: C_1  and  C_2
REMARK    2  A    between atoms: C_5  and  C_6
REMARK    3  A    between atoms: C_7  and  S_8
REMARK    4  A    between atoms: S_8  and  C_9
REMARK    5  A    between atoms: C_9  and  C_10
REMARK    6  A    between atoms: C_10  and  O_12
REMARK    7  A    between atoms: O_12  and  C_13
REMARK    8  A    between atoms: C_13  and  C_14
REMARK    9  A    between atoms: C_14  and  C_16
REMARK                            x       y       z     vdW  Elec       q    Type
REMARK                         _______ _______ _______ _____ _____    ______ ____
ROOT
ATOM      1  C   UNL     1       1.788   3.304  20.751  0.00  0.00    +0.000 C 
ATOM      2  O   UNL     1       2.607   3.063  21.633  0.00  0.00    +0.000 OA
ENDROOT
BRANCH   1   3
ATOM      3  C   UNL     1       1.191   4.686  20.519  0.00  0.00    +0.000 C 
BRANCH   3   4
ATOM      4  S   UNL     1       2.473   5.910  20.074  0.00  0.00    +0.000 S 
BRANCH   4  11
ATOM      5  C   UNL     1      -0.312   9.644  22.665  0.00  0.00    +0.000 C 
ATOM      6  C   UNL     1       0.424   9.211  21.432  0.00  0.00    +0.000 A 
ATOM      7  C   UNL     1       0.516  10.062  20.329  0.00  0.00    +0.000 A 
ATOM      8  C   UNL     1       1.207   9.660  19.187  0.00  0.00    +0.000 A 
ATOM      9  C   UNL     1       1.813   8.397  19.124  0.00  0.00    +0.000 A 
ATOM     10  C   UNL     1       2.554   8.025  17.862  0.00  0.00    +0.000 C 
ATOM     11  C   UNL     1       1.718   7.521  20.231  0.00  0.00    +0.000 A 
ATOM     12  C   UNL     1       1.029   7.946  21.376  0.00  0.00    +0.000 A 
ENDBRANCH   4  11
ENDBRANCH   3   4
ENDBRANCH   1   3
BRANCH   1  13
ATOM     13  O   UNL     1       1.363   2.380  19.846  0.00  0.00    +0.000 OA
BRANCH  13  14
ATOM     14  C   UNL     1       1.842   2.558  18.517  0.00  0.00    +0.000 C 
BRANCH  14  15
ATOM     15  C   UNL     1       3.328   2.198  18.388  0.00  0.00    +0.000 C 
ATOM     16  O   UNL     1       3.734   1.043  18.526  0.00  0.00    +0.000 OA
BRANCH  15  17
ATOM     17  C   UNL     1       4.213   3.305  18.118  0.00  0.00    +0.000 A 
ATOM     18  C   UNL     1       4.293   4.161  17.035  0.00  0.00    +0.000 A 
ATOM     19  C   UNL     1       5.359   5.049  17.302  0.00  0.00    +0.000 A 
ATOM     20  C   UNL     1       5.871   4.683  18.524  0.00  0.00    +0.000 A 
ATOM     21  O   UNL     1       5.182   3.628  19.029  0.00  0.00    +0.000 OA
ENDBRANCH  15  17
ENDBRANCH  14  15
ENDBRANCH  13  14
ENDBRANCH   1  13
TORSDOF 7
ENDMDL
MODEL 6
REMARK VINA RESULT:      -6.7      1.814      3.012
REMARK  Name = 
REMARK  9 active torsions:
REMARK  status: ('A' for Active; 'I' for Inactive)
REMARK    1  A    between atoms: C_1  and  C_2
REMARK    2  A    between atoms: C_5  and  C_6
REMARK    3  A    between atoms: C_7  and  S_8
REMARK    4  A    between atoms: S_8  and  C_9
REMARK    5  A    between atoms: C_9  and  C_10
REMARK    6  A    between atoms: C_10  and  O_12
REMARK    7  A    between atoms: O_12  and  C_13
REMARK    8  A    between atoms: C_13  and  C_14
REMARK    9  A    between atoms: C_14  and  C_16
REMARK                            x       y       z     vdW  Elec       q    Type
REMARK                         _______ _______ _______ _____ _____    ______ ____
ROOT
ATOM      1  C   UNL     1       2.625   3.762  17.517  0.00  0.00    +0.000 C 
ATOM      2  O   UNL     1       2.322   2.603  17.251  0.00  0.00    +0.000 OA
ENDROOT
BRANCH   1   3
ATOM      3  C   UNL     1       1.847   4.624  18.502  0.00  0.00    +0.000 C 
BRANCH   3   4
ATOM      4  S   UNL     1       2.958   5.675  19.504  0.00  0.00    +0.000 S 
BRANCH   4  11
ATOM      5  C   UNL     1      -0.140   9.076  22.196  0.00  0.00    +0.000 C 
ATOM      6  C   UNL     1       0.679   8.769  20.979  0.00  0.00    +0.000 A 
ATOM      7  C   UNL     1       0.787   9.704  19.946  0.00  0.00    +0.000 A 
ATOM      8  C   UNL     1       1.555   9.419  18.819  0.00  0.00    +0.000 A 
ATOM      9  C   UNL     1       2.226   8.193  18.699  0.00  0.00    +0.000 A 
ATOM     10  C   UNL     1       3.050   7.950  17.457  0.00  0.00    +0.000 C 
ATOM     11  C   UNL     1       2.117   7.234  19.734  0.00  0.00    +0.000 A 
ATOM     12  C   UNL     1       1.349   7.541  20.866  0.00  0.00    +0.000 A 
ENDBRANCH   4  11
ENDBRANCH   3   4
ENDBRANCH   1   3
BRANCH   1  13
ATOM     13  O   UNL     1       3.719   4.390  17.006  0.00  0.00    +0.000 OA
BRANCH  13  14
ATOM     14  C   UNL     1       4.908   3.608  16.959  0.00  0.00    +0.000 C 
BRANCH  14  15
ATOM     15  C   UNL     1       6.047   4.335  16.235  0.00  0.00    +0.000 C 
ATOM     16  O   UNL     1       6.366   4.060  15.076  0.00  0.00    +0.000 OA
BRANCH  15  17
ATOM     17  C   UNL     1       6.731   5.343  17.009  0.00  0.00    +0.000 A 
ATOM     18  C   UNL     1       7.372   5.269  18.232  0.00  0.00    +0.000 A 
ATOM     19  C   UNL     1       7.851   6.568  18.514  0.00  0.00    +0.000 A 
ATOM     20  C   UNL     1       7.473   7.359  17.455  0.00  0.00    +0.000 A 
ATOM     21  O   UNL     1       6.794   6.625  16.535  0.00  0.00    +0.000 OA
ENDBRANCH  15  17
ENDBRANCH  14  15
ENDBRANCH  13  14
ENDBRANCH   1  13
TORSDOF 7
ENDMDL
MODEL 7
REMARK VINA RESULT:      -6.7      4.163      6.072
REMARK  Name = 
REMARK  9 active torsions:
REMARK  status: ('A' for Active; 'I' for Inactive)
REMARK    1  A    between atoms: C_1  and  C_2
REMARK    2  A    between atoms: C_5  and  C_6
REMARK    3  A    between atoms: C_7  and  S_8
REMARK    4  A    between atoms: S_8  and  C_9
REMARK    5  A    between atoms: C_9  and  C_10
REMARK    6  A    between atoms: C_10  and  O_12
REMARK    7  A    between atoms: O_12  and  C_13
REMARK    8  A    between atoms: C_13  and  C_14
REMARK    9  A    between atoms: C_14  and  C_16
REMARK                            x       y       z     vdW  Elec       q    Type
REMARK                         _______ _______ _______ _____ _____    ______ ____
ROOT
ATOM      1  C   UNL     1       7.892   7.452  18.097  0.00  0.00    +0.000 C 
ATOM      2  O   UNL     1       7.363   7.718  17.022  0.00  0.00    +0.000 OA
ENDROOT
BRANCH   1   3
ATOM      3  C   UNL     1       7.690   6.130  18.824  0.00  0.00    +0.000 C 
BRANCH   3   4
ATOM      4  S   UNL     1       7.319   4.770  17.662  0.00  0.00    +0.000 S 
BRANCH   4  11
ATOM      5  C   UNL     1       2.901   3.861  20.502  0.00  0.00    +0.000 C 
ATOM      6  C   UNL     1       3.571   3.972  19.166  0.00  0.00    +0.000 A 
ATOM      7  C   UNL     1       2.847   3.755  17.991  0.00  0.00    +0.000 A 
ATOM      8  C   UNL     1       3.472   3.865  16.751  0.00  0.00    +0.000 A 
ATOM      9  C   UNL     1       4.833   4.190  16.659  0.00  0.00    +0.000 A 
ATOM     10  C   UNL     1       5.447   4.304  15.285  0.00  0.00    +0.000 C 
ATOM     11  C   UNL     1       5.581   4.403  17.842  0.00  0.00    +0.000 A 
ATOM     12  C   UNL     1       4.934   4.298  19.082  0.00  0.00    +0.000 A 
ENDBRANCH   4  11
ENDBRANCH   3   4
ENDBRANCH   1   3
BRANCH   1  13
ATOM     13  O   UNL     1       8.762   8.284  18.733  0.00  0.00    +0.000 OA
BRANCH  13  14
ATOM     14  C   UNL     1       8.660   9.661  18.385  0.00  0.00    +0.000 C 
BRANCH  14  15
ATOM     15  C   UNL     1       9.417  10.562  19.367  0.00  0.00    +0.000 C 
ATOM     16  O   UNL     1       9.179  10.555  20.577  0.00  0.00    +0.000 OA
BRANCH  15  17
ATOM     17  C   UNL     1      10.407  11.430  18.777  0.00  0.00    +0.000 A 
ATOM     18  C   UNL     1      11.643  11.844  19.239  0.00  0.00    +0.000 A 
ATOM     19  C   UNL     1      12.174  12.703  18.250  0.00  0.00    +0.000 A 
ATOM     20  C   UNL     1      11.235  12.767  17.248  0.00  0.00    +0.000 A 
ATOM     21  O   UNL     1      10.160  11.997  17.556  0.00  0.00    +0.000 OA
ENDBRANCH  15  17
ENDBRANCH  14  15
ENDBRANCH  13  14
ENDBRANCH   1  13
TORSDOF 7
ENDMDL
MODEL 8
REMARK VINA RESULT:      -6.7      1.572      2.675
REMARK  Name = 
REMARK  9 active torsions:
REMARK  status: ('A' for Active; 'I' for Inactive)
REMARK    1  A    between atoms: C_1  and  C_2
REMARK    2  A    between atoms: C_5  and  C_6
REMARK    3  A    between atoms: C_7  and  S_8
REMARK    4  A    between atoms: S_8  and  C_9
REMARK    5  A    between atoms: C_9  and  C_10
REMARK    6  A    between atoms: C_10  and  O_12
REMARK    7  A    between atoms: O_12  and  C_13
REMARK    8  A    between atoms: C_13  and  C_14
REMARK    9  A    between atoms: C_14  and  C_16
REMARK                            x       y       z     vdW  Elec       q    Type
REMARK                         _______ _______ _______ _____ _____    ______ ____
ROOT
ATOM      1  C   UNL     1       4.474   3.414  18.105  0.00  0.00    +0.000 C 
ATOM      2  O   UNL     1       4.846   3.324  19.271  0.00  0.00    +0.000 OA
ENDROOT
BRANCH   1   3
ATOM      3  C   UNL     1       3.314   2.612  17.533  0.00  0.00    +0.000 C 
BRANCH   3   4
ATOM      4  S   UNL     1       1.739   3.010  18.370  0.00  0.00    +0.000 S 
BRANCH   4  11
ATOM      5  C   UNL     1       2.367   8.252  17.632  0.00  0.00    +0.000 C 
ATOM      6  C   UNL     1       2.180   7.098  18.571  0.00  0.00    +0.000 A 
ATOM      7  C   UNL     1       2.135   7.309  19.951  0.00  0.00    +0.000 A 
ATOM      8  C   UNL     1       1.954   6.236  20.820  0.00  0.00    +0.000 A 
ATOM      9  C   UNL     1       1.819   4.929  20.328  0.00  0.00    +0.000 A 
ATOM     10  C   UNL     1       1.616   3.811  21.322  0.00  0.00    +0.000 C 
ATOM     11  C   UNL     1       1.872   4.700  18.932  0.00  0.00    +0.000 A 
ATOM     12  C   UNL     1       2.044   5.793  18.072  0.00  0.00    +0.000 A 
ENDBRANCH   4  11
ENDBRANCH   3   4
ENDBRANCH   1   3
BRANCH   1  13
ATOM     13  O   UNL     1       5.019   4.280  17.206  0.00  0.00    +0.000 OA
BRANCH  13  14
ATOM     14  C   UNL     1       5.591   3.681  16.048  0.00  0.00    +0.000 C 
BRANCH  14  15
ATOM     15  C   UNL     1       6.967   4.270  15.716  0.00  0.00    +0.000 C 
ATOM     16  O   UNL     1       7.815   4.479  16.586  0.00  0.00    +0.000 OA
BRANCH  15  17
ATOM     17  C   UNL     1       7.190   4.582  14.325  0.00  0.00    +0.000 A 
ATOM     18  C   UNL     1       6.664   4.023  13.173  0.00  0.00    +0.000 A 
ATOM     19  C   UNL     1       7.248   4.716  12.089  0.00  0.00    +0.000 A 
ATOM     20  C   UNL     1       8.096   5.649  12.636  0.00  0.00    +0.000 A 
ATOM     21  O   UNL     1       8.067   5.578  13.992  0.00  0.00    +0.000 OA
ENDBRANCH  15  17
ENDBRANCH  14  15
ENDBRANCH  13  14
ENDBRANCH   1  13
TORSDOF 7
ENDMDL
MODEL 9
REMARK VINA RESULT:      -6.6      2.475      6.072
REMARK  Name = 
REMARK  9 active torsions:
REMARK  status: ('A' for Active; 'I' for Inactive)
REMARK    1  A    between atoms: C_1  and  C_2
REMARK    2  A    between atoms: C_5  and  C_6
REMARK    3  A    between atoms: C_7  and  S_8
REMARK    4  A    between atoms: S_8  and  C_9
REMARK    5  A    between atoms: C_9  and  C_10
REMARK    6  A    between atoms: C_10  and  O_12
REMARK    7  A    between atoms: O_12  and  C_13
REMARK    8  A    between atoms: C_13  and  C_14
REMARK    9  A    between atoms: C_14  and  C_16
REMARK                            x       y       z     vdW  Elec       q    Type
REMARK                         _______ _______ _______ _____ _____    ______ ____
ROOT
ATOM      1  C   UNL     1       2.073   6.465  19.908  0.00  0.00    +0.000 C 
ATOM      2  O   UNL     1       2.037   7.620  20.322  0.00  0.00    +0.000 OA
ENDROOT
BRANCH   1   3
ATOM      3  C   UNL     1       2.934   6.024  18.732  0.00  0.00    +0.000 C 
BRANCH   3   4
ATOM      4  S   UNL     1       4.612   5.540  19.268  0.00  0.00    +0.000 S 
BRANCH   4  11
ATOM      5  C   UNL     1       5.033   4.099  14.153  0.00  0.00    +0.000 C 
ATOM      6  C   UNL     1       5.698   4.473  15.444  0.00  0.00    +0.000 A 
ATOM      7  C   UNL     1       7.092   4.498  15.539  0.00  0.00    +0.000 A 
ATOM      8  C   UNL     1       7.707   4.853  16.738  0.00  0.00    +0.000 A 
ATOM      9  C   UNL     1       6.943   5.183  17.867  0.00  0.00    +0.000 A 
ATOM     10  C   UNL     1       7.671   5.568  19.132  0.00  0.00    +0.000 C 
ATOM     11  C   UNL     1       5.530   5.152  17.786  0.00  0.00    +0.000 A 
ATOM     12  C   UNL     1       4.927   4.803  16.569  0.00  0.00    +0.000 A 
ENDBRANCH   4  11
ENDBRANCH   3   4
ENDBRANCH   1   3
BRANCH   1  13
ATOM     13  O   UNL     1       1.392   5.437  20.486  0.00  0.00    +0.000 OA
BRANCH  13  14
ATOM     14  C   UNL     1       2.146   4.632  21.386  0.00  0.00    +0.000 C 
BRANCH  14  15
ATOM     15  C   UNL     1       1.913   3.134  21.151  0.00  0.00    +0.000 C 
ATOM     16  O   UNL     1       1.477   2.395  22.035  0.00  0.00    +0.000 OA
BRANCH  15  17
ATOM     17  C   UNL     1       2.261   2.651  19.837  0.00  0.00    +0.000 A 
ATOM     18  C   UNL     1       1.522   2.580  18.670  0.00  0.00    +0.000 A 
ATOM     19  C   UNL     1       2.366   2.005  17.694  0.00  0.00    +0.000 A 
ATOM     20  C   UNL     1       3.565   1.754  18.318  0.00  0.00    +0.000 A 
ATOM     21  O   UNL     1       3.513   2.144  19.618  0.00  0.00    +0.000 OA
ENDBRANCH  15  17
ENDBRANCH  14  15
ENDBRANCH  13  14
ENDBRANCH   1  13
TORSDOF 7
ENDMDL
