MODEL 1
REMARK VINA RESULT:      -6.1      0.000      0.000
REMARK  Name = 
REMARK  5 active torsions:
REMARK  status: ('A' for Active; 'I' for Inactive)
REMARK    1  A    between atoms: C_1  and  O_2
REMARK    2  A    between atoms: O_2  and  C_3
REMARK    3  A    between atoms: C_8  and  C_9
REMARK    4  A    between atoms: C_9  and  C_10
REMARK    5  A    between atoms: C_10  and  N_11
REMARK                            x       y       z     vdW  Elec       q    Type
REMARK                         _______ _______ _______ _____ _____    ______ ____
ROOT
ATOM      1  C   UNL     1       5.910   4.956  18.379  0.00  0.00    +0.000 A 
ATOM      2  C   UNL     1       5.417   6.092  17.725  0.00  0.00    +0.000 A 
ATOM      3  C   UNL     1       4.056   6.233  17.448  0.00  0.00    +0.000 A 
ATOM      4  C   UNL     1       3.143   5.237  17.811  0.00  0.00    +0.000 A 
ATOM      5  C   UNL     1       3.609   4.074  18.453  0.00  0.00    +0.000 A 
ATOM      6  C   UNL     1       2.980   2.881  18.943  0.00  0.00    +0.000 A 
ATOM      7  C   UNL     1       3.982   2.089  19.469  0.00  0.00    +0.000 A 
ATOM      8  N   UNL     1       5.172   2.746  19.322  0.00  0.00    +0.000 N 
ATOM      9  C   UNL     1       4.975   3.963  18.711  0.00  0.00    +0.000 A 
ATOM     10  H   UNL     1       6.080   2.405  19.607  0.00  0.00    +0.000 HD
ENDROOT
BRANCH   1  12
ATOM     11  C   UNL     1       7.923   5.839  19.235  0.00  0.00    +0.000 C 
ATOM     12  O   UNL     1       7.224   4.728  18.678  0.00  0.00    +0.000 OA
ENDBRANCH   1  12
BRANCH   6  13
ATOM     13  C   UNL     1       1.521   2.536  18.889  0.00  0.00    +0.000 C 
BRANCH  13  14
ATOM     14  C   UNL     1       0.700   3.310  19.927  0.00  0.00    +0.000 C 
BRANCH  14  15
ATOM     15  N   UNL     1       0.993   2.865  21.291  0.00  0.00    +0.000 NA
ATOM     16  H   UNL     1       0.235   2.272  21.627  0.00  0.00    +0.000 HD
ATOM     17  H   UNL     1       1.015   3.677  21.908  0.00  0.00    +0.000 HD
ENDBRANCH  14  15
ENDBRANCH  13  14
ENDBRANCH   6  13
TORSDOF 4
ENDMDL
MODEL 2
REMARK VINA RESULT:      -6.0      1.416      1.441
REMARK  Name = 
REMARK  5 active torsions:
REMARK  status: ('A' for Active; 'I' for Inactive)
REMARK    1  A    between atoms: C_1  and  O_2
REMARK    2  A    between atoms: O_2  and  C_3
REMARK    3  A    between atoms: C_8  and  C_9
REMARK    4  A    between atoms: C_9  and  C_10
REMARK    5  A    between atoms: C_10  and  N_11
REMARK                            x       y       z     vdW  Elec       q    Type
REMARK                         _______ _______ _______ _____ _____    ______ ____
ROOT
ATOM      1  C   UNL     1       4.992   4.818  17.054  0.00  0.00    +0.000 A 
ATOM      2  C   UNL     1       4.589   6.158  17.128  0.00  0.00    +0.000 A 
ATOM      3  C   UNL     1       3.410   6.522  17.782  0.00  0.00    +0.000 A 
ATOM      4  C   UNL     1       2.593   5.557  18.378  0.00  0.00    +0.000 A 
ATOM      5  C   UNL     1       2.960   4.199  18.305  0.00  0.00    +0.000 A 
ATOM      6  C   UNL     1       2.374   2.977  18.777  0.00  0.00    +0.000 A 
ATOM      7  C   UNL     1       3.212   1.954  18.378  0.00  0.00    +0.000 A 
ATOM      8  N   UNL     1       4.264   2.500  17.696  0.00  0.00    +0.000 N 
ATOM      9  C   UNL     1       4.141   3.869  17.641  0.00  0.00    +0.000 A 
ATOM     10  H   UNL     1       5.031   1.991  17.278  0.00  0.00    +0.000 HD
ENDROOT
BRANCH   1  12
ATOM     11  C   UNL     1       7.335   4.562  17.144  0.00  0.00    +0.000 C 
ATOM     12  O   UNL     1       6.120   4.369  16.425  0.00  0.00    +0.000 OA
ENDBRANCH   1  12
BRANCH   6  13
ATOM     13  C   UNL     1       1.096   2.820  19.545  0.00  0.00    +0.000 C 
BRANCH  13  14
ATOM     14  C   UNL     1       1.185   3.414  20.956  0.00  0.00    +0.000 C 
BRANCH  14  15
ATOM     15  N   UNL     1       1.871   2.511  21.881  0.00  0.00    +0.000 NA
ATOM     16  H   UNL     1       1.232   1.773  22.176  0.00  0.00    +0.000 HD
ATOM     17  H   UNL     1       2.121   3.025  22.725  0.00  0.00    +0.000 HD
ENDBRANCH  14  15
ENDBRANCH  13  14
ENDBRANCH   6  13
TORSDOF 4
ENDMDL
MODEL 3
REMARK VINA RESULT:      -6.0      1.768      1.928
REMARK  Name = 
REMARK  5 active torsions:
REMARK  status: ('A' for Active; 'I' for Inactive)
REMARK    1  A    between atoms: C_1  and  O_2
REMARK    2  A    between atoms: O_2  and  C_3
REMARK    3  A    between atoms: C_8  and  C_9
REMARK    4  A    between atoms: C_9  and  C_10
REMARK    5  A    between atoms: C_10  and  N_11
REMARK                            x       y       z     vdW  Elec       q    Type
REMARK                         _______ _______ _______ _____ _____    ______ ____
ROOT
ATOM      1  C   UNL     1       7.076   4.659  17.545  0.00  0.00    +0.000 A 
ATOM      2  C   UNL     1       7.195   5.012  16.195  0.00  0.00    +0.000 A 
ATOM      3  C   UNL     1       6.127   4.855  15.310  0.00  0.00    +0.000 A 
ATOM      4  C   UNL     1       4.905   4.334  15.747  0.00  0.00    +0.000 A 
ATOM      5  C   UNL     1       4.758   3.951  17.094  0.00  0.00    +0.000 A 
ATOM      6  C   UNL     1       3.686   3.386  17.863  0.00  0.00    +0.000 A 
ATOM      7  C   UNL     1       4.163   3.222  19.149  0.00  0.00    +0.000 A 
ATOM      8  N   UNL     1       5.458   3.660  19.189  0.00  0.00    +0.000 N 
ATOM      9  C   UNL     1       5.847   4.116  17.950  0.00  0.00    +0.000 A 
ATOM     10  H   UNL     1       6.064   3.653  19.997  0.00  0.00    +0.000 HD
ENDROOT
BRANCH   1  12
ATOM     11  C   UNL     1       8.057   5.963  19.248  0.00  0.00    +0.000 C 
ATOM     12  O   UNL     1       8.071   4.764  18.478  0.00  0.00    +0.000 OA
ENDBRANCH   1  12
BRANCH   6  13
ATOM     13  C   UNL     1       2.314   3.025  17.380  0.00  0.00    +0.000 C 
BRANCH  13  14
ATOM     14  C   UNL     1       1.262   3.105  18.493  0.00  0.00    +0.000 C 
BRANCH  14  15
ATOM     15  N   UNL     1       0.369   1.946  18.478  0.00  0.00    +0.000 NA
ATOM     16  H   UNL     1      -0.521   2.194  18.909  0.00  0.00    +0.000 HD
ATOM     17  H   UNL     1       0.770   1.208  19.057  0.00  0.00    +0.000 HD
ENDBRANCH  14  15
ENDBRANCH  13  14
ENDBRANCH   6  13
TORSDOF 4
ENDMDL
MODEL 4
REMARK VINA RESULT:      -6.0      1.846      2.150
REMARK  Name = 
REMARK  5 active torsions:
REMARK  status: ('A' for Active; 'I' for Inactive)
REMARK    1  A    between atoms: C_1  and  O_2
REMARK    2  A    between atoms: O_2  and  C_3
REMARK    3  A    between atoms: C_8  and  C_9
REMARK    4  A    between atoms: C_9  and  C_10
REMARK    5  A    between atoms: C_10  and  N_11
REMARK                            x       y       z     vdW  Elec       q    Type
REMARK                         _______ _______ _______ _____ _____    ______ ____
ROOT
ATOM      1  C   UNL     1       5.198   4.407  16.495  0.00  0.00    +0.000 A 
ATOM      2  C   UNL     1       5.134   5.804  16.421  0.00  0.00    +0.000 A 
ATOM      3  C   UNL     1       4.217   6.528  17.184  0.00  0.00    +0.000 A 
ATOM      4  C   UNL     1       3.328   5.876  18.045  0.00  0.00    +0.000 A 
ATOM      5  C   UNL     1       3.354   4.470  18.130  0.00  0.00    +0.000 A 
ATOM      6  C   UNL     1       2.604   3.498  18.874  0.00  0.00    +0.000 A 
ATOM      7  C   UNL     1       3.093   2.258  18.514  0.00  0.00    +0.000 A 
ATOM      8  N   UNL     1       4.093   2.437  17.599  0.00  0.00    +0.000 N 
ATOM      9  C   UNL     1       4.279   3.778  17.349  0.00  0.00    +0.000 A 
ATOM     10  H   UNL     1       4.629   1.707  17.151  0.00  0.00    +0.000 HD
ENDROOT
BRANCH   1  12
ATOM     11  C   UNL     1       6.197   3.972  14.403  0.00  0.00    +0.000 C 
ATOM     12  O   UNL     1       6.052   3.618  15.776  0.00  0.00    +0.000 OA
ENDBRANCH   1  12
BRANCH   6  13
ATOM     13  C   UNL     1       1.493   3.759  19.847  0.00  0.00    +0.000 C 
BRANCH  13  14
ATOM     14  C   UNL     1       2.005   3.948  21.280  0.00  0.00    +0.000 C 
BRANCH  14  15
ATOM     15  N   UNL     1       1.916   2.708  22.054  0.00  0.00    +0.000 NA
ATOM     16  H   UNL     1       2.408   2.821  22.939  0.00  0.00    +0.000 HD
ATOM     17  H   UNL     1       2.402   1.966  21.551  0.00  0.00    +0.000 HD
ENDBRANCH  14  15
ENDBRANCH  13  14
ENDBRANCH   6  13
TORSDOF 4
ENDMDL
MODEL 5
REMARK VINA RESULT:      -5.9      1.051      1.065
REMARK  Name = 
REMARK  5 active torsions:
REMARK  status: ('A' for Active; 'I' for Inactive)
REMARK    1  A    between atoms: C_1  and  O_2
REMARK    2  A    between atoms: O_2  and  C_3
REMARK    3  A    between atoms: C_8  and  C_9
REMARK    4  A    between atoms: C_9  and  C_10
REMARK    5  A    between atoms: C_10  and  N_11
REMARK                            x       y       z     vdW  Elec       q    Type
REMARK                         _______ _______ _______ _____ _____    ______ ____
ROOT
ATOM      1  C   UNL     1       5.430   5.324  18.174  0.00  0.00    +0.000 A 
ATOM      2  C   UNL     1       4.643   6.401  17.750  0.00  0.00    +0.000 A 
ATOM      3  C   UNL     1       3.254   6.377  17.882  0.00  0.00    +0.000 A 
ATOM      4  C   UNL     1       2.605   5.270  18.439  0.00  0.00    +0.000 A 
ATOM      5  C   UNL     1       3.367   4.162  18.858  0.00  0.00    +0.000 A 
ATOM      6  C   UNL     1       3.047   2.892  19.444  0.00  0.00    +0.000 A 
ATOM      7  C   UNL     1       4.242   2.222  19.618  0.00  0.00    +0.000 A 
ATOM      8  N   UNL     1       5.255   3.023  19.172  0.00  0.00    +0.000 N 
ATOM      9  C   UNL     1       4.752   4.217  18.707  0.00  0.00    +0.000 A 
ATOM     10  H   UNL     1       6.239   2.792  19.166  0.00  0.00    +0.000 HD
ENDROOT
BRANCH   1  12
ATOM     11  C   UNL     1       7.283   4.691  16.858  0.00  0.00    +0.000 C 
ATOM     12  O   UNL     1       6.792   5.255  18.071  0.00  0.00    +0.000 OA
ENDBRANCH   1  12
BRANCH   6  13
ATOM     13  C   UNL     1       1.685   2.370  19.793  0.00  0.00    +0.000 C 
BRANCH  13  14
ATOM     14  C   UNL     1       1.096   3.056  21.032  0.00  0.00    +0.000 C 
BRANCH  14  15
ATOM     15  N   UNL     1       2.050   3.078  22.143  0.00  0.00    +0.000 NA
ATOM     16  H   UNL     1       2.445   4.013  22.236  0.00  0.00    +0.000 HD
ATOM     17  H   UNL     1       2.831   2.459  21.923  0.00  0.00    +0.000 HD
ENDBRANCH  14  15
ENDBRANCH  13  14
ENDBRANCH   6  13
TORSDOF 4
ENDMDL
MODEL 6
REMARK VINA RESULT:      -5.8      1.098      1.142
REMARK  Name = 
REMARK  5 active torsions:
REMARK  status: ('A' for Active; 'I' for Inactive)
REMARK    1  A    between atoms: C_1  and  O_2
REMARK    2  A    between atoms: O_2  and  C_3
REMARK    3  A    between atoms: C_8  and  C_9
REMARK    4  A    between atoms: C_9  and  C_10
REMARK    5  A    between atoms: C_10  and  N_11
REMARK                            x       y       z     vdW  Elec       q    Type
REMARK                         _______ _______ _______ _____ _____    ______ ____
ROOT
ATOM      1  C   UNL     1       5.693   4.960  18.376  0.00  0.00    +0.000 A 
ATOM      2  C   UNL     1       5.090   6.074  17.779  0.00  0.00    +0.000 A 
ATOM      3  C   UNL     1       3.717   6.297  17.888  0.00  0.00    +0.000 A 
ATOM      4  C   UNL     1       2.900   5.409  18.595  0.00  0.00    +0.000 A 
ATOM      5  C   UNL     1       3.472   4.268  19.191  0.00  0.00    +0.000 A 
ATOM      6  C   UNL     1       2.952   3.172  19.958  0.00  0.00    +0.000 A 
ATOM      7  C   UNL     1       4.023   2.351  20.253  0.00  0.00    +0.000 A 
ATOM      8  N   UNL     1       5.150   2.898  19.708  0.00  0.00    +0.000 N 
ATOM      9  C   UNL     1       4.846   4.073  19.058  0.00  0.00    +0.000 A 
ATOM     10  H   UNL     1       6.083   2.511  19.755  0.00  0.00    +0.000 HD
ENDROOT
BRANCH   1  12
ATOM     11  C   UNL     1       7.894   5.580  18.956  0.00  0.00    +0.000 C 
ATOM     12  O   UNL     1       7.025   4.654  18.309  0.00  0.00    +0.000 OA
ENDBRANCH   1  12
BRANCH   6  13
ATOM     13  C   UNL     1       1.526   2.939  20.358  0.00  0.00    +0.000 C 
BRANCH  13  14
ATOM     14  C   UNL     1       0.612   2.703  19.149  0.00  0.00    +0.000 C 
BRANCH  14  15
ATOM     15  N   UNL     1       1.172   1.707  18.234  0.00  0.00    +0.000 NA
ATOM     16  H   UNL     1       0.971   0.770  18.583  0.00  0.00    +0.000 HD
ATOM     17  H   UNL     1       2.188   1.796  18.226  0.00  0.00    +0.000 HD
ENDBRANCH  14  15
ENDBRANCH  13  14
ENDBRANCH   6  13
TORSDOF 4
ENDMDL
MODEL 7
REMARK VINA RESULT:      -5.7      2.281      3.001
REMARK  Name = 
REMARK  5 active torsions:
REMARK  status: ('A' for Active; 'I' for Inactive)
REMARK    1  A    between atoms: C_1  and  O_2
REMARK    2  A    between atoms: O_2  and  C_3
REMARK    3  A    between atoms: C_8  and  C_9
REMARK    4  A    between atoms: C_9  and  C_10
REMARK    5  A    between atoms: C_10  and  N_11
REMARK                            x       y       z     vdW  Elec       q    Type
REMARK                         _______ _______ _______ _____ _____    ______ ____
ROOT
ATOM      1  C   UNL     1       6.110   6.204  16.591  0.00  0.00    +0.000 A 
ATOM      2  C   UNL     1       6.891   5.415  15.737  0.00  0.00    +0.000 A 
ATOM      3  C   UNL     1       6.514   4.112  15.410  0.00  0.00    +0.000 A 
ATOM      4  C   UNL     1       5.345   3.551  15.934  0.00  0.00    +0.000 A 
ATOM      5  C   UNL     1       4.546   4.310  16.811  0.00  0.00    +0.000 A 
ATOM      6  C   UNL     1       3.326   4.061  17.523  0.00  0.00    +0.000 A 
ATOM      7  C   UNL     1       3.043   5.206  18.241  0.00  0.00    +0.000 A 
ATOM      8  N   UNL     1       4.026   6.124  17.994  0.00  0.00    +0.000 N 
ATOM      9  C   UNL     1       4.955   5.608  17.120  0.00  0.00    +0.000 A 
ATOM     10  H   UNL     1       4.088   7.052  18.390  0.00  0.00    +0.000 HD
ENDROOT
BRANCH   1  12
ATOM     11  C   UNL     1       7.676   7.648  17.605  0.00  0.00    +0.000 C 
ATOM     12  O   UNL     1       6.408   7.482  16.975  0.00  0.00    +0.000 OA
ENDBRANCH   1  12
BRANCH   6  13
ATOM     13  C   UNL     1       2.509   2.803  17.513  0.00  0.00    +0.000 C 
BRANCH  13  14
ATOM     14  C   UNL     1       2.870   1.864  18.670  0.00  0.00    +0.000 C 
BRANCH  14  15
ATOM     15  N   UNL     1       3.927   0.923  18.294  0.00  0.00    +0.000 NA
ATOM     16  H   UNL     1       4.825   1.263  18.637  0.00  0.00    +0.000 HD
ATOM     17  H   UNL     1       4.003   0.897  17.277  0.00  0.00    +0.000 HD
ENDBRANCH  14  15
ENDBRANCH  13  14
ENDBRANCH   6  13
TORSDOF 4
ENDMDL
MODEL 8
REMARK VINA RESULT:      -5.7      1.786      1.861
REMARK  Name = 
REMARK  5 active torsions:
REMARK  status: ('A' for Active; 'I' for Inactive)
REMARK    1  A    between atoms: C_1  and  O_2
REMARK    2  A    between atoms: O_2  and  C_3
REMARK    3  A    between atoms: C_8  and  C_9
REMARK    4  A    between atoms: C_9  and  C_10
REMARK    5  A    between atoms: C_10  and  N_11
REMARK                            x       y       z     vdW  Elec       q    Type
REMARK                         _______ _______ _______ _____ _____    ______ ____
ROOT
ATOM      1  C   UNL     1       5.065   4.578  16.898  0.00  0.00    +0.000 A 
ATOM      2  C   UNL     1       4.724   5.920  16.690  0.00  0.00    +0.000 A 
ATOM      3  C   UNL     1       3.901   6.603  17.587  0.00  0.00    +0.000 A 
ATOM      4  C   UNL     1       3.387   5.963  18.719  0.00  0.00    +0.000 A 
ATOM      5  C   UNL     1       3.696   4.608  18.947  0.00  0.00    +0.000 A 
ATOM      6  C   UNL     1       3.346   3.659  19.966  0.00  0.00    +0.000 A 
ATOM      7  C   UNL     1       3.957   2.468  19.626  0.00  0.00    +0.000 A 
ATOM      8  N   UNL     1       4.653   2.656  18.464  0.00  0.00    +0.000 N 
ATOM      9  C   UNL     1       4.517   3.954  18.029  0.00  0.00    +0.000 A 
ATOM     10  H   UNL     1       5.191   1.956  17.973  0.00  0.00    +0.000 HD
ENDROOT
BRANCH   1  12
ATOM     11  C   UNL     1       6.966   4.513  15.502  0.00  0.00    +0.000 C 
ATOM     12  O   UNL     1       5.852   3.828  16.068  0.00  0.00    +0.000 OA
ENDBRANCH   1  12
BRANCH   6  13
ATOM     13  C   UNL     1       2.477   3.893  21.165  0.00  0.00    +0.000 C 
BRANCH  13  14
ATOM     14  C   UNL     1       1.302   2.910  21.234  0.00  0.00    +0.000 C 
BRANCH  14  15
ATOM     15  N   UNL     1       0.393   3.071  20.098  0.00  0.00    +0.000 NA
ATOM     16  H   UNL     1      -0.294   2.318  20.100  0.00  0.00    +0.000 HD
ATOM     17  H   UNL     1       0.922   2.971  19.232  0.00  0.00    +0.000 HD
ENDBRANCH  14  15
ENDBRANCH  13  14
ENDBRANCH   6  13
TORSDOF 4
ENDMDL
MODEL 9
REMARK VINA RESULT:      -5.7      2.657      4.832
REMARK  Name = 
REMARK  5 active torsions:
REMARK  status: ('A' for Active; 'I' for Inactive)
REMARK    1  A    between atoms: C_1  and  O_2
REMARK    2  A    between atoms: O_2  and  C_3
REMARK    3  A    between atoms: C_8  and  C_9
REMARK    4  A    between atoms: C_9  and  C_10
REMARK    5  A    between atoms: C_10  and  N_11
REMARK                            x       y       z     vdW  Elec       q    Type
REMARK                         _______ _______ _______ _____ _____    ______ ____
ROOT
ATOM      1  C   UNL     1       2.827   4.172  19.971  0.00  0.00    +0.000 A 
ATOM      2  C   UNL     1       2.228   5.379  20.352  0.00  0.00    +0.000 A 
ATOM      3  C   UNL     1       2.405   6.543  19.602  0.00  0.00    +0.000 A 
ATOM      4  C   UNL     1       3.193   6.538  18.447  0.00  0.00    +0.000 A 
ATOM      5  C   UNL     1       3.826   5.345  18.046  0.00  0.00    +0.000 A 
ATOM      6  C   UNL     1       4.689   4.987  16.957  0.00  0.00    +0.000 A 
ATOM      7  C   UNL     1       4.993   3.649  17.115  0.00  0.00    +0.000 A 
ATOM      8  N   UNL     1       4.357   3.191  18.235  0.00  0.00    +0.000 N 
ATOM      9  C   UNL     1       3.632   4.202  18.821  0.00  0.00    +0.000 A 
ATOM     10  H   UNL     1       4.403   2.251  18.603  0.00  0.00    +0.000 HD
ENDROOT
BRANCH   1  12
ATOM     11  C   UNL     1       1.528   2.835  21.415  0.00  0.00    +0.000 C 
ATOM     12  O   UNL     1       2.720   2.991  20.650  0.00  0.00    +0.000 OA
ENDBRANCH   1  12
BRANCH   6  13
ATOM     13  C   UNL     1       5.186   5.881  15.861  0.00  0.00    +0.000 C 
BRANCH  13  14
ATOM     14  C   UNL     1       6.036   5.125  14.832  0.00  0.00    +0.000 C 
BRANCH  14  15
ATOM     15  N   UNL     1       7.464   5.390  15.011  0.00  0.00    +0.000 NA
ATOM     16  H   UNL     1       7.970   4.507  15.077  0.00  0.00    +0.000 HD
ATOM     17  H   UNL     1       7.606   5.866  15.901  0.00  0.00    +0.000 HD
ENDBRANCH  14  15
ENDBRANCH  13  14
ENDBRANCH   6  13
TORSDOF 4
ENDMDL
