MODEL 1
REMARK VINA RESULT:      -7.1      0.000      0.000
REMARK  Name = 
REMARK  7 active torsions:
REMARK  status: ('A' for Active; 'I' for Inactive)
REMARK    1  A    between atoms: C_1  and  N_2
REMARK    2  A    between atoms: N_2  and  C_3
REMARK    3  A    between atoms: N_2  and  C_4
REMARK    4  A    between atoms: C_4  and  C_5
REMARK    5  A    between atoms: C_5  and  C_6
REMARK    6  A    between atoms: C_6  and  N_7
REMARK    7  A    between atoms: C_18  and  N_19
REMARK                            x       y       z     vdW  Elec       q    Type
REMARK                         _______ _______ _______ _____ _____    ______ ____
ROOT
ATOM      1  N   UNL     1       3.002   6.257  18.501  0.00  0.00    +0.000 N 
ATOM      2  C   UNL     1       2.341   4.999  18.625  0.00  0.00    +0.000 A 
ATOM      3  C   UNL     1       2.448   4.068  17.565  0.00  0.00    +0.000 A 
ATOM      4  C   UNL     1       1.789   2.843  17.610  0.00  0.00    +0.000 A 
ATOM      5  C   UNL     1       1.014   2.514  18.713  0.00  0.00    +0.000 A 
ATOM      6  C   UNL     1       0.892   3.410  19.773  0.00  0.00    +0.000 A 
ATOM      7  C   UNL     1       1.542   4.661  19.755  0.00  0.00    +0.000 A 
ATOM      8  C   UNL     1       1.344   5.514  20.999  0.00  0.00    +0.000 C 
ATOM      9  C   UNL     1       2.100   6.839  21.130  0.00  0.00    +0.000 C 
ATOM     10  C   UNL     1       1.788   7.765  19.999  0.00  0.00    +0.000 A 
ATOM     11  C   UNL     1       1.071   8.950  20.223  0.00  0.00    +0.000 A 
ATOM     12  C   UNL     1       0.786   9.829  19.164  0.00  0.00    +0.000 A 
ATOM     13  C   UNL     1       1.257   9.509  17.876  0.00  0.00    +0.000 A 
ATOM     14  C   UNL     1       2.000   8.342  17.660  0.00  0.00    +0.000 A 
ATOM     15  C   UNL     1       2.261   7.459  18.719  0.00  0.00    +0.000 A 
ENDROOT
BRANCH  12  16
ATOM     16  N   UNL     1       0.025  11.017  19.389  0.00  0.00    +0.000 N 
ATOM     17  O   UNL     1       0.069  11.929  18.616  0.00  0.00    +0.000 OA
ATOM     18  O   UNL     1      -0.724  11.135  20.469  0.00  0.00    +0.000 OA
ENDBRANCH  12  16
BRANCH   1  19
ATOM     19  C   UNL     1       4.381   6.336  18.017  0.00  0.00    +0.000 C 
BRANCH  19  20
ATOM     20  C   UNL     1       5.340   5.770  19.086  0.00  0.00    +0.000 C 
BRANCH  20  21
ATOM     21  C   UNL     1       5.995   4.407  18.743  0.00  0.00    +0.000 C 
BRANCH  21  23
ATOM     22  C   UNL     1       7.533   4.617  16.858  0.00  0.00    +0.000 C 
ATOM     23  N   UNL     1       7.409   4.514  18.321  0.00  0.00    +0.000 NA
ATOM     24  C   UNL     1       8.020   5.703  18.946  0.00  0.00    +0.000 C 
ENDBRANCH  21  23
ENDBRANCH  20  21
ENDBRANCH  19  20
ENDBRANCH   1  19
TORSDOF 5
ENDMDL
MODEL 2
REMARK VINA RESULT:      -7.0      0.972      1.360
REMARK  Name = 
REMARK  7 active torsions:
REMARK  status: ('A' for Active; 'I' for Inactive)
REMARK    1  A    between atoms: C_1  and  N_2
REMARK    2  A    between atoms: N_2  and  C_3
REMARK    3  A    between atoms: N_2  and  C_4
REMARK    4  A    between atoms: C_4  and  C_5
REMARK    5  A    between atoms: C_5  and  C_6
REMARK    6  A    between atoms: C_6  and  N_7
REMARK    7  A    between atoms: C_18  and  N_19
REMARK                            x       y       z     vdW  Elec       q    Type
REMARK                         _______ _______ _______ _____ _____    ______ ____
ROOT
ATOM      1  N   UNL     1       3.410   6.043  18.660  0.00  0.00    +0.000 N 
ATOM      2  C   UNL     1       2.732   4.787  18.632  0.00  0.00    +0.000 A 
ATOM      3  C   UNL     1       3.041   3.871  17.599  0.00  0.00    +0.000 A 
ATOM      4  C   UNL     1       2.382   2.650  17.495  0.00  0.00    +0.000 A 
ATOM      5  C   UNL     1       1.405   2.310  18.420  0.00  0.00    +0.000 A 
ATOM      6  C   UNL     1       1.081   3.191  19.449  0.00  0.00    +0.000 A 
ATOM      7  C   UNL     1       1.726   4.437  19.579  0.00  0.00    +0.000 A 
ATOM      8  C   UNL     1       1.292   5.273  20.773  0.00  0.00    +0.000 C 
ATOM      9  C   UNL     1       2.013   6.591  21.070  0.00  0.00    +0.000 C 
ATOM     10  C   UNL     1       1.932   7.536  19.915  0.00  0.00    +0.000 A 
ATOM     11  C   UNL     1       1.188   8.723  20.013  0.00  0.00    +0.000 A 
ATOM     12  C   UNL     1       1.120   9.618  18.932  0.00  0.00    +0.000 A 
ATOM     13  C   UNL     1       1.832   9.314  17.757  0.00  0.00    +0.000 A 
ATOM     14  C   UNL     1       2.600   8.146  17.672  0.00  0.00    +0.000 A 
ATOM     15  C   UNL     1       2.644   7.246  18.748  0.00  0.00    +0.000 A 
ENDROOT
BRANCH  12  16
ATOM     16  N   UNL     1       0.334  10.809  19.023  0.00  0.00    +0.000 N 
ATOM     17  O   UNL     1      -0.729  10.885  18.479  0.00  0.00    +0.000 OA
ATOM     18  O   UNL     1       0.780  11.852  19.697  0.00  0.00    +0.000 OA
ENDBRANCH  12  16
BRANCH   1  19
ATOM     19  C   UNL     1       4.857   6.120  18.456  0.00  0.00    +0.000 C 
BRANCH  19  20
ATOM     20  C   UNL     1       5.164   6.202  16.945  0.00  0.00    +0.000 C 
BRANCH  20  21
ATOM     21  C   UNL     1       6.653   6.431  16.576  0.00  0.00    +0.000 C 
BRANCH  21  23
ATOM     22  C   UNL     1       7.723   4.478  17.579  0.00  0.00    +0.000 C 
ATOM     23  N   UNL     1       7.405   5.181  16.326  0.00  0.00    +0.000 NA
ATOM     24  C   UNL     1       6.608   4.294  15.458  0.00  0.00    +0.000 C 
ENDBRANCH  21  23
ENDBRANCH  20  21
ENDBRANCH  19  20
ENDBRANCH   1  19
TORSDOF 5
ENDMDL
MODEL 3
REMARK VINA RESULT:      -6.9      1.426      1.727
REMARK  Name = 
REMARK  7 active torsions:
REMARK  status: ('A' for Active; 'I' for Inactive)
REMARK    1  A    between atoms: C_1  and  N_2
REMARK    2  A    between atoms: N_2  and  C_3
REMARK    3  A    between atoms: N_2  and  C_4
REMARK    4  A    between atoms: C_4  and  C_5
REMARK    5  A    between atoms: C_5  and  C_6
REMARK    6  A    between atoms: C_6  and  N_7
REMARK    7  A    between atoms: C_18  and  N_19
REMARK                            x       y       z     vdW  Elec       q    Type
REMARK                         _______ _______ _______ _____ _____    ______ ____
ROOT
ATOM      1  N   UNL     1       3.801   5.455  19.008  0.00  0.00    +0.000 N 
ATOM      2  C   UNL     1       3.113   4.216  18.837  0.00  0.00    +0.000 A 
ATOM      3  C   UNL     1       3.627   3.276  17.914  0.00  0.00    +0.000 A 
ATOM      4  C   UNL     1       2.976   2.070  17.673  0.00  0.00    +0.000 A 
ATOM      5  C   UNL     1       1.801   1.771  18.349  0.00  0.00    +0.000 A 
ATOM      6  C   UNL     1       1.272   2.677  19.265  0.00  0.00    +0.000 A 
ATOM      7  C   UNL     1       1.905   3.909  19.528  0.00  0.00    +0.000 A 
ATOM      8  C   UNL     1       1.229   4.775  20.579  0.00  0.00    +0.000 C 
ATOM      9  C   UNL     1       1.898   6.080  21.022  0.00  0.00    +0.000 C 
ATOM     10  C   UNL     1       2.114   7.007  19.870  0.00  0.00    +0.000 A 
ATOM     11  C   UNL     1       1.403   8.213  19.779  0.00  0.00    +0.000 A 
ATOM     12  C   UNL     1       1.612   9.092  18.702  0.00  0.00    +0.000 A 
ATOM     13  C   UNL     1       2.569   8.750  17.728  0.00  0.00    +0.000 A 
ATOM     14  C   UNL     1       3.302   7.561  17.836  0.00  0.00    +0.000 A 
ATOM     15  C   UNL     1       3.070   6.679  18.903  0.00  0.00    +0.000 A 
ENDROOT
BRANCH  12  16
ATOM     16  N   UNL     1       0.861  10.303  18.595  0.00  0.00    +0.000 N 
ATOM     17  O   UNL     1       1.412  11.363  18.546  0.00  0.00    +0.000 OA
ATOM     18  O   UNL     1      -0.458  10.269  18.569  0.00  0.00    +0.000 OA
ENDBRANCH  12  16
BRANCH   1  19
ATOM     19  C   UNL     1       5.257   5.492  19.146  0.00  0.00    +0.000 C 
BRANCH  19  20
ATOM     20  C   UNL     1       5.886   6.061  17.855  0.00  0.00    +0.000 C 
BRANCH  20  21
ATOM     21  C   UNL     1       6.787   5.080  17.061  0.00  0.00    +0.000 C 
BRANCH  21  23
ATOM     22  C   UNL     1       6.195   3.697  15.137  0.00  0.00    +0.000 C 
ATOM     23  N   UNL     1       6.506   5.056  15.608  0.00  0.00    +0.000 NA
ATOM     24  C   UNL     1       5.368   5.948  15.312  0.00  0.00    +0.000 C 
ENDBRANCH  21  23
ENDBRANCH  20  21
ENDBRANCH  19  20
ENDBRANCH   1  19
TORSDOF 5
ENDMDL
MODEL 4
REMARK VINA RESULT:      -6.9      1.449      1.723
REMARK  Name = 
REMARK  7 active torsions:
REMARK  status: ('A' for Active; 'I' for Inactive)
REMARK    1  A    between atoms: C_1  and  N_2
REMARK    2  A    between atoms: N_2  and  C_3
REMARK    3  A    between atoms: N_2  and  C_4
REMARK    4  A    between atoms: C_4  and  C_5
REMARK    5  A    between atoms: C_5  and  C_6
REMARK    6  A    between atoms: C_6  and  N_7
REMARK    7  A    between atoms: C_18  and  N_19
REMARK                            x       y       z     vdW  Elec       q    Type
REMARK                         _______ _______ _______ _____ _____    ______ ____
ROOT
ATOM      1  N   UNL     1       3.886   5.155  19.139  0.00  0.00    +0.000 N 
ATOM      2  C   UNL     1       3.140   3.946  18.995  0.00  0.00    +0.000 A 
ATOM      3  C   UNL     1       3.652   2.929  18.157  0.00  0.00    +0.000 A 
ATOM      4  C   UNL     1       2.948   1.747  17.943  0.00  0.00    +0.000 A 
ATOM      5  C   UNL     1       1.723   1.549  18.564  0.00  0.00    +0.000 A 
ATOM      6  C   UNL     1       1.195   2.532  19.397  0.00  0.00    +0.000 A 
ATOM      7  C   UNL     1       1.880   3.742  19.629  0.00  0.00    +0.000 A 
ATOM      8  C   UNL     1       1.196   4.702  20.591  0.00  0.00    +0.000 C 
ATOM      9  C   UNL     1       1.911   5.993  21.001  0.00  0.00    +0.000 C 
ATOM     10  C   UNL     1       2.243   6.840  19.814  0.00  0.00    +0.000 A 
ATOM     11  C   UNL     1       1.606   8.074  19.617  0.00  0.00    +0.000 A 
ATOM     12  C   UNL     1       1.924   8.877  18.509  0.00  0.00    +0.000 A 
ATOM     13  C   UNL     1       2.913   8.430  17.612  0.00  0.00    +0.000 A 
ATOM     14  C   UNL     1       3.571   7.213  17.828  0.00  0.00    +0.000 A 
ATOM     15  C   UNL     1       3.232   6.407  18.925  0.00  0.00    +0.000 A 
ENDROOT
BRANCH  12  16
ATOM     16  N   UNL     1       1.249  10.118  18.292  0.00  0.00    +0.000 N 
ATOM     17  O   UNL     1       1.854  11.150  18.270  0.00  0.00    +0.000 OA
ATOM     18  O   UNL     1      -0.061  10.146  18.132  0.00  0.00    +0.000 OA
ENDBRANCH  12  16
BRANCH   1  19
ATOM     19  C   UNL     1       5.332   5.123  19.360  0.00  0.00    +0.000 C 
BRANCH  19  20
ATOM     20  C   UNL     1       6.035   4.557  18.107  0.00  0.00    +0.000 C 
BRANCH  20  21
ATOM     21  C   UNL     1       7.431   5.157  17.795  0.00  0.00    +0.000 C 
BRANCH  21  23
ATOM     22  C   UNL     1       6.301   5.935  15.774  0.00  0.00    +0.000 C 
ATOM     23  N   UNL     1       7.420   6.156  16.703  0.00  0.00    +0.000 NA
ATOM     24  C   UNL     1       7.316   7.511  17.278  0.00  0.00    +0.000 C 
ENDBRANCH  21  23
ENDBRANCH  20  21
ENDBRANCH  19  20
ENDBRANCH   1  19
TORSDOF 5
ENDMDL
MODEL 5
REMARK VINA RESULT:      -6.9      3.546      6.353
REMARK  Name = 
REMARK  7 active torsions:
REMARK  status: ('A' for Active; 'I' for Inactive)
REMARK    1  A    between atoms: C_1  and  N_2
REMARK    2  A    between atoms: N_2  and  C_3
REMARK    3  A    between atoms: N_2  and  C_4
REMARK    4  A    between atoms: C_4  and  C_5
REMARK    5  A    between atoms: C_5  and  C_6
REMARK    6  A    between atoms: C_6  and  N_7
REMARK    7  A    between atoms: C_18  and  N_19
REMARK                            x       y       z     vdW  Elec       q    Type
REMARK                         _______ _______ _______ _____ _____    ______ ____
ROOT
ATOM      1  N   UNL     1       2.909   5.600  19.113  0.00  0.00    +0.000 N 
ATOM      2  C   UNL     1       2.483   4.498  19.914  0.00  0.00    +0.000 A 
ATOM      3  C   UNL     1       2.518   4.630  21.322  0.00  0.00    +0.000 A 
ATOM      4  C   UNL     1       2.156   3.575  22.155  0.00  0.00    +0.000 A 
ATOM      5  C   UNL     1       1.748   2.368  21.605  0.00  0.00    +0.000 A 
ATOM      6  C   UNL     1       1.703   2.210  20.222  0.00  0.00    +0.000 A 
ATOM      7  C   UNL     1       2.067   3.257  19.352  0.00  0.00    +0.000 A 
ATOM      8  C   UNL     1       1.931   2.947  17.869  0.00  0.00    +0.000 C 
ATOM      9  C   UNL     1       2.190   4.053  16.842  0.00  0.00    +0.000 C 
ATOM     10  C   UNL     1       3.570   4.613  16.972  0.00  0.00    +0.000 A 
ATOM     11  C   UNL     1       4.522   4.409  15.962  0.00  0.00    +0.000 A 
ATOM     12  C   UNL     1       5.816   4.944  16.076  0.00  0.00    +0.000 A 
ATOM     13  C   UNL     1       6.132   5.711  17.214  0.00  0.00    +0.000 A 
ATOM     14  C   UNL     1       5.171   5.942  18.206  0.00  0.00    +0.000 A 
ATOM     15  C   UNL     1       3.888   5.385  18.094  0.00  0.00    +0.000 A 
ENDROOT
BRANCH  12  16
ATOM     16  N   UNL     1       6.794   4.704  15.062  0.00  0.00    +0.000 N 
ATOM     17  O   UNL     1       7.775   5.385  14.983  0.00  0.00    +0.000 OA
ATOM     18  O   UNL     1       6.619   3.736  14.182  0.00  0.00    +0.000 OA
ENDBRANCH  12  16
BRANCH   1  19
ATOM     19  C   UNL     1       2.467   6.962  19.414  0.00  0.00    +0.000 C 
BRANCH  19  20
ATOM     20  C   UNL     1       2.136   7.703  18.100  0.00  0.00    +0.000 C 
BRANCH  20  21
ATOM     21  C   UNL     1       1.800   9.210  18.247  0.00  0.00    +0.000 C 
BRANCH  21  23
ATOM     22  C   UNL     1       0.940  10.259  20.277  0.00  0.00    +0.000 C 
ATOM     23  N   UNL     1       0.605   9.477  19.077  0.00  0.00    +0.000 NA
ATOM     24  C   UNL     1      -0.393  10.213  18.277  0.00  0.00    +0.000 C 
ENDBRANCH  21  23
ENDBRANCH  20  21
ENDBRANCH  19  20
ENDBRANCH   1  19
TORSDOF 5
ENDMDL
MODEL 6
REMARK VINA RESULT:      -6.7      0.808      1.123
REMARK  Name = 
REMARK  7 active torsions:
REMARK  status: ('A' for Active; 'I' for Inactive)
REMARK    1  A    between atoms: C_1  and  N_2
REMARK    2  A    between atoms: N_2  and  C_3
REMARK    3  A    between atoms: N_2  and  C_4
REMARK    4  A    between atoms: C_4  and  C_5
REMARK    5  A    between atoms: C_5  and  C_6
REMARK    6  A    between atoms: C_6  and  N_7
REMARK    7  A    between atoms: C_18  and  N_19
REMARK                            x       y       z     vdW  Elec       q    Type
REMARK                         _______ _______ _______ _____ _____    ______ ____
ROOT
ATOM      1  N   UNL     1       3.131   6.268  18.469  0.00  0.00    +0.000 N 
ATOM      2  C   UNL     1       2.498   4.993  18.585  0.00  0.00    +0.000 A 
ATOM      3  C   UNL     1       2.634   4.069  17.523  0.00  0.00    +0.000 A 
ATOM      4  C   UNL     1       2.005   2.828  17.560  0.00  0.00    +0.000 A 
ATOM      5  C   UNL     1       1.230   2.478  18.657  0.00  0.00    +0.000 A 
ATOM      6  C   UNL     1       1.079   3.367  19.718  0.00  0.00    +0.000 A 
ATOM      7  C   UNL     1       1.699   4.633  19.709  0.00  0.00    +0.000 A 
ATOM      8  C   UNL     1       1.473   5.477  20.953  0.00  0.00    +0.000 C 
ATOM      9  C   UNL     1       2.196   6.819  21.094  0.00  0.00    +0.000 C 
ATOM     10  C   UNL     1       1.871   7.742  19.964  0.00  0.00    +0.000 A 
ATOM     11  C   UNL     1       1.124   8.909  20.186  0.00  0.00    +0.000 A 
ATOM     12  C   UNL     1       0.826   9.784  19.127  0.00  0.00    +0.000 A 
ATOM     13  C   UNL     1       1.313   9.479  17.842  0.00  0.00    +0.000 A 
ATOM     14  C   UNL     1       2.085   8.331  17.627  0.00  0.00    +0.000 A 
ATOM     15  C   UNL     1       2.359   7.451  18.686  0.00  0.00    +0.000 A 
ENDROOT
BRANCH  12  16
ATOM     16  N   UNL     1       0.036  10.953  19.351  0.00  0.00    +0.000 N 
ATOM     17  O   UNL     1       0.420  12.029  18.996  0.00  0.00    +0.000 OA
ATOM     18  O   UNL     1      -1.125  10.865  19.971  0.00  0.00    +0.000 OA
ENDBRANCH  12  16
BRANCH   1  19
ATOM     19  C   UNL     1       4.510   6.381  17.995  0.00  0.00    +0.000 C 
BRANCH  19  20
ATOM     20  C   UNL     1       5.392   5.333  18.707  0.00  0.00    +0.000 C 
BRANCH  20  21
ATOM     21  C   UNL     1       6.403   4.582  17.803  0.00  0.00    +0.000 C 
BRANCH  21  23
ATOM     22  C   UNL     1       7.331   5.251  15.645  0.00  0.00    +0.000 C 
ATOM     23  N   UNL     1       6.145   4.747  16.355  0.00  0.00    +0.000 NA
ATOM     24  C   UNL     1       5.747   3.449  15.777  0.00  0.00    +0.000 C 
ENDBRANCH  21  23
ENDBRANCH  20  21
ENDBRANCH  19  20
ENDBRANCH   1  19
TORSDOF 5
ENDMDL
MODEL 7
REMARK VINA RESULT:      -6.5      1.684      3.879
REMARK  Name = 
REMARK  7 active torsions:
REMARK  status: ('A' for Active; 'I' for Inactive)
REMARK    1  A    between atoms: C_1  and  N_2
REMARK    2  A    between atoms: N_2  and  C_3
REMARK    3  A    between atoms: N_2  and  C_4
REMARK    4  A    between atoms: C_4  and  C_5
REMARK    5  A    between atoms: C_5  and  C_6
REMARK    6  A    between atoms: C_6  and  N_7
REMARK    7  A    between atoms: C_18  and  N_19
REMARK                            x       y       z     vdW  Elec       q    Type
REMARK                         _______ _______ _______ _____ _____    ______ ____
ROOT
ATOM      1  N   UNL     1       2.357   6.199  19.706  0.00  0.00    +0.000 N 
ATOM      2  C   UNL     1       3.642   6.097  19.093  0.00  0.00    +0.000 A 
ATOM      3  C   UNL     1       4.577   5.178  19.625  0.00  0.00    +0.000 A 
ATOM      4  C   UNL     1       5.860   5.066  19.097  0.00  0.00    +0.000 A 
ATOM      5  C   UNL     1       6.240   5.862  18.026  0.00  0.00    +0.000 A 
ATOM      6  C   UNL     1       5.340   6.774  17.480  0.00  0.00    +0.000 A 
ATOM      7  C   UNL     1       4.035   6.916  17.995  0.00  0.00    +0.000 A 
ATOM      8  C   UNL     1       3.157   7.926  17.272  0.00  0.00    +0.000 C 
ATOM      9  C   UNL     1       1.688   8.071  17.678  0.00  0.00    +0.000 C 
ATOM     10  C   UNL     1       1.548   8.434  19.122  0.00  0.00    +0.000 A 
ATOM     11  C   UNL     1       1.058   9.694  19.498  0.00  0.00    +0.000 A 
ATOM     12  C   UNL     1       0.915  10.034  20.854  0.00  0.00    +0.000 A 
ATOM     13  C   UNL     1       1.251   9.075  21.829  0.00  0.00    +0.000 A 
ATOM     14  C   UNL     1       1.710   7.807  21.453  0.00  0.00    +0.000 A 
ATOM     15  C   UNL     1       1.870   7.484  20.096  0.00  0.00    +0.000 A 
ENDROOT
BRANCH  12  16
ATOM     16  N   UNL     1       0.448  11.330  21.234  0.00  0.00    +0.000 N 
ATOM     17  O   UNL     1       0.573  12.266  20.499  0.00  0.00    +0.000 OA
ATOM     18  O   UNL     1      -0.114  11.517  22.413  0.00  0.00    +0.000 OA
ENDBRANCH  12  16
BRANCH   1  19
ATOM     19  C   UNL     1       1.601   4.999  20.067  0.00  0.00    +0.000 C 
BRANCH  19  20
ATOM     20  C   UNL     1       1.270   4.191  18.793  0.00  0.00    +0.000 C 
BRANCH  20  21
ATOM     21  C   UNL     1       1.526   2.664  18.884  0.00  0.00    +0.000 C 
BRANCH  21  23
ATOM     22  C   UNL     1       2.955   3.233  16.987  0.00  0.00    +0.000 C 
ATOM     23  N   UNL     1       2.462   2.154  17.859  0.00  0.00    +0.000 NA
ATOM     24  C   UNL     1       3.608   1.502  18.521  0.00  0.00    +0.000 C 
ENDBRANCH  21  23
ENDBRANCH  20  21
ENDBRANCH  19  20
ENDBRANCH   1  19
TORSDOF 5
ENDMDL
MODEL 8
REMARK VINA RESULT:      -6.3      3.164      6.234
REMARK  Name = 
REMARK  7 active torsions:
REMARK  status: ('A' for Active; 'I' for Inactive)
REMARK    1  A    between atoms: C_1  and  N_2
REMARK    2  A    between atoms: N_2  and  C_3
REMARK    3  A    between atoms: N_2  and  C_4
REMARK    4  A    between atoms: C_4  and  C_5
REMARK    5  A    between atoms: C_5  and  C_6
REMARK    6  A    between atoms: C_6  and  N_7
REMARK    7  A    between atoms: C_18  and  N_19
REMARK                            x       y       z     vdW  Elec       q    Type
REMARK                         _______ _______ _______ _____ _____    ______ ____
ROOT
ATOM      1  N   UNL     1       4.244   6.189  17.179  0.00  0.00    +0.000 N 
ATOM      2  C   UNL     1       5.259   5.626  16.348  0.00  0.00    +0.000 A 
ATOM      3  C   UNL     1       5.122   5.731  14.944  0.00  0.00    +0.000 A 
ATOM      4  C   UNL     1       6.057   5.164  14.083  0.00  0.00    +0.000 A 
ATOM      5  C   UNL     1       7.151   4.485  14.599  0.00  0.00    +0.000 A 
ATOM      6  C   UNL     1       7.313   4.368  15.978  0.00  0.00    +0.000 A 
ATOM      7  C   UNL     1       6.381   4.926  16.876  0.00  0.00    +0.000 A 
ATOM      8  C   UNL     1       6.713   4.747  18.350  0.00  0.00    +0.000 C 
ATOM      9  C   UNL     1       5.827   5.415  19.406  0.00  0.00    +0.000 C 
ATOM     10  C   UNL     1       4.405   4.969  19.296  0.00  0.00    +0.000 A 
ATOM     11  C   UNL     1       3.821   4.186  20.303  0.00  0.00    +0.000 A 
ATOM     12  C   UNL     1       2.481   3.774  20.207  0.00  0.00    +0.000 A 
ATOM     13  C   UNL     1       1.727   4.184  19.091  0.00  0.00    +0.000 A 
ATOM     14  C   UNL     1       2.301   4.992  18.102  0.00  0.00    +0.000 A 
ATOM     15  C   UNL     1       3.647   5.380  18.195  0.00  0.00    +0.000 A 
ENDROOT
BRANCH  12  16
ATOM     16  N   UNL     1       1.900   2.947  21.218  0.00  0.00    +0.000 N 
ATOM     17  O   UNL     1       0.725   2.725  21.226  0.00  0.00    +0.000 OA
ATOM     18  O   UNL     1       2.653   2.432  22.171  0.00  0.00    +0.000 OA
ENDBRANCH  12  16
BRANCH   1  19
ATOM     19  C   UNL     1       3.711   7.525  16.913  0.00  0.00    +0.000 C 
BRANCH  19  20
ATOM     20  C   UNL     1       2.853   7.990  18.109  0.00  0.00    +0.000 C 
BRANCH  20  21
ATOM     21  C   UNL     1       1.781   9.063  17.788  0.00  0.00    +0.000 C 
BRANCH  21  23
ATOM     22  C   UNL     1      -0.125  10.238  18.764  0.00  0.00    +0.000 C 
ATOM     23  N   UNL     1       1.246   9.750  18.984  0.00  0.00    +0.000 NA
ATOM     24  C   UNL     1       1.255   8.820  20.130  0.00  0.00    +0.000 C 
ENDBRANCH  21  23
ENDBRANCH  20  21
ENDBRANCH  19  20
ENDBRANCH   1  19
TORSDOF 5
ENDMDL
MODEL 9
REMARK VINA RESULT:      -6.2      5.698      8.038
REMARK  Name = 
REMARK  7 active torsions:
REMARK  status: ('A' for Active; 'I' for Inactive)
REMARK    1  A    between atoms: C_1  and  N_2
REMARK    2  A    between atoms: N_2  and  C_3
REMARK    3  A    between atoms: N_2  and  C_4
REMARK    4  A    between atoms: C_4  and  C_5
REMARK    5  A    between atoms: C_5  and  C_6
REMARK    6  A    between atoms: C_6  and  N_7
REMARK    7  A    between atoms: C_18  and  N_19
REMARK                            x       y       z     vdW  Elec       q    Type
REMARK                         _______ _______ _______ _____ _____    ______ ____
ROOT
ATOM      1  N   UNL     1      -0.709  12.097  19.953  0.00  0.00    +0.000 N 
ATOM      2  C   UNL     1      -0.503  11.173  21.020  0.00  0.00    +0.000 A 
ATOM      3  C   UNL     1      -1.273  11.313  22.198  0.00  0.00    +0.000 A 
ATOM      4  C   UNL     1      -1.086  10.469  23.289  0.00  0.00    +0.000 A 
ATOM      5  C   UNL     1      -0.132   9.463  23.230  0.00  0.00    +0.000 A 
ATOM      6  C   UNL     1       0.640   9.300  22.082  0.00  0.00    +0.000 A 
ATOM      7  C   UNL     1       0.479  10.142  20.963  0.00  0.00    +0.000 A 
ATOM      8  C   UNL     1       1.368   9.817  19.772  0.00  0.00    +0.000 C 
ATOM      9  C   UNL     1       1.189  10.597  18.466  0.00  0.00    +0.000 C 
ATOM     10  C   UNL     1       1.377  12.065  18.671  0.00  0.00    +0.000 A 
ATOM     11  C   UNL     1       2.477  12.731  18.109  0.00  0.00    +0.000 A 
ATOM     12  C   UNL     1       2.650  14.113  18.291  0.00  0.00    +0.000 A 
ATOM     13  C   UNL     1       1.683  14.823  19.028  0.00  0.00    +0.000 A 
ATOM     14  C   UNL     1       0.569  14.164  19.562  0.00  0.00    +0.000 A 
ATOM     15  C   UNL     1       0.416  12.779  19.394  0.00  0.00    +0.000 A 
ENDROOT
BRANCH  12  16
ATOM     16  N   UNL     1       3.790  14.782  17.746  0.00  0.00    +0.000 N 
ATOM     17  O   UNL     1       4.898  14.411  18.003  0.00  0.00    +0.000 OA
ATOM     18  O   UNL     1       3.635  15.833  16.963  0.00  0.00    +0.000 OA
ENDBRANCH  12  16
BRANCH   1  19
ATOM     19  C   UNL     1      -2.060  12.460  19.524  0.00  0.00    +0.000 C 
BRANCH  19  20
ATOM     20  C   UNL     1      -2.634  11.347  18.621  0.00  0.00    +0.000 C 
BRANCH  20  21
ATOM     21  C   UNL     1      -2.155  11.368  17.146  0.00  0.00    +0.000 C 
BRANCH  21  23
ATOM     22  C   UNL     1      -3.113  10.191  15.232  0.00  0.00    +0.000 C 
ATOM     23  N   UNL     1      -3.257  11.325  16.160  0.00  0.00    +0.000 NA
ATOM     24  C   UNL     1      -4.547  11.213  16.869  0.00  0.00    +0.000 C 
ENDBRANCH  21  23
ENDBRANCH  20  21
ENDBRANCH  19  20
ENDBRANCH   1  19
TORSDOF 5
ENDMDL
