MODEL 1
REMARK VINA RESULT:      -7.0      0.000      0.000
REMARK  Name = 
REMARK  2 active torsions:
REMARK  status: ('A' for Active; 'I' for Inactive)
REMARK    1  A    between atoms: C_5  and  C_6
REMARK    2  A    between atoms: C_6  and  C_7
REMARK                            x       y       z     vdW  Elec       q    Type
REMARK                         _______ _______ _______ _____ _____    ______ ____
ROOT
ATOM      1  C   UNL     1       6.021   6.077  17.733  0.00  0.00    +0.000 C 
ENDROOT
BRANCH   1   6
ATOM      2  N   UNL     1       6.387   3.436  13.315  0.00  0.00    +0.000 N 
ATOM      3  C   UNL     1       6.539   4.257  14.373  0.00  0.00    +0.000 A 
ATOM      4  N   UNL     1       7.440   5.203  14.452  0.00  0.00    +0.000 NA
ATOM      5  N   UNL     1       7.375   5.913  15.636  0.00  0.00    +0.000 NA
ATOM      6  C   UNL     1       6.407   5.477  16.414  0.00  0.00    +0.000 A 
ATOM      7  S   UNL     1       5.541   4.136  15.765  0.00  0.00    +0.000 S 
ATOM      8  H   UNL     1       7.158   3.422  12.660  0.00  0.00    +0.000 HD
ATOM      9  H   UNL     1       5.946   2.536  13.463  0.00  0.00    +0.000 HD
ENDBRANCH   1   6
BRANCH   1  10
ATOM     10  C   UNL     1       4.744   5.496  18.305  0.00  0.00    +0.000 A 
ATOM     11  C   UNL     1       3.515   6.129  18.074  0.00  0.00    +0.000 A 
ATOM     12  C   UNL     1       2.342   5.639  18.655  0.00  0.00    +0.000 A 
ATOM     13  C   UNL     1       2.381   4.504  19.467  0.00  0.00    +0.000 A 
ATOM     14 CL   UNL     1       0.897   3.968  20.171  0.00  0.00    +0.000 Cl
ATOM     15  C   UNL     1       3.598   3.855  19.692  0.00  0.00    +0.000 A 
ATOM     16 CL   UNL     1       3.725   2.445  20.686  0.00  0.00    +0.000 Cl
ATOM     17  C   UNL     1       4.774   4.349  19.113  0.00  0.00    +0.000 A 
ENDBRANCH   1  10
TORSDOF 2
ENDMDL
MODEL 2
REMARK VINA RESULT:      -6.9      1.960      2.467
REMARK  Name = 
REMARK  2 active torsions:
REMARK  status: ('A' for Active; 'I' for Inactive)
REMARK    1  A    between atoms: C_5  and  C_6
REMARK    2  A    between atoms: C_6  and  C_7
REMARK                            x       y       z     vdW  Elec       q    Type
REMARK                         _______ _______ _______ _____ _____    ______ ____
ROOT
ATOM      1  C   UNL     1       3.328   6.795  17.615  0.00  0.00    +0.000 C 
ENDROOT
BRANCH   1   6
ATOM      2  N   UNL     1       7.849   4.530  16.589  0.00  0.00    +0.000 N 
ATOM      3  C   UNL     1       6.719   5.264  16.603  0.00  0.00    +0.000 A 
ATOM      4  N   UNL     1       6.323   6.031  15.618  0.00  0.00    +0.000 NA
ATOM      5  N   UNL     1       5.122   6.664  15.877  0.00  0.00    +0.000 NA
ATOM      6  C   UNL     1       4.645   6.341  17.060  0.00  0.00    +0.000 A 
ATOM      7  S   UNL     1       5.660   5.273  17.954  0.00  0.00    +0.000 S 
ATOM      8  H   UNL     1       8.517   4.771  15.867  0.00  0.00    +0.000 HD
ATOM      9  H   UNL     1       8.265   4.268  17.475  0.00  0.00    +0.000 HD
ENDBRANCH   1   6
BRANCH   1  10
ATOM     10  C   UNL     1       2.719   5.813  18.594  0.00  0.00    +0.000 A 
ATOM     11  C   UNL     1       2.778   6.060  19.973  0.00  0.00    +0.000 A 
ATOM     12  C   UNL     1       2.281   5.126  20.886  0.00  0.00    +0.000 A 
ATOM     13  C   UNL     1       1.710   3.936  20.432  0.00  0.00    +0.000 A 
ATOM     14 CL   UNL     1       1.138   2.815  21.617  0.00  0.00    +0.000 Cl
ATOM     15  C   UNL     1       1.632   3.684  19.059  0.00  0.00    +0.000 A 
ATOM     16 CL   UNL     1       0.940   2.232  18.422  0.00  0.00    +0.000 Cl
ATOM     17  C   UNL     1       2.134   4.619  18.145  0.00  0.00    +0.000 A 
ENDBRANCH   1  10
TORSDOF 2
ENDMDL
MODEL 3
REMARK VINA RESULT:      -6.9      2.234      2.904
REMARK  Name = 
REMARK  2 active torsions:
REMARK  status: ('A' for Active; 'I' for Inactive)
REMARK    1  A    between atoms: C_5  and  C_6
REMARK    2  A    between atoms: C_6  and  C_7
REMARK                            x       y       z     vdW  Elec       q    Type
REMARK                         _______ _______ _______ _____ _____    ______ ____
ROOT
ATOM      1  C   UNL     1       4.091   3.695  17.206  0.00  0.00    +0.000 C 
ENDROOT
BRANCH   1   6
ATOM      2  N   UNL     1       7.842   5.427  14.114  0.00  0.00    +0.000 N 
ATOM      3  C   UNL     1       7.078   4.965  15.124  0.00  0.00    +0.000 A 
ATOM      4  N   UNL     1       7.487   4.836  16.361  0.00  0.00    +0.000 NA
ATOM      5  N   UNL     1       6.505   4.355  17.206  0.00  0.00    +0.000 NA
ATOM      6  C   UNL     1       5.373   4.144  16.569  0.00  0.00    +0.000 A 
ATOM      7  S   UNL     1       5.449   4.480  14.880  0.00  0.00    +0.000 S 
ATOM      8  H   UNL     1       8.837   5.458  14.298  0.00  0.00    +0.000 HD
ATOM      9  H   UNL     1       7.598   5.164  13.166  0.00  0.00    +0.000 HD
ENDBRANCH   1   6
BRANCH   1  10
ATOM     10  C   UNL     1       3.486   4.732  18.129  0.00  0.00    +0.000 A 
ATOM     11  C   UNL     1       3.065   4.372  19.418  0.00  0.00    +0.000 A 
ATOM     12  C   UNL     1       2.443   5.305  20.251  0.00  0.00    +0.000 A 
ATOM     13  C   UNL     1       2.241   6.615  19.810  0.00  0.00    +0.000 A 
ATOM     14 CL   UNL     1       1.443   7.710  20.883  0.00  0.00    +0.000 Cl
ATOM     15  C   UNL     1       2.669   6.991  18.534  0.00  0.00    +0.000 A 
ATOM     16 CL   UNL     1       2.453   8.592  17.919  0.00  0.00    +0.000 Cl
ATOM     17  C   UNL     1       3.290   6.053  17.698  0.00  0.00    +0.000 A 
ENDBRANCH   1  10
TORSDOF 2
ENDMDL
MODEL 4
REMARK VINA RESULT:      -6.8      4.483      5.545
REMARK  Name = 
REMARK  2 active torsions:
REMARK  status: ('A' for Active; 'I' for Inactive)
REMARK    1  A    between atoms: C_5  and  C_6
REMARK    2  A    between atoms: C_6  and  C_7
REMARK                            x       y       z     vdW  Elec       q    Type
REMARK                         _______ _______ _______ _____ _____    ______ ____
ROOT
ATOM      1  C   UNL     1       4.382   3.273  16.950  0.00  0.00    +0.000 C 
ENDROOT
BRANCH   1   6
ATOM      2  N   UNL     1       0.570   3.182  20.427  0.00  0.00    +0.000 N 
ATOM      3  C   UNL     1       1.344   3.238  19.325  0.00  0.00    +0.000 A 
ATOM      4  N   UNL     1       0.901   3.508  18.123  0.00  0.00    +0.000 NA
ATOM      5  N   UNL     1       1.902   3.519  17.170  0.00  0.00    +0.000 NA
ATOM      6  C   UNL     1       3.081   3.263  17.696  0.00  0.00    +0.000 A 
ATOM      7  S   UNL     1       3.035   2.947  19.389  0.00  0.00    +0.000 S 
ATOM      8  H   UNL     1      -0.427   3.129  20.258  0.00  0.00    +0.000 HD
ATOM      9  H   UNL     1       0.892   2.633  21.215  0.00  0.00    +0.000 HD
ENDBRANCH   1   6
BRANCH   1  10
ATOM     10  C   UNL     1       5.190   4.535  17.172  0.00  0.00    +0.000 A 
ATOM     11  C   UNL     1       5.010   5.645  16.335  0.00  0.00    +0.000 A 
ATOM     12  C   UNL     1       5.799   6.788  16.489  0.00  0.00    +0.000 A 
ATOM     13  C   UNL     1       6.774   6.839  17.487  0.00  0.00    +0.000 A 
ATOM     14 CL   UNL     1       7.730   8.274  17.605  0.00  0.00    +0.000 Cl
ATOM     15  C   UNL     1       6.953   5.745  18.338  0.00  0.00    +0.000 A 
ATOM     16 CL   UNL     1       8.139   5.734  19.597  0.00  0.00    +0.000 Cl
ATOM     17  C   UNL     1       6.164   4.598  18.181  0.00  0.00    +0.000 A 
ENDBRANCH   1  10
TORSDOF 2
ENDMDL
MODEL 5
REMARK VINA RESULT:      -6.8      2.100      3.032
REMARK  Name = 
REMARK  2 active torsions:
REMARK  status: ('A' for Active; 'I' for Inactive)
REMARK    1  A    between atoms: C_5  and  C_6
REMARK    2  A    between atoms: C_6  and  C_7
REMARK                            x       y       z     vdW  Elec       q    Type
REMARK                         _______ _______ _______ _____ _____    ______ ____
ROOT
ATOM      1  C   UNL     1       4.416   4.003  16.533  0.00  0.00    +0.000 C 
ENDROOT
BRANCH   1   6
ATOM      2  N   UNL     1       7.752   7.879  17.221  0.00  0.00    +0.000 N 
ATOM      3  C   UNL     1       7.119   6.697  17.083  0.00  0.00    +0.000 A 
ATOM      4  N   UNL     1       7.677   5.532  17.293  0.00  0.00    +0.000 NA
ATOM      5  N   UNL     1       6.807   4.475  17.097  0.00  0.00    +0.000 NA
ATOM      6  C   UNL     1       5.607   4.888  16.749  0.00  0.00    +0.000 A 
ATOM      7  S   UNL     1       5.476   6.600  16.595  0.00  0.00    +0.000 S 
ATOM      8  H   UNL     1       8.762   7.831  17.274  0.00  0.00    +0.000 HD
ATOM      9  H   UNL     1       7.397   8.679  16.710  0.00  0.00    +0.000 HD
ENDBRANCH   1   6
BRANCH   1  10
ATOM     10  C   UNL     1       3.667   3.684  17.811  0.00  0.00    +0.000 A 
ATOM     11  C   UNL     1       3.473   2.352  18.202  0.00  0.00    +0.000 A 
ATOM     12  C   UNL     1       2.725   2.047  19.342  0.00  0.00    +0.000 A 
ATOM     13  C   UNL     1       2.168   3.070  20.111  0.00  0.00    +0.000 A 
ATOM     14 CL   UNL     1       1.234   2.620  21.494  0.00  0.00    +0.000 Cl
ATOM     15  C   UNL     1       2.367   4.403  19.740  0.00  0.00    +0.000 A 
ATOM     16 CL   UNL     1       1.708   5.724  20.642  0.00  0.00    +0.000 Cl
ATOM     17  C   UNL     1       3.114   4.708  18.595  0.00  0.00    +0.000 A 
ENDBRANCH   1  10
TORSDOF 2
ENDMDL
MODEL 6
REMARK VINA RESULT:      -6.7      1.321      2.098
REMARK  Name = 
REMARK  2 active torsions:
REMARK  status: ('A' for Active; 'I' for Inactive)
REMARK    1  A    between atoms: C_5  and  C_6
REMARK    2  A    between atoms: C_6  and  C_7
REMARK                            x       y       z     vdW  Elec       q    Type
REMARK                         _______ _______ _______ _____ _____    ______ ____
ROOT
ATOM      1  C   UNL     1       6.970   5.326  17.615  0.00  0.00    +0.000 C 
ENDROOT
BRANCH   1   6
ATOM      2  N   UNL     1       6.032   3.482  12.888  0.00  0.00    +0.000 N 
ATOM      3  C   UNL     1       6.473   4.135  13.981  0.00  0.00    +0.000 A 
ATOM      4  N   UNL     1       7.299   5.150  13.954  0.00  0.00    +0.000 NA
ATOM      5  N   UNL     1       7.581   5.651  15.211  0.00  0.00    +0.000 NA
ATOM      6  C   UNL     1       6.942   4.991  16.154  0.00  0.00    +0.000 A 
ATOM      7  S   UNL     1       5.986   3.684  15.565  0.00  0.00    +0.000 S 
ATOM      8  H   UNL     1       6.550   3.659  12.036  0.00  0.00    +0.000 HD
ATOM      9  H   UNL     1       5.711   2.527  12.994  0.00  0.00    +0.000 HD
ENDBRANCH   1   6
BRANCH   1  10
ATOM     10  C   UNL     1       5.602   5.294  18.264  0.00  0.00    +0.000 A 
ATOM     11  C   UNL     1       5.254   4.247  19.129  0.00  0.00    +0.000 A 
ATOM     12  C   UNL     1       3.971   4.173  19.677  0.00  0.00    +0.000 A 
ATOM     13  C   UNL     1       3.021   5.151  19.375  0.00  0.00    +0.000 A 
ATOM     14 CL   UNL     1       1.447   4.984  20.069  0.00  0.00    +0.000 Cl
ATOM     15  C   UNL     1       3.360   6.208  18.527  0.00  0.00    +0.000 A 
ATOM     16 CL   UNL     1       2.237   7.455  18.106  0.00  0.00    +0.000 Cl
ATOM     17  C   UNL     1       4.645   6.279  17.974  0.00  0.00    +0.000 A 
ENDBRANCH   1  10
TORSDOF 2
ENDMDL
MODEL 7
REMARK VINA RESULT:      -6.7      1.941      2.606
REMARK  Name = 
REMARK  2 active torsions:
REMARK  status: ('A' for Active; 'I' for Inactive)
REMARK    1  A    between atoms: C_5  and  C_6
REMARK    2  A    between atoms: C_6  and  C_7
REMARK                            x       y       z     vdW  Elec       q    Type
REMARK                         _______ _______ _______ _____ _____    ______ ____
ROOT
ATOM      1  C   UNL     1       4.157   4.116  16.192  0.00  0.00    +0.000 C 
ENDROOT
BRANCH   1   6
ATOM      2  N   UNL     1       7.657   7.719  17.376  0.00  0.00    +0.000 N 
ATOM      3  C   UNL     1       6.981   6.613  17.006  0.00  0.00    +0.000 A 
ATOM      4  N   UNL     1       7.541   5.462  16.731  0.00  0.00    +0.000 NA
ATOM      5  N   UNL     1       6.624   4.483  16.392  0.00  0.00    +0.000 NA
ATOM      6  C   UNL     1       5.389   4.937  16.432  0.00  0.00    +0.000 A 
ATOM      7  S   UNL     1       5.272   6.606  16.846  0.00  0.00    +0.000 S 
ATOM      8  H   UNL     1       8.655   7.695  17.211  0.00  0.00    +0.000 HD
ATOM      9  H   UNL     1       7.226   8.622  17.218  0.00  0.00    +0.000 HD
ENDBRANCH   1   6
BRANCH   1  10
ATOM     10  C   UNL     1       3.442   3.722  17.468  0.00  0.00    +0.000 A 
ATOM     11  C   UNL     1       2.092   4.054  17.652  0.00  0.00    +0.000 A 
ATOM     12  C   UNL     1       1.443   3.756  18.853  0.00  0.00    +0.000 A 
ATOM     13  C   UNL     1       2.133   3.114  19.883  0.00  0.00    +0.000 A 
ATOM     14 CL   UNL     1       1.275   2.798  21.350  0.00  0.00    +0.000 Cl
ATOM     15  C   UNL     1       3.474   2.764  19.707  0.00  0.00    +0.000 A 
ATOM     16 CL   UNL     1       4.394   1.969  20.937  0.00  0.00    +0.000 Cl
ATOM     17  C   UNL     1       4.125   3.067  18.504  0.00  0.00    +0.000 A 
ENDBRANCH   1  10
TORSDOF 2
ENDMDL
MODEL 8
REMARK VINA RESULT:      -6.7      1.513      2.004
REMARK  Name = 
REMARK  2 active torsions:
REMARK  status: ('A' for Active; 'I' for Inactive)
REMARK    1  A    between atoms: C_5  and  C_6
REMARK    2  A    between atoms: C_6  and  C_7
REMARK                            x       y       z     vdW  Elec       q    Type
REMARK                         _______ _______ _______ _____ _____    ______ ____
ROOT
ATOM      1  C   UNL     1       3.839   6.799  17.758  0.00  0.00    +0.000 C 
ENDROOT
BRANCH   1   6
ATOM      2  N   UNL     1       7.747   5.154  14.816  0.00  0.00    +0.000 N 
ATOM      3  C   UNL     1       6.926   5.568  15.802  0.00  0.00    +0.000 A 
ATOM      4  N   UNL     1       7.312   5.823  17.027  0.00  0.00    +0.000 NA
ATOM      5  N   UNL     1       6.278   6.248  17.840  0.00  0.00    +0.000 NA
ATOM      6  C   UNL     1       5.136   6.307  17.188  0.00  0.00    +0.000 A 
ATOM      7  S   UNL     1       5.245   5.802  15.544  0.00  0.00    +0.000 S 
ATOM      8  H   UNL     1       8.654   4.818  15.116  0.00  0.00    +0.000 HD
ATOM      9  H   UNL     1       7.346   4.644  14.038  0.00  0.00    +0.000 HD
ENDBRANCH   1   6
BRANCH   1  10
ATOM     10  C   UNL     1       3.143   5.778  18.633  0.00  0.00    +0.000 A 
ATOM     11  C   UNL     1       2.451   6.186  19.782  0.00  0.00    +0.000 A 
ATOM     12  C   UNL     1       1.865   5.245  20.633  0.00  0.00    +0.000 A 
ATOM     13  C   UNL     1       1.956   3.883  20.342  0.00  0.00    +0.000 A 
ATOM     14 CL   UNL     1       1.229   2.773  21.450  0.00  0.00    +0.000 Cl
ATOM     15  C   UNL     1       2.630   3.463  19.191  0.00  0.00    +0.000 A 
ATOM     16 CL   UNL     1       2.784   1.794  18.765  0.00  0.00    +0.000 Cl
ATOM     17  C   UNL     1       3.220   4.407  18.341  0.00  0.00    +0.000 A 
ENDBRANCH   1  10
TORSDOF 2
ENDMDL
MODEL 9
REMARK VINA RESULT:      -6.7      4.504      5.562
REMARK  Name = 
REMARK  2 active torsions:
REMARK  status: ('A' for Active; 'I' for Inactive)
REMARK    1  A    between atoms: C_5  and  C_6
REMARK    2  A    between atoms: C_6  and  C_7
REMARK                            x       y       z     vdW  Elec       q    Type
REMARK                         _______ _______ _______ _____ _____    ______ ____
ROOT
ATOM      1  C   UNL     1       4.242   3.466  16.734  0.00  0.00    +0.000 C 
ENDROOT
BRANCH   1   6
ATOM      2  N   UNL     1       0.473   3.341  20.257  0.00  0.00    +0.000 N 
ATOM      3  C   UNL     1       1.523   3.106  19.445  0.00  0.00    +0.000 A 
ATOM      4  N   UNL     1       2.167   1.968  19.381  0.00  0.00    +0.000 NA
ATOM      5  N   UNL     1       3.195   1.982  18.456  0.00  0.00    +0.000 NA
ATOM      6  C   UNL     1       3.284   3.144  17.843  0.00  0.00    +0.000 A 
ATOM      7  S   UNL     1       2.141   4.311  18.390  0.00  0.00    +0.000 S 
ATOM      8  H   UNL     1       0.337   2.667  21.000  0.00  0.00    +0.000 HD
ATOM      9  H   UNL     1       0.270   4.299  20.517  0.00  0.00    +0.000 HD
ENDBRANCH   1   6
BRANCH   1  10
ATOM     10  C   UNL     1       5.112   4.670  17.025  0.00  0.00    +0.000 A 
ATOM     11  C   UNL     1       5.012   5.822  16.231  0.00  0.00    +0.000 A 
ATOM     12  C   UNL     1       5.859   6.912  16.449  0.00  0.00    +0.000 A 
ATOM     13  C   UNL     1       6.812   6.868  17.468  0.00  0.00    +0.000 A 
ATOM     14 CL   UNL     1       7.842   8.242  17.665  0.00  0.00    +0.000 Cl
ATOM     15  C   UNL     1       6.911   5.732  18.276  0.00  0.00    +0.000 A 
ATOM     16 CL   UNL     1       8.066   5.604  19.557  0.00  0.00    +0.000 Cl
ATOM     17  C   UNL     1       6.064   4.639  18.055  0.00  0.00    +0.000 A 
ENDBRANCH   1  10
TORSDOF 2
ENDMDL
