MODEL 1
REMARK VINA RESULT:      -6.9      0.000      0.000
REMARK  Name = 
REMARK  16 active torsions:
REMARK  status: ('A' for Active; 'I' for Inactive)
REMARK    1  A    between atoms: C_1  and  C_2
REMARK    2  A    between atoms: C_2  and  O_3
REMARK    3  A    between atoms: O_3  and  C_4
REMARK    4  A    between atoms: C_7  and  C_8
REMARK    5  A    between atoms: C_8  and  C_9
REMARK    6  A    between atoms: C_9  and  N_10
REMARK    7  A    between atoms: C_11  and  C_13
REMARK    8  A    between atoms: C_13  and  S_14
REMARK    9  A    between atoms: S_14  and  C_15
REMARK   10  A    between atoms: C_15  and  C_16
REMARK   11  A    between atoms: N_18  and  C_19
REMARK   12  A    between atoms: C_22  and  O_23
REMARK   13  A    between atoms: O_23  and  C_24
REMARK   14  A    between atoms: C_28  and  O_29
REMARK   15  A    between atoms: O_29  and  C_30
REMARK   16  A    between atoms: C_30  and  C_31
REMARK                            x       y       z     vdW  Elec       q    Type
REMARK                         _______ _______ _______ _____ _____    ______ ____
ROOT
ATOM      1  N   UNL     1       1.698   5.240  19.728  0.00  0.00    +0.000 N 
ATOM      2  C   UNL     1       1.711   4.253  20.692  0.00  0.00    +0.000 C 
ATOM      3  O   UNL     1       2.327   4.349  21.755  0.00  0.00    +0.000 OA
ATOM      4  H   UNL     1       1.297   5.041  18.817  0.00  0.00    +0.000 HD
ENDROOT
BRANCH   1   5
ATOM      5  C   UNL     1       2.473   6.454  19.905  0.00  0.00    +0.000 C 
BRANCH   5   6
ATOM      6  C   UNL     1       1.992   7.639  19.062  0.00  0.00    +0.000 C 
BRANCH   6  10
ATOM      7  C   UNL     1       0.417  10.990  21.319  0.00  0.00    +0.000 A 
ATOM      8  C   UNL     1       0.601   9.738  21.924  0.00  0.00    +0.000 A 
ATOM      9  C   UNL     1       1.087   8.650  21.198  0.00  0.00    +0.000 A 
ATOM     10  C   UNL     1       1.372   8.776  19.837  0.00  0.00    +0.000 A 
ATOM     11  C   UNL     1       1.125  10.011  19.218  0.00  0.00    +0.000 A 
ATOM     12  C   UNL     1       0.617  11.108  19.935  0.00  0.00    +0.000 A 
BRANCH   7  13
ATOM     13  O   UNL     1       0.077  12.107  22.038  0.00  0.00    +0.000 OA
BRANCH  13  15
ATOM     14  C   UNL     1      -2.312  12.322  22.009  0.00  0.00    +0.000 C 
ATOM     15  C   UNL     1      -1.094  11.999  22.853  0.00  0.00    +0.000 C 
ENDBRANCH  13  15
ENDBRANCH   7  13
BRANCH  12  16
ATOM     16  O   UNL     1       0.424  12.217  19.151  0.00  0.00    +0.000 OA
BRANCH  16  17
ATOM     17  C   UNL     1       1.351  13.292  19.301  0.00  0.00    +0.000 C 
ATOM     18  C   UNL     1       2.380  13.194  18.185  0.00  0.00    +0.000 C 
ENDBRANCH  16  17
ENDBRANCH  12  16
ENDBRANCH   6  10
ENDBRANCH   5   6
ENDBRANCH   1   5
BRANCH   2  19
ATOM     19  C   UNL     1       0.967   2.988  20.314  0.00  0.00    +0.000 C 
BRANCH  19  20
ATOM     20  S   UNL     1       1.492   2.440  18.658  0.00  0.00    +0.000 S 
BRANCH  20  21
ATOM     21  C   UNL     1       3.281   2.198  18.951  0.00  0.00    +0.000 C 
BRANCH  21  22
ATOM     22  C   UNL     1       4.116   3.213  18.188  0.00  0.00    +0.000 C 
ATOM     23  O   UNL     1       4.058   3.267  16.961  0.00  0.00    +0.000 OA
ATOM     24  N   UNL     1       4.909   4.024  18.994  0.00  0.00    +0.000 N 
ATOM     25  H   UNL     1       5.028   3.735  19.965  0.00  0.00    +0.000 HD
BRANCH  24  26
ATOM     26  C   UNL     1       5.695   5.119  18.560  0.00  0.00    +0.000 A 
ATOM     27  C   UNL     1       5.249   6.056  17.626  0.00  0.00    +0.000 A 
ATOM     28  C   UNL     1       6.076   7.100  17.207  0.00  0.00    +0.000 A 
ATOM     29  C   UNL     1       7.356   7.248  17.734  0.00  0.00    +0.000 A 
ATOM     30  C   UNL     1       7.810   6.331  18.685  0.00  0.00    +0.000 A 
ATOM     31  C   UNL     1       6.980   5.276  19.097  0.00  0.00    +0.000 A 
BRANCH  29  32
ATOM     32  O   UNL     1       8.072   8.288  17.221  0.00  0.00    +0.000 OA
ATOM     33  C   UNL     1       8.341   9.358  18.117  0.00  0.00    +0.000 C 
ENDBRANCH  29  32
ENDBRANCH  24  26
ENDBRANCH  21  22
ENDBRANCH  20  21
ENDBRANCH  19  20
ENDBRANCH   2  19
TORSDOF 13
ENDMDL
MODEL 2
REMARK VINA RESULT:      -6.8      1.977      3.037
REMARK  Name = 
REMARK  16 active torsions:
REMARK  status: ('A' for Active; 'I' for Inactive)
REMARK    1  A    between atoms: C_1  and  C_2
REMARK    2  A    between atoms: C_2  and  O_3
REMARK    3  A    between atoms: O_3  and  C_4
REMARK    4  A    between atoms: C_7  and  C_8
REMARK    5  A    between atoms: C_8  and  C_9
REMARK    6  A    between atoms: C_9  and  N_10
REMARK    7  A    between atoms: C_11  and  C_13
REMARK    8  A    between atoms: C_13  and  S_14
REMARK    9  A    between atoms: S_14  and  C_15
REMARK   10  A    between atoms: C_15  and  C_16
REMARK   11  A    between atoms: N_18  and  C_19
REMARK   12  A    between atoms: C_22  and  O_23
REMARK   13  A    between atoms: O_23  and  C_24
REMARK   14  A    between atoms: C_28  and  O_29
REMARK   15  A    between atoms: O_29  and  C_30
REMARK   16  A    between atoms: C_30  and  C_31
REMARK                            x       y       z     vdW  Elec       q    Type
REMARK                         _______ _______ _______ _____ _____    ______ ____
ROOT
ATOM      1  N   UNL     1       1.671   4.757  18.955  0.00  0.00    +0.000 N 
ATOM      2  C   UNL     1       1.528   3.491  18.427  0.00  0.00    +0.000 C 
ATOM      3  O   UNL     1       1.554   3.251  17.219  0.00  0.00    +0.000 OA
ATOM      4  H   UNL     1       1.492   4.907  19.943  0.00  0.00    +0.000 HD
ENDROOT
BRANCH   1   5
ATOM      5  C   UNL     1       1.815   5.908  18.084  0.00  0.00    +0.000 C 
BRANCH   5   6
ATOM      6  C   UNL     1       2.724   7.010  18.636  0.00  0.00    +0.000 C 
BRANCH   6  10
ATOM      7  C   UNL     1       0.580  10.687  19.464  0.00  0.00    +0.000 A 
ATOM      8  C   UNL     1       0.922  10.334  18.151  0.00  0.00    +0.000 A 
ATOM      9  C   UNL     1       1.631   9.163  17.879  0.00  0.00    +0.000 A 
ATOM     10  C   UNL     1       2.046   8.329  18.919  0.00  0.00    +0.000 A 
ATOM     11  C   UNL     1       1.760   8.716  20.237  0.00  0.00    +0.000 A 
ATOM     12  C   UNL     1       1.064   9.903  20.522  0.00  0.00    +0.000 A 
BRANCH   7  13
ATOM     13  O   UNL     1      -0.235  11.753  19.747  0.00  0.00    +0.000 OA
BRANCH  13  15
ATOM     14  C   UNL     1      -0.551  14.035  19.077  0.00  0.00    +0.000 C 
ATOM     15  C   UNL     1       0.387  13.042  19.736  0.00  0.00    +0.000 C 
ENDBRANCH  13  15
ENDBRANCH   7  13
BRANCH  12  16
ATOM     16  O   UNL     1       0.901  10.118  21.868  0.00  0.00    +0.000 OA
BRANCH  16  17
ATOM     17  C   UNL     1      -0.197   9.465  22.505  0.00  0.00    +0.000 C 
ATOM     18  C   UNL     1      -1.060  10.525  23.173  0.00  0.00    +0.000 C 
ENDBRANCH  16  17
ENDBRANCH  12  16
ENDBRANCH   6  10
ENDBRANCH   5   6
ENDBRANCH   1   5
BRANCH   2  19
ATOM     19  C   UNL     1       1.251   2.405  19.448  0.00  0.00    +0.000 C 
BRANCH  19  20
ATOM     20  S   UNL     1       1.747   2.981  21.104  0.00  0.00    +0.000 S 
BRANCH  20  21
ATOM     21  C   UNL     1       3.403   2.216  21.229  0.00  0.00    +0.000 C 
BRANCH  21  22
ATOM     22  C   UNL     1       4.203   2.397  19.949  0.00  0.00    +0.000 C 
ATOM     23  O   UNL     1       4.356   1.453  19.175  0.00  0.00    +0.000 OA
ATOM     24  N   UNL     1       4.712   3.678  19.769  0.00  0.00    +0.000 N 
ATOM     25  H   UNL     1       4.699   4.299  20.578  0.00  0.00    +0.000 HD
BRANCH  24  26
ATOM     26  C   UNL     1       5.394   4.151  18.621  0.00  0.00    +0.000 A 
ATOM     27  C   UNL     1       4.903   3.996  17.323  0.00  0.00    +0.000 A 
ATOM     28  C   UNL     1       5.631   4.452  16.223  0.00  0.00    +0.000 A 
ATOM     29  C   UNL     1       6.849   5.102  16.396  0.00  0.00    +0.000 A 
ATOM     30  C   UNL     1       7.344   5.285  17.689  0.00  0.00    +0.000 A 
ATOM     31  C   UNL     1       6.616   4.815  18.795  0.00  0.00    +0.000 A 
BRANCH  29  32
ATOM     32  O   UNL     1       7.473   5.472  15.242  0.00  0.00    +0.000 OA
ATOM     33  C   UNL     1       6.965   4.891  14.048  0.00  0.00    +0.000 C 
ENDBRANCH  29  32
ENDBRANCH  24  26
ENDBRANCH  21  22
ENDBRANCH  20  21
ENDBRANCH  19  20
ENDBRANCH   2  19
TORSDOF 13
ENDMDL
MODEL 3
REMARK VINA RESULT:      -6.7      1.182      1.296
REMARK  Name = 
REMARK  16 active torsions:
REMARK  status: ('A' for Active; 'I' for Inactive)
REMARK    1  A    between atoms: C_1  and  C_2
REMARK    2  A    between atoms: C_2  and  O_3
REMARK    3  A    between atoms: O_3  and  C_4
REMARK    4  A    between atoms: C_7  and  C_8
REMARK    5  A    between atoms: C_8  and  C_9
REMARK    6  A    between atoms: C_9  and  N_10
REMARK    7  A    between atoms: C_11  and  C_13
REMARK    8  A    between atoms: C_13  and  S_14
REMARK    9  A    between atoms: S_14  and  C_15
REMARK   10  A    between atoms: C_15  and  C_16
REMARK   11  A    between atoms: N_18  and  C_19
REMARK   12  A    between atoms: C_22  and  O_23
REMARK   13  A    between atoms: O_23  and  C_24
REMARK   14  A    between atoms: C_28  and  O_29
REMARK   15  A    between atoms: O_29  and  C_30
REMARK   16  A    between atoms: C_30  and  C_31
REMARK                            x       y       z     vdW  Elec       q    Type
REMARK                         _______ _______ _______ _____ _____    ______ ____
ROOT
ATOM      1  N   UNL     1       1.744   4.666  20.331  0.00  0.00    +0.000 N 
ATOM      2  C   UNL     1       2.046   3.478  20.965  0.00  0.00    +0.000 C 
ATOM      3  O   UNL     1       2.184   3.375  22.185  0.00  0.00    +0.000 OA
ATOM      4  H   UNL     1       1.791   4.715  19.318  0.00  0.00    +0.000 HD
ENDROOT
BRANCH   1   5
ATOM      5  C   UNL     1       1.621   5.896  21.089  0.00  0.00    +0.000 C 
BRANCH   5   6
ATOM      6  C   UNL     1       1.627   7.169  20.236  0.00  0.00    +0.000 C 
BRANCH   6  10
ATOM      7  C   UNL     1      -0.084  10.660  22.157  0.00  0.00    +0.000 A 
ATOM      8  C   UNL     1      -0.403   9.368  22.598  0.00  0.00    +0.000 A 
ATOM      9  C   UNL     1       0.127   8.239  21.970  0.00  0.00    +0.000 A 
ATOM     10  C   UNL     1       0.966   8.373  20.862  0.00  0.00    +0.000 A 
ATOM     11  C   UNL     1       1.232   9.664  20.382  0.00  0.00    +0.000 A 
ATOM     12  C   UNL     1       0.687  10.806  20.993  0.00  0.00    +0.000 A 
BRANCH   7  13
ATOM     13  O   UNL     1      -0.475  11.783  22.838  0.00  0.00    +0.000 OA
BRANCH  13  15
ATOM     14  C   UNL     1      -2.096  13.472  23.363  0.00  0.00    +0.000 C 
ATOM     15  C   UNL     1      -1.877  12.068  22.831  0.00  0.00    +0.000 C 
ENDBRANCH  13  15
ENDBRANCH   7  13
BRANCH  12  16
ATOM     16  O   UNL     1       1.046  11.972  20.365  0.00  0.00    +0.000 OA
BRANCH  16  17
ATOM     17  C   UNL     1       0.522  12.196  19.056  0.00  0.00    +0.000 C 
ATOM     18  C   UNL     1      -0.352  13.440  19.098  0.00  0.00    +0.000 C 
ENDBRANCH  16  17
ENDBRANCH  12  16
ENDBRANCH   6  10
ENDBRANCH   5   6
ENDBRANCH   1   5
BRANCH   2  19
ATOM     19  C   UNL     1       2.278   2.304  20.035  0.00  0.00    +0.000 C 
BRANCH  19  20
ATOM     20  S   UNL     1       1.342   2.550  18.492  0.00  0.00    +0.000 S 
BRANCH  20  21
ATOM     21  C   UNL     1       2.720   2.723  17.302  0.00  0.00    +0.000 C 
BRANCH  21  22
ATOM     22  C   UNL     1       3.454   4.041  17.483  0.00  0.00    +0.000 C 
ATOM     23  O   UNL     1       2.825   5.088  17.620  0.00  0.00    +0.000 OA
ATOM     24  N   UNL     1       4.841   3.929  17.473  0.00  0.00    +0.000 N 
ATOM     25  H   UNL     1       5.231   3.049  17.136  0.00  0.00    +0.000 HD
BRANCH  24  26
ATOM     26  C   UNL     1       5.763   4.973  17.729  0.00  0.00    +0.000 A 
ATOM     27  C   UNL     1       5.684   6.228  17.124  0.00  0.00    +0.000 A 
ATOM     28  C   UNL     1       6.639   7.213  17.387  0.00  0.00    +0.000 A 
ATOM     29  C   UNL     1       7.676   6.975  18.284  0.00  0.00    +0.000 A 
ATOM     30  C   UNL     1       7.758   5.732  18.915  0.00  0.00    +0.000 A 
ATOM     31  C   UNL     1       6.803   4.739  18.641  0.00  0.00    +0.000 A 
BRANCH  29  32
ATOM     32  O   UNL     1       8.557   8.005  18.430  0.00  0.00    +0.000 OA
ATOM     33  C   UNL     1       8.162   9.245  17.859  0.00  0.00    +0.000 C 
ENDBRANCH  29  32
ENDBRANCH  24  26
ENDBRANCH  21  22
ENDBRANCH  20  21
ENDBRANCH  19  20
ENDBRANCH   2  19
TORSDOF 13
ENDMDL
MODEL 4
REMARK VINA RESULT:      -6.6      4.063      9.072
REMARK  Name = 
REMARK  16 active torsions:
REMARK  status: ('A' for Active; 'I' for Inactive)
REMARK    1  A    between atoms: C_1  and  C_2
REMARK    2  A    between atoms: C_2  and  O_3
REMARK    3  A    between atoms: O_3  and  C_4
REMARK    4  A    between atoms: C_7  and  C_8
REMARK    5  A    between atoms: C_8  and  C_9
REMARK    6  A    between atoms: C_9  and  N_10
REMARK    7  A    between atoms: C_11  and  C_13
REMARK    8  A    between atoms: C_13  and  S_14
REMARK    9  A    between atoms: S_14  and  C_15
REMARK   10  A    between atoms: C_15  and  C_16
REMARK   11  A    between atoms: N_18  and  C_19
REMARK   12  A    between atoms: C_22  and  O_23
REMARK   13  A    between atoms: O_23  and  C_24
REMARK   14  A    between atoms: C_28  and  O_29
REMARK   15  A    between atoms: O_29  and  C_30
REMARK   16  A    between atoms: C_30  and  C_31
REMARK                            x       y       z     vdW  Elec       q    Type
REMARK                         _______ _______ _______ _____ _____    ______ ____
ROOT
ATOM      1  N   UNL     1       0.461  10.613  19.789  0.00  0.00    +0.000 N 
ATOM      2  C   UNL     1       0.533  11.195  21.037  0.00  0.00    +0.000 C 
ATOM      3  O   UNL     1       1.527  11.793  21.452  0.00  0.00    +0.000 OA
ATOM      4  H   UNL     1      -0.325  10.011  19.565  0.00  0.00    +0.000 HD
ENDROOT
BRANCH   1   5
ATOM      5  C   UNL     1       1.605  10.635  18.898  0.00  0.00    +0.000 C 
BRANCH   5   6
ATOM      6  C   UNL     1       1.673   9.452  17.926  0.00  0.00    +0.000 C 
BRANCH   6  10
ATOM      7  C   UNL     1       2.617   5.572  19.617  0.00  0.00    +0.000 A 
ATOM      8  C   UNL     1       2.109   6.602  20.421  0.00  0.00    +0.000 A 
ATOM      9  C   UNL     1       1.824   7.860  19.888  0.00  0.00    +0.000 A 
ATOM     10  C   UNL     1       2.070   8.131  18.541  0.00  0.00    +0.000 A 
ATOM     11  C   UNL     1       2.639   7.119  17.752  0.00  0.00    +0.000 A 
ATOM     12  C   UNL     1       2.949   5.856  18.284  0.00  0.00    +0.000 A 
BRANCH   7  13
ATOM     13  O   UNL     1       2.773   4.291  20.080  0.00  0.00    +0.000 OA
BRANCH  13  15
ATOM     14  C   UNL     1       1.339   2.839  21.343  0.00  0.00    +0.000 C 
ATOM     15  C   UNL     1       2.275   4.032  21.397  0.00  0.00    +0.000 C 
ENDBRANCH  13  15
ENDBRANCH   7  13
BRANCH  12  16
ATOM     16  O   UNL     1       3.518   5.012  17.362  0.00  0.00    +0.000 OA
BRANCH  16  17
ATOM     17  C   UNL     1       4.940   5.036  17.246  0.00  0.00    +0.000 C 
ATOM     18  C   UNL     1       5.320   4.418  15.908  0.00  0.00    +0.000 C 
ENDBRANCH  16  17
ENDBRANCH  12  16
ENDBRANCH   6  10
ENDBRANCH   5   6
ENDBRANCH   1   5
BRANCH   2  19
ATOM     19  C   UNL     1      -0.687  10.978  21.910  0.00  0.00    +0.000 C 
BRANCH  19  20
ATOM     20  S   UNL     1      -1.257  12.576  22.574  0.00  0.00    +0.000 S 
BRANCH  20  21
ATOM     21  C   UNL     1      -2.769  12.820  21.575  0.00  0.00    +0.000 C 
BRANCH  21  22
ATOM     22  C   UNL     1      -2.500  12.620  20.093  0.00  0.00    +0.000 C 
ATOM     23  O   UNL     1      -1.619  13.267  19.529  0.00  0.00    +0.000 OA
ATOM     24  N   UNL     1      -3.321  11.675  19.485  0.00  0.00    +0.000 N 
ATOM     25  H   UNL     1      -4.144  11.375  20.006  0.00  0.00    +0.000 HD
BRANCH  24  26
ATOM     26  C   UNL     1      -3.214  11.214  18.150  0.00  0.00    +0.000 A 
ATOM     27  C   UNL     1      -2.216  10.336  17.723  0.00  0.00    +0.000 A 
ATOM     28  C   UNL     1      -2.137   9.936  16.387  0.00  0.00    +0.000 A 
ATOM     29  C   UNL     1      -3.071  10.380  15.456  0.00  0.00    +0.000 A 
ATOM     30  C   UNL     1      -4.089  11.241  15.871  0.00  0.00    +0.000 A 
ATOM     31  C   UNL     1      -4.161  11.651  17.213  0.00  0.00    +0.000 A 
BRANCH  29  32
ATOM     32  O   UNL     1      -2.866   9.941  14.182  0.00  0.00    +0.000 OA
ATOM     33  C   UNL     1      -4.020   9.874  13.355  0.00  0.00    +0.000 C 
ENDBRANCH  29  32
ENDBRANCH  24  26
ENDBRANCH  21  22
ENDBRANCH  20  21
ENDBRANCH  19  20
ENDBRANCH   2  19
TORSDOF 13
ENDMDL
MODEL 5
REMARK VINA RESULT:      -6.5      2.231      2.870
REMARK  Name = 
REMARK  16 active torsions:
REMARK  status: ('A' for Active; 'I' for Inactive)
REMARK    1  A    between atoms: C_1  and  C_2
REMARK    2  A    between atoms: C_2  and  O_3
REMARK    3  A    between atoms: O_3  and  C_4
REMARK    4  A    between atoms: C_7  and  C_8
REMARK    5  A    between atoms: C_8  and  C_9
REMARK    6  A    between atoms: C_9  and  N_10
REMARK    7  A    between atoms: C_11  and  C_13
REMARK    8  A    between atoms: C_13  and  S_14
REMARK    9  A    between atoms: S_14  and  C_15
REMARK   10  A    between atoms: C_15  and  C_16
REMARK   11  A    between atoms: N_18  and  C_19
REMARK   12  A    between atoms: C_22  and  O_23
REMARK   13  A    between atoms: O_23  and  C_24
REMARK   14  A    between atoms: C_28  and  O_29
REMARK   15  A    between atoms: O_29  and  C_30
REMARK   16  A    between atoms: C_30  and  C_31
REMARK                            x       y       z     vdW  Elec       q    Type
REMARK                         _______ _______ _______ _____ _____    ______ ____
ROOT
ATOM      1  N   UNL     1       1.658   6.323  20.936  0.00  0.00    +0.000 N 
ATOM      2  C   UNL     1       2.651   5.457  20.525  0.00  0.00    +0.000 C 
ATOM      3  O   UNL     1       3.558   5.779  19.756  0.00  0.00    +0.000 OA
ATOM      4  H   UNL     1       0.861   5.959  21.448  0.00  0.00    +0.000 HD
ENDROOT
BRANCH   1   5
ATOM      5  C   UNL     1       1.607   7.681  20.427  0.00  0.00    +0.000 C 
BRANCH   5   6
ATOM      6  C   UNL     1       1.386   8.750  21.502  0.00  0.00    +0.000 C 
BRANCH   6  10
ATOM      7  C   UNL     1      -1.210  12.039  20.384  0.00  0.00    +0.000 A 
ATOM      8  C   UNL     1      -0.884  11.805  21.727  0.00  0.00    +0.000 A 
ATOM      9  C   UNL     1      -0.067  10.735  22.096  0.00  0.00    +0.000 A 
ATOM     10  C   UNL     1       0.420   9.850  21.133  0.00  0.00    +0.000 A 
ATOM     11  C   UNL     1       0.040  10.047  19.797  0.00  0.00    +0.000 A 
ATOM     12  C   UNL     1      -0.799  11.109  19.417  0.00  0.00    +0.000 A 
BRANCH   7  13
ATOM     13  O   UNL     1      -1.891  13.158  19.981  0.00  0.00    +0.000 OA
BRANCH  13  15
ATOM     14  C   UNL     1      -4.215  12.570  20.058  0.00  0.00    +0.000 C 
ATOM     15  C   UNL     1      -3.120  13.428  20.662  0.00  0.00    +0.000 C 
ENDBRANCH  13  15
ENDBRANCH   7  13
BRANCH  12  16
ATOM     16  O   UNL     1      -1.073  11.121  18.072  0.00  0.00    +0.000 OA
BRANCH  16  17
ATOM     17  C   UNL     1      -1.492   9.890  17.481  0.00  0.00    +0.000 C 
ATOM     18  C   UNL     1      -3.011   9.829  17.532  0.00  0.00    +0.000 C 
ENDBRANCH  16  17
ENDBRANCH  12  16
ENDBRANCH   6  10
ENDBRANCH   5   6
ENDBRANCH   1   5
BRANCH   2  19
ATOM     19  C   UNL     1       2.502   4.036  21.030  0.00  0.00    +0.000 C 
BRANCH  19  20
ATOM     20  S   UNL     1       1.153   3.204  20.131  0.00  0.00    +0.000 S 
BRANCH  20  21
ATOM     21  C   UNL     1       2.120   2.038  19.106  0.00  0.00    +0.000 C 
BRANCH  21  22
ATOM     22  C   UNL     1       2.797   2.743  17.943  0.00  0.00    +0.000 C 
ATOM     23  O   UNL     1       2.146   3.074  16.953  0.00  0.00    +0.000 OA
ATOM     24  N   UNL     1       4.161   2.956  18.118  0.00  0.00    +0.000 N 
ATOM     25  H   UNL     1       4.614   2.445  18.876  0.00  0.00    +0.000 HD
BRANCH  24  26
ATOM     26  C   UNL     1       5.010   3.683  17.249  0.00  0.00    +0.000 A 
ATOM     27  C   UNL     1       4.609   4.135  15.990  0.00  0.00    +0.000 A 
ATOM     28  C   UNL     1       5.496   4.820  15.158  0.00  0.00    +0.000 A 
ATOM     29  C   UNL     1       6.794   5.096  15.578  0.00  0.00    +0.000 A 
ATOM     30  C   UNL     1       7.205   4.670  16.842  0.00  0.00    +0.000 A 
ATOM     31  C   UNL     1       6.315   3.971  17.674  0.00  0.00    +0.000 A 
BRANCH  29  32
ATOM     32  O   UNL     1       7.569   5.744  14.662  0.00  0.00    +0.000 OA
ATOM     33  C   UNL     1       7.703   5.105  13.399  0.00  0.00    +0.000 C 
ENDBRANCH  29  32
ENDBRANCH  24  26
ENDBRANCH  21  22
ENDBRANCH  20  21
ENDBRANCH  19  20
ENDBRANCH   2  19
TORSDOF 13
ENDMDL
MODEL 6
REMARK VINA RESULT:      -6.5      1.038      2.333
REMARK  Name = 
REMARK  16 active torsions:
REMARK  status: ('A' for Active; 'I' for Inactive)
REMARK    1  A    between atoms: C_1  and  C_2
REMARK    2  A    between atoms: C_2  and  O_3
REMARK    3  A    between atoms: O_3  and  C_4
REMARK    4  A    between atoms: C_7  and  C_8
REMARK    5  A    between atoms: C_8  and  C_9
REMARK    6  A    between atoms: C_9  and  N_10
REMARK    7  A    between atoms: C_11  and  C_13
REMARK    8  A    between atoms: C_13  and  S_14
REMARK    9  A    between atoms: S_14  and  C_15
REMARK   10  A    between atoms: C_15  and  C_16
REMARK   11  A    between atoms: N_18  and  C_19
REMARK   12  A    between atoms: C_22  and  O_23
REMARK   13  A    between atoms: O_23  and  C_24
REMARK   14  A    between atoms: C_28  and  O_29
REMARK   15  A    between atoms: O_29  and  C_30
REMARK   16  A    between atoms: C_30  and  C_31
REMARK                            x       y       z     vdW  Elec       q    Type
REMARK                         _______ _______ _______ _____ _____    ______ ____
ROOT
ATOM      1  N   UNL     1       1.281   4.735  20.450  0.00  0.00    +0.000 N 
ATOM      2  C   UNL     1       2.192   3.699  20.446  0.00  0.00    +0.000 C 
ATOM      3  O   UNL     1       3.362   3.821  20.813  0.00  0.00    +0.000 OA
ATOM      4  H   UNL     1       0.380   4.607  19.999  0.00  0.00    +0.000 HD
ENDROOT
BRANCH   1   5
ATOM      5  C   UNL     1       1.683   6.070  20.851  0.00  0.00    +0.000 C 
BRANCH   5   6
ATOM      6  C   UNL     1       2.181   6.952  19.701  0.00  0.00    +0.000 C 
BRANCH   6  10
ATOM      7  C   UNL     1       0.638  11.003  19.811  0.00  0.00    +0.000 A 
ATOM      8  C   UNL     1       1.061  10.427  18.605  0.00  0.00    +0.000 A 
ATOM      9  C   UNL     1       1.579   9.132  18.566  0.00  0.00    +0.000 A 
ATOM     10  C   UNL     1       1.718   8.389  19.739  0.00  0.00    +0.000 A 
ATOM     11  C   UNL     1       1.356   8.990  20.954  0.00  0.00    +0.000 A 
ATOM     12  C   UNL     1       0.852  10.301  21.007  0.00  0.00    +0.000 A 
BRANCH   7  13
ATOM     13  O   UNL     1      -0.002  12.214  19.859  0.00  0.00    +0.000 OA
BRANCH  13  15
ATOM     14  C   UNL     1      -0.390  14.445  19.067  0.00  0.00    +0.000 C 
ATOM     15  C   UNL     1       0.539  13.247  19.030  0.00  0.00    +0.000 C 
ENDBRANCH  13  15
ENDBRANCH   7  13
BRANCH  12  16
ATOM     16  O   UNL     1       0.577  10.717  22.286  0.00  0.00    +0.000 OA
BRANCH  16  17
ATOM     17  C   UNL     1      -0.642  10.262  22.872  0.00  0.00    +0.000 C 
ATOM     18  C   UNL     1      -1.590  11.446  22.983  0.00  0.00    +0.000 C 
ENDBRANCH  16  17
ENDBRANCH  12  16
ENDBRANCH   6  10
ENDBRANCH   5   6
ENDBRANCH   1   5
BRANCH   2  19
ATOM     19  C   UNL     1       1.668   2.396  19.877  0.00  0.00    +0.000 C 
BRANCH  19  20
ATOM     20  S   UNL     1       2.869   1.723  18.683  0.00  0.00    +0.000 S 
BRANCH  20  21
ATOM     21  C   UNL     1       2.757   2.988  17.366  0.00  0.00    +0.000 C 
BRANCH  21  22
ATOM     22  C   UNL     1       4.082   3.702  17.160  0.00  0.00    +0.000 C 
ATOM     23  O   UNL     1       4.855   3.334  16.277  0.00  0.00    +0.000 OA
ATOM     24  N   UNL     1       4.307   4.757  18.039  0.00  0.00    +0.000 N 
ATOM     25  H   UNL     1       3.696   4.818  18.853  0.00  0.00    +0.000 HD
BRANCH  24  26
ATOM     26  C   UNL     1       5.399   5.657  18.000  0.00  0.00    +0.000 A 
ATOM     27  C   UNL     1       5.404   6.819  17.226  0.00  0.00    +0.000 A 
ATOM     28  C   UNL     1       6.521   7.657  17.198  0.00  0.00    +0.000 A 
ATOM     29  C   UNL     1       7.645   7.368  17.966  0.00  0.00    +0.000 A 
ATOM     30  C   UNL     1       7.649   6.221  18.762  0.00  0.00    +0.000 A 
ATOM     31  C   UNL     1       6.529   5.373  18.781  0.00  0.00    +0.000 A 
BRANCH  29  32
ATOM     32  O   UNL     1       8.678   8.248  17.828  0.00  0.00    +0.000 OA
ATOM     33  C   UNL     1       8.438   9.565  18.305  0.00  0.00    +0.000 C 
ENDBRANCH  29  32
ENDBRANCH  24  26
ENDBRANCH  21  22
ENDBRANCH  20  21
ENDBRANCH  19  20
ENDBRANCH   2  19
TORSDOF 13
ENDMDL
MODEL 7
REMARK VINA RESULT:      -6.5      1.026      1.191
REMARK  Name = 
REMARK  16 active torsions:
REMARK  status: ('A' for Active; 'I' for Inactive)
REMARK    1  A    between atoms: C_1  and  C_2
REMARK    2  A    between atoms: C_2  and  O_3
REMARK    3  A    between atoms: O_3  and  C_4
REMARK    4  A    between atoms: C_7  and  C_8
REMARK    5  A    between atoms: C_8  and  C_9
REMARK    6  A    between atoms: C_9  and  N_10
REMARK    7  A    between atoms: C_11  and  C_13
REMARK    8  A    between atoms: C_13  and  S_14
REMARK    9  A    between atoms: S_14  and  C_15
REMARK   10  A    between atoms: C_15  and  C_16
REMARK   11  A    between atoms: N_18  and  C_19
REMARK   12  A    between atoms: C_22  and  O_23
REMARK   13  A    between atoms: O_23  and  C_24
REMARK   14  A    between atoms: C_28  and  O_29
REMARK   15  A    between atoms: O_29  and  C_30
REMARK   16  A    between atoms: C_30  and  C_31
REMARK                            x       y       z     vdW  Elec       q    Type
REMARK                         _______ _______ _______ _____ _____    ______ ____
ROOT
ATOM      1  N   UNL     1       1.381   4.252  20.060  0.00  0.00    +0.000 N 
ATOM      2  C   UNL     1       1.886   3.126  20.677  0.00  0.00    +0.000 C 
ATOM      3  O   UNL     1       2.243   3.097  21.855  0.00  0.00    +0.000 OA
ATOM      4  H   UNL     1       1.246   4.251  19.055  0.00  0.00    +0.000 HD
ENDROOT
BRANCH   1   5
ATOM      5  C   UNL     1       1.292   5.508  20.780  0.00  0.00    +0.000 C 
BRANCH   5   6
ATOM      6  C   UNL     1       1.999   6.682  20.094  0.00  0.00    +0.000 C 
BRANCH   6  10
ATOM      7  C   UNL     1       0.769  10.693  21.193  0.00  0.00    +0.000 A 
ATOM      8  C   UNL     1       0.850   9.677  22.155  0.00  0.00    +0.000 A 
ATOM      9  C   UNL     1       1.224   8.378  21.805  0.00  0.00    +0.000 A 
ATOM     10  C   UNL     1       1.496   8.054  20.475  0.00  0.00    +0.000 A 
ATOM     11  C   UNL     1       1.352   9.056  19.503  0.00  0.00    +0.000 A 
ATOM     12  C   UNL     1       0.956  10.361  19.842  0.00  0.00    +0.000 A 
BRANCH   7  13
ATOM     13  O   UNL     1       0.544  12.002  21.529  0.00  0.00    +0.000 OA
BRANCH  13  15
ATOM     14  C   UNL     1      -1.455  12.042  22.855  0.00  0.00    +0.000 C 
ATOM     15  C   UNL     1      -0.823  12.426  21.531  0.00  0.00    +0.000 C 
ENDBRANCH  13  15
ENDBRANCH   7  13
BRANCH  12  16
ATOM     16  O   UNL     1       0.851  11.189  18.752  0.00  0.00    +0.000 OA
BRANCH  16  17
ATOM     17  C   UNL     1       2.067  11.614  18.136  0.00  0.00    +0.000 C 
ATOM     18  C   UNL     1       2.444  12.971  18.711  0.00  0.00    +0.000 C 
ENDBRANCH  16  17
ENDBRANCH  12  16
ENDBRANCH   6  10
ENDBRANCH   5   6
ENDBRANCH   1   5
BRANCH   2  19
ATOM     19  C   UNL     1       2.047   1.924  19.767  0.00  0.00    +0.000 C 
BRANCH  19  20
ATOM     20  S   UNL     1       1.931   2.452  18.027  0.00  0.00    +0.000 S 
BRANCH  20  21
ATOM     21  C   UNL     1       3.707   2.555  17.603  0.00  0.00    +0.000 C 
BRANCH  21  22
ATOM     22  C   UNL     1       4.264   3.946  17.852  0.00  0.00    +0.000 C 
ATOM     23  O   UNL     1       3.527   4.848  18.249  0.00  0.00    +0.000 OA
ATOM     24  N   UNL     1       5.625   4.073  17.593  0.00  0.00    +0.000 N 
ATOM     25  H   UNL     1       6.067   3.319  17.068  0.00  0.00    +0.000 HD
BRANCH  24  26
ATOM     26  C   UNL     1       6.418   5.218  17.844  0.00  0.00    +0.000 A 
ATOM     27  C   UNL     1       6.318   6.396  17.100  0.00  0.00    +0.000 A 
ATOM     28  C   UNL     1       7.147   7.487  17.369  0.00  0.00    +0.000 A 
ATOM     29  C   UNL     1       8.074   7.436  18.406  0.00  0.00    +0.000 A 
ATOM     30  C   UNL     1       8.173   6.274  19.174  0.00  0.00    +0.000 A 
ATOM     31  C   UNL     1       7.345   5.174  18.896  0.00  0.00    +0.000 A 
BRANCH  29  32
ATOM     32  O   UNL     1       8.842   8.554  18.545  0.00  0.00    +0.000 OA
ATOM     33  C   UNL     1       8.293   9.754  18.017  0.00  0.00    +0.000 C 
ENDBRANCH  29  32
ENDBRANCH  24  26
ENDBRANCH  21  22
ENDBRANCH  20  21
ENDBRANCH  19  20
ENDBRANCH   2  19
TORSDOF 13
ENDMDL
MODEL 8
REMARK VINA RESULT:      -6.5      1.153      2.517
REMARK  Name = 
REMARK  16 active torsions:
REMARK  status: ('A' for Active; 'I' for Inactive)
REMARK    1  A    between atoms: C_1  and  C_2
REMARK    2  A    between atoms: C_2  and  O_3
REMARK    3  A    between atoms: O_3  and  C_4
REMARK    4  A    between atoms: C_7  and  C_8
REMARK    5  A    between atoms: C_8  and  C_9
REMARK    6  A    between atoms: C_9  and  N_10
REMARK    7  A    between atoms: C_11  and  C_13
REMARK    8  A    between atoms: C_13  and  S_14
REMARK    9  A    between atoms: S_14  and  C_15
REMARK   10  A    between atoms: C_15  and  C_16
REMARK   11  A    between atoms: N_18  and  C_19
REMARK   12  A    between atoms: C_22  and  O_23
REMARK   13  A    between atoms: O_23  and  C_24
REMARK   14  A    between atoms: C_28  and  O_29
REMARK   15  A    between atoms: O_29  and  C_30
REMARK   16  A    between atoms: C_30  and  C_31
REMARK                            x       y       z     vdW  Elec       q    Type
REMARK                         _______ _______ _______ _____ _____    ______ ____
ROOT
ATOM      1  N   UNL     1       1.903   6.181  20.917  0.00  0.00    +0.000 N 
ATOM      2  C   UNL     1       1.931   5.118  20.039  0.00  0.00    +0.000 C 
ATOM      3  O   UNL     1       1.975   5.247  18.815  0.00  0.00    +0.000 OA
ATOM      4  H   UNL     1       1.718   6.010  21.901  0.00  0.00    +0.000 HD
ENDROOT
BRANCH   1   5
ATOM      5  C   UNL     1       1.872   7.545  20.423  0.00  0.00    +0.000 C 
BRANCH   5   6
ATOM      6  C   UNL     1       1.035   8.507  21.273  0.00  0.00    +0.000 C 
BRANCH   6  10
ATOM      7  C   UNL     1      -0.227  12.151  19.291  0.00  0.00    +0.000 A 
ATOM      8  C   UNL     1       0.637  11.249  18.655  0.00  0.00    +0.000 A 
ATOM      9  C   UNL     1       1.065  10.085  19.295  0.00  0.00    +0.000 A 
ATOM     10  C   UNL     1       0.664   9.808  20.604  0.00  0.00    +0.000 A 
ATOM     11  C   UNL     1      -0.148  10.743  21.262  0.00  0.00    +0.000 A 
ATOM     12  C   UNL     1      -0.568  11.928  20.634  0.00  0.00    +0.000 A 
BRANCH   7  13
ATOM     13  O   UNL     1      -0.774  13.226  18.638  0.00  0.00    +0.000 OA
BRANCH  13  15
ATOM     14  C   UNL     1       1.294  14.437  18.743  0.00  0.00    +0.000 C 
ATOM     15  C   UNL     1      -0.207  14.504  18.944  0.00  0.00    +0.000 C 
ENDBRANCH  13  15
ENDBRANCH   7  13
BRANCH  12  16
ATOM     16  O   UNL     1      -1.337  12.722  21.448  0.00  0.00    +0.000 OA
BRANCH  16  17
ATOM     17  C   UNL     1      -1.125  12.613  22.855  0.00  0.00    +0.000 C 
ATOM     18  C   UNL     1      -1.528  13.930  23.502  0.00  0.00    +0.000 C 
ENDBRANCH  16  17
ENDBRANCH  12  16
ENDBRANCH   6  10
ENDBRANCH   5   6
ENDBRANCH   1   5
BRANCH   2  19
ATOM     19  C   UNL     1       1.824   3.754  20.692  0.00  0.00    +0.000 C 
BRANCH  19  20
ATOM     20  S   UNL     1       1.865   2.458  19.412  0.00  0.00    +0.000 S 
BRANCH  20  21
ATOM     21  C   UNL     1       3.659   2.105  19.369  0.00  0.00    +0.000 C 
BRANCH  21  22
ATOM     22  C   UNL     1       4.411   3.121  18.527  0.00  0.00    +0.000 C 
ATOM     23  O   UNL     1       4.327   3.095  17.300  0.00  0.00    +0.000 OA
ATOM     24  N   UNL     1       5.163   4.031  19.263  0.00  0.00    +0.000 N 
ATOM     25  H   UNL     1       5.320   3.811  20.247  0.00  0.00    +0.000 HD
BRANCH  24  26
ATOM     26  C   UNL     1       5.867   5.145  18.744  0.00  0.00    +0.000 A 
ATOM     27  C   UNL     1       5.318   6.029  17.814  0.00  0.00    +0.000 A 
ATOM     28  C   UNL     1       6.067   7.095  17.309  0.00  0.00    +0.000 A 
ATOM     29  C   UNL     1       7.369   7.318  17.747  0.00  0.00    +0.000 A 
ATOM     30  C   UNL     1       7.926   6.455  18.693  0.00  0.00    +0.000 A 
ATOM     31  C   UNL     1       7.176   5.378  19.191  0.00  0.00    +0.000 A 
BRANCH  29  32
ATOM     32  O   UNL     1       8.001   8.371  17.156  0.00  0.00    +0.000 OA
ATOM     33  C   UNL     1       8.376   9.435  18.022  0.00  0.00    +0.000 C 
ENDBRANCH  29  32
ENDBRANCH  24  26
ENDBRANCH  21  22
ENDBRANCH  20  21
ENDBRANCH  19  20
ENDBRANCH   2  19
TORSDOF 13
ENDMDL
MODEL 9
REMARK VINA RESULT:      -6.4      3.692      8.083
REMARK  Name = 
REMARK  16 active torsions:
REMARK  status: ('A' for Active; 'I' for Inactive)
REMARK    1  A    between atoms: C_1  and  C_2
REMARK    2  A    between atoms: C_2  and  O_3
REMARK    3  A    between atoms: O_3  and  C_4
REMARK    4  A    between atoms: C_7  and  C_8
REMARK    5  A    between atoms: C_8  and  C_9
REMARK    6  A    between atoms: C_9  and  N_10
REMARK    7  A    between atoms: C_11  and  C_13
REMARK    8  A    between atoms: C_13  and  S_14
REMARK    9  A    between atoms: S_14  and  C_15
REMARK   10  A    between atoms: C_15  and  C_16
REMARK   11  A    between atoms: N_18  and  C_19
REMARK   12  A    between atoms: C_22  and  O_23
REMARK   13  A    between atoms: O_23  and  C_24
REMARK   14  A    between atoms: C_28  and  O_29
REMARK   15  A    between atoms: O_29  and  C_30
REMARK   16  A    between atoms: C_30  and  C_31
REMARK                            x       y       z     vdW  Elec       q    Type
REMARK                         _______ _______ _______ _____ _____    ______ ____
ROOT
ATOM      1  N   UNL     1       7.707   6.914  17.856  0.00  0.00    +0.000 N 
ATOM      2  C   UNL     1       7.595   5.669  18.439  0.00  0.00    +0.000 C 
ATOM      3  O   UNL     1       7.983   5.415  19.581  0.00  0.00    +0.000 OA
ATOM      4  H   UNL     1       7.506   7.020  16.867  0.00  0.00    +0.000 HD
ENDROOT
BRANCH   1   5
ATOM      5  C   UNL     1       8.353   8.004  18.563  0.00  0.00    +0.000 C 
BRANCH   5   6
ATOM      6  C   UNL     1       8.391   9.325  17.789  0.00  0.00    +0.000 C 
BRANCH   6  10
ATOM      7  C   UNL     1      10.326  12.622  19.836  0.00  0.00    +0.000 A 
ATOM      8  C   UNL     1      10.008  11.439  20.518  0.00  0.00    +0.000 A 
ATOM      9  C   UNL     1       9.365  10.382  19.871  0.00  0.00    +0.000 A 
ATOM     10  C   UNL     1       8.994  10.494  18.530  0.00  0.00    +0.000 A 
ATOM     11  C   UNL     1       9.255  11.702  17.866  0.00  0.00    +0.000 A 
ATOM     12  C   UNL     1       9.883  12.779  18.514  0.00  0.00    +0.000 A 
BRANCH   7  13
ATOM     13  O   UNL     1      11.079  13.615  20.406  0.00  0.00    +0.000 OA
BRANCH  13  15
ATOM     14  C   UNL     1      11.182  15.905  21.114  0.00  0.00    +0.000 C 
ATOM     15  C   UNL     1      10.356  14.633  21.104  0.00  0.00    +0.000 C 
ENDBRANCH  13  15
ENDBRANCH   7  13
BRANCH  12  16
ATOM     16  O   UNL     1      10.030  13.879  17.705  0.00  0.00    +0.000 OA
BRANCH  16  17
ATOM     17  C   UNL     1      11.251  13.992  16.974  0.00  0.00    +0.000 C 
ATOM     18  C   UNL     1      11.906  15.315  17.342  0.00  0.00    +0.000 C 
ENDBRANCH  16  17
ENDBRANCH  12  16
ENDBRANCH   6  10
ENDBRANCH   5   6
ENDBRANCH   1   5
BRANCH   2  19
ATOM     19  C   UNL     1       7.022   4.594  17.536  0.00  0.00    +0.000 C 
BRANCH  19  20
ATOM     20  S   UNL     1       5.454   5.174  16.813  0.00  0.00    +0.000 S 
BRANCH  20  21
ATOM     21  C   UNL     1       4.422   5.275  18.320  0.00  0.00    +0.000 C 
BRANCH  21  22
ATOM     22  C   UNL     1       3.622   6.565  18.367  0.00  0.00    +0.000 C 
ATOM     23  O   UNL     1       3.679   7.365  17.434  0.00  0.00    +0.000 OA
ATOM     24  N   UNL     1       2.865   6.727  19.522  0.00  0.00    +0.000 N 
ATOM     25  H   UNL     1       3.073   6.105  20.303  0.00  0.00    +0.000 HD
BRANCH  24  26
ATOM     26  C   UNL     1       1.947   7.775  19.778  0.00  0.00    +0.000 A 
ATOM     27  C   UNL     1       1.647   8.772  18.847  0.00  0.00    +0.000 A 
ATOM     28  C   UNL     1       0.757   9.802  19.161  0.00  0.00    +0.000 A 
ATOM     29  C   UNL     1       0.125   9.840  20.400  0.00  0.00    +0.000 A 
ATOM     30  C   UNL     1       0.397   8.839  21.335  0.00  0.00    +0.000 A 
ATOM     31  C   UNL     1       1.300   7.810  21.021  0.00  0.00    +0.000 A 
BRANCH  29  32
ATOM     32  O   UNL     1      -0.696  10.912  20.593  0.00  0.00    +0.000 OA
ATOM     33  C   UNL     1      -0.058  12.181  20.647  0.00  0.00    +0.000 C 
ENDBRANCH  29  32
ENDBRANCH  24  26
ENDBRANCH  21  22
ENDBRANCH  20  21
ENDBRANCH  19  20
ENDBRANCH   2  19
TORSDOF 13
ENDMDL
