MODEL 1
REMARK VINA RESULT:      -7.2      0.000      0.000
REMARK  Name = 
REMARK  11 active torsions:
REMARK  status: ('A' for Active; 'I' for Inactive)
REMARK    1  A    between atoms: C_2  and  C_3
REMARK    2  A    between atoms: C_3  and  C_4
REMARK    3  A    between atoms: C_4  and  C_5
REMARK    4  A    between atoms: C_5  and  C_6
REMARK    5  A    between atoms: C_6  and  C_7
REMARK    6  A    between atoms: C_7  and  C_8
REMARK    7  A    between atoms: C_8  and  C_9
REMARK    8  A    between atoms: N_11  and  C_12
REMARK    9  A    between atoms: N_18  and  O_19
REMARK   10  A    between atoms: O_19  and  C_20
REMARK   11  A    between atoms: C_20  and  C_22
REMARK                            x       y       z     vdW  Elec       q    Type
REMARK                         _______ _______ _______ _____ _____    ______ ____
ROOT
ATOM      1  C   UNL     1       1.492   4.668  20.416  0.00  0.00    +0.000 C 
ENDROOT
BRANCH   1   2
ATOM      2  C   UNL     1       2.656   5.638  20.206  0.00  0.00    +0.000 C 
BRANCH   2   4
ATOM      3  O   UNL     1       2.436   7.654  18.910  0.00  0.00    +0.000 OA
ATOM      4  C   UNL     1       2.171   7.051  19.945  0.00  0.00    +0.000 C 
ATOM      5  N   UNL     1       1.445   7.575  20.977  0.00  0.00    +0.000 N 
ATOM      6  H   UNL     1       1.190   7.085  21.831  0.00  0.00    +0.000 HD
BRANCH   5   7
ATOM      7  O   UNL     1       0.920   8.877  20.814  0.00  0.00    +0.000 OA
BRANCH   7   8
ATOM      8  C   UNL     1       1.049   9.601  21.967  0.00  0.00    +0.000 C 
ATOM      9  O   UNL     1       1.954   9.417  22.775  0.00  0.00    +0.000 OA
BRANCH   8  10
ATOM     10  C   UNL     1      -0.024  10.615  22.105  0.00  0.00    +0.000 A 
ATOM     11  C   UNL     1      -0.985  10.589  23.036  0.00  0.00    +0.000 A 
ATOM     12  S   UNL     1      -2.144  11.881  23.016  0.00  0.00    +0.000 S 
ATOM     13  C   UNL     1      -1.463  12.741  21.635  0.00  0.00    +0.000 A 
ATOM     14  S   UNL     1      -2.090  14.158  21.023  0.00  0.00    +0.000 S 
ATOM     15  S   UNL     1      -0.044  11.938  20.977  0.00  0.00    +0.000 S 
ENDBRANCH   8  10
ENDBRANCH   7   8
ENDBRANCH   5   7
ENDBRANCH   2   4
ENDBRANCH   1   2
BRANCH   1  16
ATOM     16  C   UNL     1       1.862   3.539  21.374  0.00  0.00    +0.000 C 
BRANCH  16  17
ATOM     17  C   UNL     1       2.893   2.588  20.753  0.00  0.00    +0.000 C 
BRANCH  17  18
ATOM     18  C   UNL     1       2.350   2.010  19.452  0.00  0.00    +0.000 C 
BRANCH  18  19
ATOM     19  C   UNL     1       3.418   1.737  18.386  0.00  0.00    +0.000 C 
BRANCH  19  20
ATOM     20  C   UNL     1       3.894   3.065  17.817  0.00  0.00    +0.000 C 
ATOM     21  O   UNL     1       3.219   3.664  16.981  0.00  0.00    +0.000 OA
ATOM     22  N   UNL     1       5.116   3.493  18.310  0.00  0.00    +0.000 N 
ATOM     23  H   UNL     1       5.672   2.827  18.831  0.00  0.00    +0.000 HD
BRANCH  22  24
ATOM     24  C   UNL     1       5.730   4.723  17.975  0.00  0.00    +0.000 A 
ATOM     25  C   UNL     1       7.041   5.041  18.347  0.00  0.00    +0.000 A 
ATOM     26  C   UNL     1       7.594   6.285  18.044  0.00  0.00    +0.000 A 
ATOM     27  C   UNL     1       6.845   7.228  17.353  0.00  0.00    +0.000 A 
ATOM     28  C   UNL     1       5.551   6.914  16.944  0.00  0.00    +0.000 A 
ATOM     29  C   UNL     1       4.997   5.663  17.243  0.00  0.00    +0.000 A 
ENDBRANCH  22  24
ENDBRANCH  19  20
ENDBRANCH  18  19
ENDBRANCH  17  18
ENDBRANCH  16  17
ENDBRANCH   1  16
TORSDOF 11
ENDMDL
MODEL 2
REMARK VINA RESULT:      -7.2      5.392      7.813
REMARK  Name = 
REMARK  11 active torsions:
REMARK  status: ('A' for Active; 'I' for Inactive)
REMARK    1  A    between atoms: C_2  and  C_3
REMARK    2  A    between atoms: C_3  and  C_4
REMARK    3  A    between atoms: C_4  and  C_5
REMARK    4  A    between atoms: C_5  and  C_6
REMARK    5  A    between atoms: C_6  and  C_7
REMARK    6  A    between atoms: C_7  and  C_8
REMARK    7  A    between atoms: C_8  and  C_9
REMARK    8  A    between atoms: N_11  and  C_12
REMARK    9  A    between atoms: N_18  and  O_19
REMARK   10  A    between atoms: O_19  and  C_20
REMARK   11  A    between atoms: C_20  and  C_22
REMARK                            x       y       z     vdW  Elec       q    Type
REMARK                         _______ _______ _______ _____ _____    ______ ____
ROOT
ATOM      1  C   UNL     1       7.090   5.818  18.716  0.00  0.00    +0.000 C 
ENDROOT
BRANCH   1   2
ATOM      2  C   UNL     1       8.372   6.631  18.902  0.00  0.00    +0.000 C 
BRANCH   2   4
ATOM      3  O   UNL     1       7.579   8.275  17.333  0.00  0.00    +0.000 OA
ATOM      4  C   UNL     1       8.234   8.034  18.342  0.00  0.00    +0.000 C 
ATOM      5  N   UNL     1       8.925   8.973  19.053  0.00  0.00    +0.000 N 
ATOM      6  H   UNL     1       9.451   8.801  19.907  0.00  0.00    +0.000 HD
BRANCH   5   7
ATOM      7  O   UNL     1       8.830  10.317  18.628  0.00  0.00    +0.000 OA
BRANCH   7   8
ATOM      8  C   UNL     1       9.244  11.169  19.616  0.00  0.00    +0.000 C 
ATOM      9  O   UNL     1       9.433  10.811  20.774  0.00  0.00    +0.000 OA
BRANCH   8  10
ATOM     10  C   UNL     1       9.430  12.550  19.110  0.00  0.00    +0.000 A 
ATOM     11  C   UNL     1       8.654  13.594  19.432  0.00  0.00    +0.000 A 
ATOM     12  S   UNL     1       9.054  15.127  18.723  0.00  0.00    +0.000 S 
ATOM     13  C   UNL     1      10.451  14.567  17.804  0.00  0.00    +0.000 A 
ATOM     14  S   UNL     1      11.387  15.555  16.843  0.00  0.00    +0.000 S 
ATOM     15  S   UNL     1      10.750  12.847  18.019  0.00  0.00    +0.000 S 
ENDBRANCH   8  10
ENDBRANCH   7   8
ENDBRANCH   5   7
ENDBRANCH   2   4
ENDBRANCH   1   2
BRANCH   1  16
ATOM     16  C   UNL     1       7.298   4.643  17.765  0.00  0.00    +0.000 C 
BRANCH  16  17
ATOM     17  C   UNL     1       7.101   5.061  16.301  0.00  0.00    +0.000 C 
BRANCH  17  18
ATOM     18  C   UNL     1       5.638   4.904  15.908  0.00  0.00    +0.000 C 
BRANCH  18  19
ATOM     19  C   UNL     1       4.766   6.130  16.206  0.00  0.00    +0.000 C 
BRANCH  19  20
ATOM     20  C   UNL     1       3.832   5.799  17.360  0.00  0.00    +0.000 C 
ATOM     21  O   UNL     1       3.256   6.696  17.973  0.00  0.00    +0.000 OA
ATOM     22  N   UNL     1       3.722   4.447  17.636  0.00  0.00    +0.000 N 
ATOM     23  H   UNL     1       4.393   3.822  17.208  0.00  0.00    +0.000 HD
BRANCH  22  24
ATOM     24  C   UNL     1       2.868   3.896  18.622  0.00  0.00    +0.000 A 
ATOM     25  C   UNL     1       1.573   3.450  18.338  0.00  0.00    +0.000 A 
ATOM     26  C   UNL     1       0.743   2.961  19.346  0.00  0.00    +0.000 A 
ATOM     27  C   UNL     1       1.200   2.903  20.656  0.00  0.00    +0.000 A 
ATOM     28  C   UNL     1       2.500   3.309  20.949  0.00  0.00    +0.000 A 
ATOM     29  C   UNL     1       3.336   3.794  19.937  0.00  0.00    +0.000 A 
ENDBRANCH  22  24
ENDBRANCH  19  20
ENDBRANCH  18  19
ENDBRANCH  17  18
ENDBRANCH  16  17
ENDBRANCH   1  16
TORSDOF 11
ENDMDL
MODEL 3
REMARK VINA RESULT:      -7.1      2.166      2.529
REMARK  Name = 
REMARK  11 active torsions:
REMARK  status: ('A' for Active; 'I' for Inactive)
REMARK    1  A    between atoms: C_2  and  C_3
REMARK    2  A    between atoms: C_3  and  C_4
REMARK    3  A    between atoms: C_4  and  C_5
REMARK    4  A    between atoms: C_5  and  C_6
REMARK    5  A    between atoms: C_6  and  C_7
REMARK    6  A    between atoms: C_7  and  C_8
REMARK    7  A    between atoms: C_8  and  C_9
REMARK    8  A    between atoms: N_11  and  C_12
REMARK    9  A    between atoms: N_18  and  O_19
REMARK   10  A    between atoms: O_19  and  C_20
REMARK   11  A    between atoms: C_20  and  C_22
REMARK                            x       y       z     vdW  Elec       q    Type
REMARK                         _______ _______ _______ _____ _____    ______ ____
ROOT
ATOM      1  C   UNL     1       1.208   4.667  20.591  0.00  0.00    +0.000 C 
ENDROOT
BRANCH   1   2
ATOM      2  C   UNL     1       2.237   5.772  20.343  0.00  0.00    +0.000 C 
BRANCH   2   4
ATOM      3  O   UNL     1       1.063   7.435  21.626  0.00  0.00    +0.000 OA
ATOM      4  C   UNL     1       1.653   7.150  20.589  0.00  0.00    +0.000 C 
ATOM      5  N   UNL     1       1.831   8.010  19.543  0.00  0.00    +0.000 N 
ATOM      6  H   UNL     1       2.340   7.804  18.687  0.00  0.00    +0.000 HD
BRANCH   5   7
ATOM      7  O   UNL     1       1.351   9.330  19.692  0.00  0.00    +0.000 OA
BRANCH   7   8
ATOM      8  C   UNL     1       1.030   9.870  18.477  0.00  0.00    +0.000 C 
ATOM      9  O   UNL     1       1.737   9.749  17.482  0.00  0.00    +0.000 OA
BRANCH   8  10
ATOM     10  C   UNL     1      -0.259  10.602  18.521  0.00  0.00    +0.000 A 
ATOM     11  C   UNL     1      -0.503  11.676  19.284  0.00  0.00    +0.000 A 
ATOM     12  S   UNL     1      -2.086  12.380  19.181  0.00  0.00    +0.000 S 
ATOM     13  C   UNL     1      -2.732  11.249  17.990  0.00  0.00    +0.000 A 
ATOM     14  S   UNL     1      -4.280  11.327  17.381  0.00  0.00    +0.000 S 
ATOM     15  S   UNL     1      -1.555  10.031  17.514  0.00  0.00    +0.000 S 
ENDBRANCH   8  10
ENDBRANCH   7   8
ENDBRANCH   5   7
ENDBRANCH   2   4
ENDBRANCH   1   2
BRANCH   1  16
ATOM     16  C   UNL     1       1.816   3.488  21.345  0.00  0.00    +0.000 C 
BRANCH  16  17
ATOM     17  C   UNL     1       2.602   2.563  20.407  0.00  0.00    +0.000 C 
BRANCH  17  18
ATOM     18  C   UNL     1       1.735   2.171  19.217  0.00  0.00    +0.000 C 
BRANCH  18  19
ATOM     19  C   UNL     1       2.500   2.027  17.896  0.00  0.00    +0.000 C 
BRANCH  19  20
ATOM     20  C   UNL     1       3.279   3.307  17.638  0.00  0.00    +0.000 C 
ATOM     21  O   UNL     1       2.695   4.337  17.305  0.00  0.00    +0.000 OA
ATOM     22  N   UNL     1       4.649   3.184  17.798  0.00  0.00    +0.000 N 
ATOM     23  H   UNL     1       5.033   2.251  17.870  0.00  0.00    +0.000 HD
BRANCH  22  24
ATOM     24  C   UNL     1       5.571   4.251  17.672  0.00  0.00    +0.000 A 
ATOM     25  C   UNL     1       6.072   4.953  18.774  0.00  0.00    +0.000 A 
ATOM     26  C   UNL     1       6.938   6.033  18.606  0.00  0.00    +0.000 A 
ATOM     27  C   UNL     1       7.325   6.422  17.331  0.00  0.00    +0.000 A 
ATOM     28  C   UNL     1       6.864   5.711  16.225  0.00  0.00    +0.000 A 
ATOM     29  C   UNL     1       5.999   4.623  16.393  0.00  0.00    +0.000 A 
ENDBRANCH  22  24
ENDBRANCH  19  20
ENDBRANCH  18  19
ENDBRANCH  17  18
ENDBRANCH  16  17
ENDBRANCH   1  16
TORSDOF 11
ENDMDL
MODEL 4
REMARK VINA RESULT:      -7.1      6.449      8.817
REMARK  Name = 
REMARK  11 active torsions:
REMARK  status: ('A' for Active; 'I' for Inactive)
REMARK    1  A    between atoms: C_2  and  C_3
REMARK    2  A    between atoms: C_3  and  C_4
REMARK    3  A    between atoms: C_4  and  C_5
REMARK    4  A    between atoms: C_5  and  C_6
REMARK    5  A    between atoms: C_6  and  C_7
REMARK    6  A    between atoms: C_7  and  C_8
REMARK    7  A    between atoms: C_8  and  C_9
REMARK    8  A    between atoms: N_11  and  C_12
REMARK    9  A    between atoms: N_18  and  O_19
REMARK   10  A    between atoms: O_19  and  C_20
REMARK   11  A    between atoms: C_20  and  C_22
REMARK                            x       y       z     vdW  Elec       q    Type
REMARK                         _______ _______ _______ _____ _____    ______ ____
ROOT
ATOM      1  C   UNL     1       8.160   7.762  18.265  0.00  0.00    +0.000 C 
ENDROOT
BRANCH   1   2
ATOM      2  C   UNL     1       8.187   9.164  17.654  0.00  0.00    +0.000 C 
BRANCH   2   4
ATOM      3  O   UNL     1       9.254   9.867  19.693  0.00  0.00    +0.000 OA
ATOM      4  C   UNL     1       8.882  10.161  18.562  0.00  0.00    +0.000 C 
ATOM      5  N   UNL     1       9.022  11.399  18.003  0.00  0.00    +0.000 N 
ATOM      6  H   UNL     1       8.747  11.657  17.058  0.00  0.00    +0.000 HD
BRANCH   5   7
ATOM      7  O   UNL     1       9.690  12.388  18.760  0.00  0.00    +0.000 OA
BRANCH   7   8
ATOM      8  C   UNL     1      10.863  12.750  18.158  0.00  0.00    +0.000 C 
ATOM      9  O   UNL     1      11.592  11.953  17.576  0.00  0.00    +0.000 OA
BRANCH   8  10
ATOM     10  C   UNL     1      11.129  14.202  18.297  0.00  0.00    +0.000 A 
ATOM     11  C   UNL     1      12.226  14.729  18.856  0.00  0.00    +0.000 A 
ATOM     12  S   UNL     1      12.333  16.460  18.915  0.00  0.00    +0.000 S 
ATOM     13  C   UNL     1      10.789  16.785  18.126  0.00  0.00    +0.000 A 
ATOM     14  S   UNL     1      10.206  18.315  17.821  0.00  0.00    +0.000 S 
ATOM     15  S   UNL     1       9.933  15.310  17.694  0.00  0.00    +0.000 S 
ENDBRANCH   8  10
ENDBRANCH   7   8
ENDBRANCH   5   7
ENDBRANCH   2   4
ENDBRANCH   1   2
BRANCH   1  16
ATOM     16  C   UNL     1       7.474   6.757  17.344  0.00  0.00    +0.000 C 
BRANCH  16  17
ATOM     17  C   UNL     1       5.993   7.103  17.136  0.00  0.00    +0.000 C 
BRANCH  17  18
ATOM     18  C   UNL     1       5.408   6.239  16.026  0.00  0.00    +0.000 C 
BRANCH  18  19
ATOM     19  C   UNL     1       5.615   4.732  16.222  0.00  0.00    +0.000 C 
BRANCH  19  20
ATOM     20  C   UNL     1       4.921   4.305  17.506  0.00  0.00    +0.000 C 
ATOM     21  O   UNL     1       5.578   3.921  18.472  0.00  0.00    +0.000 OA
ATOM     22  N   UNL     1       3.538   4.378  17.460  0.00  0.00    +0.000 N 
ATOM     23  H   UNL     1       3.103   4.508  16.556  0.00  0.00    +0.000 HD
BRANCH  22  24
ATOM     24  C   UNL     1       2.683   4.091  18.551  0.00  0.00    +0.000 A 
ATOM     25  C   UNL     1       2.555   4.939  19.656  0.00  0.00    +0.000 A 
ATOM     26  C   UNL     1       1.742   4.597  20.736  0.00  0.00    +0.000 A 
ATOM     27  C   UNL     1       1.035   3.402  20.723  0.00  0.00    +0.000 A 
ATOM     28  C   UNL     1       1.124   2.563  19.614  0.00  0.00    +0.000 A 
ATOM     29  C   UNL     1       1.935   2.909  18.527  0.00  0.00    +0.000 A 
ENDBRANCH  22  24
ENDBRANCH  19  20
ENDBRANCH  18  19
ENDBRANCH  17  18
ENDBRANCH  16  17
ENDBRANCH   1  16
TORSDOF 11
ENDMDL
MODEL 5
REMARK VINA RESULT:      -7.0      2.722      3.090
REMARK  Name = 
REMARK  11 active torsions:
REMARK  status: ('A' for Active; 'I' for Inactive)
REMARK    1  A    between atoms: C_2  and  C_3
REMARK    2  A    between atoms: C_3  and  C_4
REMARK    3  A    between atoms: C_4  and  C_5
REMARK    4  A    between atoms: C_5  and  C_6
REMARK    5  A    between atoms: C_6  and  C_7
REMARK    6  A    between atoms: C_7  and  C_8
REMARK    7  A    between atoms: C_8  and  C_9
REMARK    8  A    between atoms: N_11  and  C_12
REMARK    9  A    between atoms: N_18  and  O_19
REMARK   10  A    between atoms: O_19  and  C_20
REMARK   11  A    between atoms: C_20  and  C_22
REMARK                            x       y       z     vdW  Elec       q    Type
REMARK                         _______ _______ _______ _____ _____    ______ ____
ROOT
ATOM      1  C   UNL     1       1.915   6.631  20.443  0.00  0.00    +0.000 C 
ENDROOT
BRANCH   1   2
ATOM      2  C   UNL     1       2.474   6.978  19.062  0.00  0.00    +0.000 C 
BRANCH   2   4
ATOM      3  O   UNL     1       2.179   8.722  17.430  0.00  0.00    +0.000 OA
ATOM      4  C   UNL     1       1.961   8.317  18.568  0.00  0.00    +0.000 C 
ATOM      5  N   UNL     1       1.268   9.017  19.514  0.00  0.00    +0.000 N 
ATOM      6  H   UNL     1       1.052   8.689  20.453  0.00  0.00    +0.000 HD
BRANCH   5   7
ATOM      7  O   UNL     1       0.721  10.263  19.137  0.00  0.00    +0.000 OA
BRANCH   7   8
ATOM      8  C   UNL     1      -0.504  10.450  19.715  0.00  0.00    +0.000 C 
ATOM      9  O   UNL     1      -0.686  10.410  20.928  0.00  0.00    +0.000 OA
BRANCH   8  10
ATOM     10  C   UNL     1      -1.559  10.703  18.704  0.00  0.00    +0.000 A 
ATOM     11  C   UNL     1      -2.606  11.519  18.879  0.00  0.00    +0.000 A 
ATOM     12  S   UNL     1      -3.725  11.669  17.560  0.00  0.00    +0.000 S 
ATOM     13  C   UNL     1      -2.892  10.565  16.464  0.00  0.00    +0.000 A 
ATOM     14  S   UNL     1      -3.421  10.211  14.924  0.00  0.00    +0.000 S 
ATOM     15  S   UNL     1      -1.437   9.881  17.177  0.00  0.00    +0.000 S 
ENDBRANCH   8  10
ENDBRANCH   7   8
ENDBRANCH   5   7
ENDBRANCH   2   4
ENDBRANCH   1   2
BRANCH   1  16
ATOM     16  C   UNL     1       2.265   5.203  20.853  0.00  0.00    +0.000 C 
BRANCH  16  17
ATOM     17  C   UNL     1       1.136   4.224  20.506  0.00  0.00    +0.000 C 
BRANCH  17  18
ATOM     18  C   UNL     1       1.711   2.836  20.255  0.00  0.00    +0.000 C 
BRANCH  18  19
ATOM     19  C   UNL     1       1.564   2.341  18.811  0.00  0.00    +0.000 C 
BRANCH  19  20
ATOM     20  C   UNL     1       2.531   3.114  17.927  0.00  0.00    +0.000 C 
ATOM     21  O   UNL     1       2.163   3.561  16.842  0.00  0.00    +0.000 OA
ATOM     22  N   UNL     1       3.808   3.237  18.449  0.00  0.00    +0.000 N 
ATOM     23  H   UNL     1       4.050   2.659  19.243  0.00  0.00    +0.000 HD
BRANCH  22  24
ATOM     24  C   UNL     1       4.858   3.963  17.837  0.00  0.00    +0.000 A 
ATOM     25  C   UNL     1       5.680   4.847  18.545  0.00  0.00    +0.000 A 
ATOM     26  C   UNL     1       6.670   5.584  17.897  0.00  0.00    +0.000 A 
ATOM     27  C   UNL     1       6.861   5.440  16.529  0.00  0.00    +0.000 A 
ATOM     28  C   UNL     1       6.076   4.537  15.816  0.00  0.00    +0.000 A 
ATOM     29  C   UNL     1       5.085   3.792  16.467  0.00  0.00    +0.000 A 
ENDBRANCH  22  24
ENDBRANCH  19  20
ENDBRANCH  18  19
ENDBRANCH  17  18
ENDBRANCH  16  17
ENDBRANCH   1  16
TORSDOF 11
ENDMDL
MODEL 6
REMARK VINA RESULT:      -6.9      1.936      4.225
REMARK  Name = 
REMARK  11 active torsions:
REMARK  status: ('A' for Active; 'I' for Inactive)
REMARK    1  A    between atoms: C_2  and  C_3
REMARK    2  A    between atoms: C_3  and  C_4
REMARK    3  A    between atoms: C_4  and  C_5
REMARK    4  A    between atoms: C_5  and  C_6
REMARK    5  A    between atoms: C_6  and  C_7
REMARK    6  A    between atoms: C_7  and  C_8
REMARK    7  A    between atoms: C_8  and  C_9
REMARK    8  A    between atoms: N_11  and  C_12
REMARK    9  A    between atoms: N_18  and  O_19
REMARK   10  A    between atoms: O_19  and  C_20
REMARK   11  A    between atoms: C_20  and  C_22
REMARK                            x       y       z     vdW  Elec       q    Type
REMARK                         _______ _______ _______ _____ _____    ______ ____
ROOT
ATOM      1  C   UNL     1       3.976   7.447  17.528  0.00  0.00    +0.000 C 
ENDROOT
BRANCH   1   2
ATOM      2  C   UNL     1       2.668   6.760  17.922  0.00  0.00    +0.000 C 
BRANCH   2   4
ATOM      3  O   UNL     1       2.356   6.199  20.242  0.00  0.00    +0.000 OA
ATOM      4  C   UNL     1       2.291   7.052  19.362  0.00  0.00    +0.000 C 
ATOM      5  N   UNL     1       1.856   8.331  19.561  0.00  0.00    +0.000 N 
ATOM      6  H   UNL     1       1.821   9.061  18.853  0.00  0.00    +0.000 HD
BRANCH   5   7
ATOM      7  O   UNL     1       1.514   8.709  20.878  0.00  0.00    +0.000 OA
BRANCH   7   8
ATOM      8  C   UNL     1       0.189   9.037  20.960  0.00  0.00    +0.000 C 
ATOM      9  O   UNL     1      -0.621   8.398  21.625  0.00  0.00    +0.000 OA
BRANCH   8  10
ATOM     10  C   UNL     1      -0.131  10.243  20.159  0.00  0.00    +0.000 A 
ATOM     11  C   UNL     1      -1.063  10.298  19.198  0.00  0.00    +0.000 A 
ATOM     12  S   UNL     1      -1.274  11.816  18.383  0.00  0.00    +0.000 S 
ATOM     13  C   UNL     1      -0.039  12.700  19.282  0.00  0.00    +0.000 A 
ATOM     14  S   UNL     1       0.323  14.306  19.026  0.00  0.00    +0.000 S 
ATOM     15  S   UNL     1       0.765  11.697  20.482  0.00  0.00    +0.000 S 
ENDBRANCH   8  10
ENDBRANCH   7   8
ENDBRANCH   5   7
ENDBRANCH   2   4
ENDBRANCH   1   2
BRANCH   1  16
ATOM     16  C   UNL     1       4.522   6.910  16.208  0.00  0.00    +0.000 C 
BRANCH  16  17
ATOM     17  C   UNL     1       4.954   5.443  16.331  0.00  0.00    +0.000 C 
BRANCH  17  18
ATOM     18  C   UNL     1       6.441   5.364  16.651  0.00  0.00    +0.000 C 
BRANCH  18  19
ATOM     19  C   UNL     1       6.784   4.471  17.850  0.00  0.00    +0.000 C 
BRANCH  19  20
ATOM     20  C   UNL     1       5.585   4.422  18.785  0.00  0.00    +0.000 C 
ATOM     21  O   UNL     1       5.432   5.283  19.650  0.00  0.00    +0.000 OA
ATOM     22  N   UNL     1       4.738   3.347  18.572  0.00  0.00    +0.000 N 
ATOM     23  H   UNL     1       5.069   2.598  17.977  0.00  0.00    +0.000 HD
BRANCH  22  24
ATOM     24  C   UNL     1       3.530   3.126  19.275  0.00  0.00    +0.000 A 
ATOM     25  C   UNL     1       2.273   3.203  18.664  0.00  0.00    +0.000 A 
ATOM     26  C   UNL     1       1.103   3.030  19.401  0.00  0.00    +0.000 A 
ATOM     27  C   UNL     1       1.171   2.766  20.763  0.00  0.00    +0.000 A 
ATOM     28  C   UNL     1       2.415   2.650  21.379  0.00  0.00    +0.000 A 
ATOM     29  C   UNL     1       3.591   2.818  20.638  0.00  0.00    +0.000 A 
ENDBRANCH  22  24
ENDBRANCH  19  20
ENDBRANCH  18  19
ENDBRANCH  17  18
ENDBRANCH  16  17
ENDBRANCH   1  16
TORSDOF 11
ENDMDL
MODEL 7
REMARK VINA RESULT:      -6.8      6.381      8.713
REMARK  Name = 
REMARK  11 active torsions:
REMARK  status: ('A' for Active; 'I' for Inactive)
REMARK    1  A    between atoms: C_2  and  C_3
REMARK    2  A    between atoms: C_3  and  C_4
REMARK    3  A    between atoms: C_4  and  C_5
REMARK    4  A    between atoms: C_5  and  C_6
REMARK    5  A    between atoms: C_6  and  C_7
REMARK    6  A    between atoms: C_7  and  C_8
REMARK    7  A    between atoms: C_8  and  C_9
REMARK    8  A    between atoms: N_11  and  C_12
REMARK    9  A    between atoms: N_18  and  O_19
REMARK   10  A    between atoms: O_19  and  C_20
REMARK   11  A    between atoms: C_20  and  C_22
REMARK                            x       y       z     vdW  Elec       q    Type
REMARK                         _______ _______ _______ _____ _____    ______ ____
ROOT
ATOM      1  C   UNL     1       8.217   8.722  17.502  0.00  0.00    +0.000 C 
ENDROOT
BRANCH   1   2
ATOM      2  C   UNL     1       8.009  10.106  18.118  0.00  0.00    +0.000 C 
BRANCH   2   4
ATOM      3  O   UNL     1      10.174  11.057  17.669  0.00  0.00    +0.000 OA
ATOM      4  C   UNL     1       9.326  10.754  18.502  0.00  0.00    +0.000 C 
ATOM      5  N   UNL     1       9.470  10.936  19.848  0.00  0.00    +0.000 N 
ATOM      6  H   UNL     1       8.769  10.719  20.554  0.00  0.00    +0.000 HD
BRANCH   5   7
ATOM      7  O   UNL     1      10.651  11.565  20.302  0.00  0.00    +0.000 OA
BRANCH   7   8
ATOM      8  C   UNL     1      10.388  12.834  20.738  0.00  0.00    +0.000 C 
ATOM      9  O   UNL     1       9.845  13.074  21.812  0.00  0.00    +0.000 OA
BRANCH   8  10
ATOM     10  C   UNL     1      10.837  13.857  19.764  0.00  0.00    +0.000 A 
ATOM     11  C   UNL     1      11.992  13.815  19.088  0.00  0.00    +0.000 A 
ATOM     12  S   UNL     1      12.320  15.121  17.993  0.00  0.00    +0.000 S 
ATOM     13  C   UNL     1      10.827  16.012  18.290  0.00  0.00    +0.000 A 
ATOM     14  S   UNL     1      10.434  17.444  17.535  0.00  0.00    +0.000 S 
ATOM     15  S   UNL     1       9.795  15.217  19.473  0.00  0.00    +0.000 S 
ENDBRANCH   8  10
ENDBRANCH   7   8
ENDBRANCH   5   7
ENDBRANCH   2   4
ENDBRANCH   1   2
BRANCH   1  16
ATOM     16  C   UNL     1       8.377   7.645  18.572  0.00  0.00    +0.000 C 
BRANCH  16  17
ATOM     17  C   UNL     1       7.356   6.514  18.391  0.00  0.00    +0.000 C 
BRANCH  17  18
ATOM     18  C   UNL     1       7.147   6.234  16.909  0.00  0.00    +0.000 C 
BRANCH  18  19
ATOM     19  C   UNL     1       5.684   6.292  16.452  0.00  0.00    +0.000 C 
BRANCH  19  20
ATOM     20  C   UNL     1       4.881   5.274  17.248  0.00  0.00    +0.000 C 
ATOM     21  O   UNL     1       5.341   4.156  17.475  0.00  0.00    +0.000 OA
ATOM     22  N   UNL     1       3.634   5.721  17.653  0.00  0.00    +0.000 N 
ATOM     23  H   UNL     1       3.282   6.574  17.237  0.00  0.00    +0.000 HD
BRANCH  22  24
ATOM     24  C   UNL     1       2.736   4.975  18.453  0.00  0.00    +0.000 A 
ATOM     25  C   UNL     1       1.865   4.017  17.923  0.00  0.00    +0.000 A 
ATOM     26  C   UNL     1       0.958   3.340  18.738  0.00  0.00    +0.000 A 
ATOM     27  C   UNL     1       0.915   3.604  20.100  0.00  0.00    +0.000 A 
ATOM     28  C   UNL     1       1.801   4.529  20.650  0.00  0.00    +0.000 A 
ATOM     29  C   UNL     1       2.716   5.205  19.834  0.00  0.00    +0.000 A 
ENDBRANCH  22  24
ENDBRANCH  19  20
ENDBRANCH  18  19
ENDBRANCH  17  18
ENDBRANCH  16  17
ENDBRANCH   1  16
TORSDOF 11
ENDMDL
MODEL 8
REMARK VINA RESULT:      -6.8      2.104      2.403
REMARK  Name = 
REMARK  11 active torsions:
REMARK  status: ('A' for Active; 'I' for Inactive)
REMARK    1  A    between atoms: C_2  and  C_3
REMARK    2  A    between atoms: C_3  and  C_4
REMARK    3  A    between atoms: C_4  and  C_5
REMARK    4  A    between atoms: C_5  and  C_6
REMARK    5  A    between atoms: C_6  and  C_7
REMARK    6  A    between atoms: C_7  and  C_8
REMARK    7  A    between atoms: C_8  and  C_9
REMARK    8  A    between atoms: N_11  and  C_12
REMARK    9  A    between atoms: N_18  and  O_19
REMARK   10  A    between atoms: O_19  and  C_20
REMARK   11  A    between atoms: C_20  and  C_22
REMARK                            x       y       z     vdW  Elec       q    Type
REMARK                         _______ _______ _______ _____ _____    ______ ____
ROOT
ATOM      1  C   UNL     1       0.922   4.149  20.348  0.00  0.00    +0.000 C 
ENDROOT
BRANCH   1   2
ATOM      2  C   UNL     1       1.925   5.116  20.980  0.00  0.00    +0.000 C 
BRANCH   2   4
ATOM      3  O   UNL     1       2.379   6.506  19.069  0.00  0.00    +0.000 OA
ATOM      4  C   UNL     1       1.987   6.432  20.229  0.00  0.00    +0.000 C 
ATOM      5  N   UNL     1       1.592   7.504  20.978  0.00  0.00    +0.000 N 
ATOM      6  H   UNL     1       1.237   7.463  21.930  0.00  0.00    +0.000 HD
BRANCH   5   7
ATOM      7  O   UNL     1       1.583   8.771  20.353  0.00  0.00    +0.000 OA
BRANCH   7   8
ATOM      8  C   UNL     1       0.993   9.705  21.160  0.00  0.00    +0.000 C 
ATOM      9  O   UNL     1       1.329   9.894  22.324  0.00  0.00    +0.000 OA
BRANCH   8  10
ATOM     10  C   UNL     1      -0.081  10.444  20.453  0.00  0.00    +0.000 A 
ATOM     11  C   UNL     1      -0.832  11.410  20.999  0.00  0.00    +0.000 A 
ATOM     12  S   UNL     1      -2.037  12.144  19.989  0.00  0.00    +0.000 S 
ATOM     13  C   UNL     1      -1.696  11.193  18.543  0.00  0.00    +0.000 A 
ATOM     14  S   UNL     1      -2.508  11.373  17.100  0.00  0.00    +0.000 S 
ATOM     15  S   UNL     1      -0.399  10.032  18.795  0.00  0.00    +0.000 S 
ENDBRANCH   8  10
ENDBRANCH   7   8
ENDBRANCH   5   7
ENDBRANCH   2   4
ENDBRANCH   1   2
BRANCH   1  16
ATOM     16  C   UNL     1       1.393   2.701  20.447  0.00  0.00    +0.000 C 
BRANCH  16  17
ATOM     17  C   UNL     1       1.501   2.047  19.063  0.00  0.00    +0.000 C 
BRANCH  17  18
ATOM     18  C   UNL     1       2.962   1.781  18.726  0.00  0.00    +0.000 C 
BRANCH  18  19
ATOM     19  C   UNL     1       3.964   2.496  19.642  0.00  0.00    +0.000 C 
BRANCH  19  20
ATOM     20  C   UNL     1       4.851   3.393  18.792  0.00  0.00    +0.000 C 
ATOM     21  O   UNL     1       5.587   4.224  19.321  0.00  0.00    +0.000 OA
ATOM     22  N   UNL     1       4.732   3.188  17.428  0.00  0.00    +0.000 N 
ATOM     23  H   UNL     1       3.954   2.628  17.102  0.00  0.00    +0.000 HD
BRANCH  22  24
ATOM     24  C   UNL     1       5.498   3.859  16.445  0.00  0.00    +0.000 A 
ATOM     25  C   UNL     1       5.124   3.912  15.098  0.00  0.00    +0.000 A 
ATOM     26  C   UNL     1       5.932   4.539  14.151  0.00  0.00    +0.000 A 
ATOM     27  C   UNL     1       7.126   5.132  14.539  0.00  0.00    +0.000 A 
ATOM     28  C   UNL     1       7.496   5.119  15.882  0.00  0.00    +0.000 A 
ATOM     29  C   UNL     1       6.682   4.495  16.835  0.00  0.00    +0.000 A 
ENDBRANCH  22  24
ENDBRANCH  19  20
ENDBRANCH  18  19
ENDBRANCH  17  18
ENDBRANCH  16  17
ENDBRANCH   1  16
TORSDOF 11
ENDMDL
MODEL 9
REMARK VINA RESULT:      -6.7      2.529      3.068
REMARK  Name = 
REMARK  11 active torsions:
REMARK  status: ('A' for Active; 'I' for Inactive)
REMARK    1  A    between atoms: C_2  and  C_3
REMARK    2  A    between atoms: C_3  and  C_4
REMARK    3  A    between atoms: C_4  and  C_5
REMARK    4  A    between atoms: C_5  and  C_6
REMARK    5  A    between atoms: C_6  and  C_7
REMARK    6  A    between atoms: C_7  and  C_8
REMARK    7  A    between atoms: C_8  and  C_9
REMARK    8  A    between atoms: N_11  and  C_12
REMARK    9  A    between atoms: N_18  and  O_19
REMARK   10  A    between atoms: O_19  and  C_20
REMARK   11  A    between atoms: C_20  and  C_22
REMARK                            x       y       z     vdW  Elec       q    Type
REMARK                         _______ _______ _______ _____ _____    ______ ____
ROOT
ATOM      1  C   UNL     1       2.129   5.627  20.617  0.00  0.00    +0.000 C 
ENDROOT
BRANCH   1   2
ATOM      2  C   UNL     1       1.499   6.990  20.906  0.00  0.00    +0.000 C 
BRANCH   2   4
ATOM      3  O   UNL     1       2.552   7.740  18.876  0.00  0.00    +0.000 OA
ATOM      4  C   UNL     1       1.781   7.987  19.797  0.00  0.00    +0.000 C 
ATOM      5  N   UNL     1       1.117   9.171  19.949  0.00  0.00    +0.000 N 
ATOM      6  H   UNL     1       0.453   9.387  20.689  0.00  0.00    +0.000 HD
BRANCH   5   7
ATOM      7  O   UNL     1       1.290  10.152  18.947  0.00  0.00    +0.000 OA
BRANCH   7   8
ATOM      8  C   UNL     1       0.136  10.861  18.758  0.00  0.00    +0.000 C 
ATOM      9  O   UNL     1      -0.956  10.330  18.583  0.00  0.00    +0.000 OA
BRANCH   8  10
ATOM     10  C   UNL     1       0.375  12.324  18.795  0.00  0.00    +0.000 A 
ATOM     11  C   UNL     1      -0.582  13.253  18.921  0.00  0.00    +0.000 A 
ATOM     12  S   UNL     1      -0.077  14.913  18.941  0.00  0.00    +0.000 S 
ATOM     13  C   UNL     1       1.651  14.602  18.771  0.00  0.00    +0.000 A 
ATOM     14  S   UNL     1       2.809  15.797  18.723  0.00  0.00    +0.000 S 
ATOM     15  S   UNL     1       2.015  12.884  18.662  0.00  0.00    +0.000 S 
ENDBRANCH   8  10
ENDBRANCH   7   8
ENDBRANCH   5   7
ENDBRANCH   2   4
ENDBRANCH   1   2
BRANCH   1  16
ATOM     16  C   UNL     1       1.078   4.588  20.235  0.00  0.00    +0.000 C 
BRANCH  16  17
ATOM     17  C   UNL     1       1.278   3.275  21.002  0.00  0.00    +0.000 C 
BRANCH  17  18
ATOM     18  C   UNL     1       2.765   2.969  21.131  0.00  0.00    +0.000 C 
BRANCH  18  19
ATOM     19  C   UNL     1       3.344   2.139  19.979  0.00  0.00    +0.000 C 
BRANCH  19  20
ATOM     20  C   UNL     1       4.274   3.019  19.158  0.00  0.00    +0.000 C 
ATOM     21  O   UNL     1       5.355   3.383  19.617  0.00  0.00    +0.000 OA
ATOM     22  N   UNL     1       3.783   3.358  17.907  0.00  0.00    +0.000 N 
ATOM     23  H   UNL     1       2.805   3.176  17.720  0.00  0.00    +0.000 HD
BRANCH  22  24
ATOM     24  C   UNL     1       4.493   4.116  16.945  0.00  0.00    +0.000 A 
ATOM     25  C   UNL     1       5.299   3.528  15.964  0.00  0.00    +0.000 A 
ATOM     26  C   UNL     1       6.025   4.310  15.066  0.00  0.00    +0.000 A 
ATOM     27  C   UNL     1       5.948   5.695  15.130  0.00  0.00    +0.000 A 
ATOM     28  C   UNL     1       5.122   6.295  16.078  0.00  0.00    +0.000 A 
ATOM     29  C   UNL     1       4.388   5.511  16.976  0.00  0.00    +0.000 A 
ENDBRANCH  22  24
ENDBRANCH  19  20
ENDBRANCH  18  19
ENDBRANCH  17  18
ENDBRANCH  16  17
ENDBRANCH   1  16
TORSDOF 11
ENDMDL
