MODEL 1
REMARK VINA RESULT:      -7.5      0.000      0.000
REMARK  Name = 
REMARK  14 active torsions:
REMARK  status: ('A' for Active; 'I' for Inactive)
REMARK    1  A    between atoms: C_1  and  O_2
REMARK    2  A    between atoms: O_2  and  C_3
REMARK    3  A    between atoms: C_3  and  C_5
REMARK    4  A    between atoms: C_5  and  C_6
REMARK    5  A    between atoms: C_6  and  C_7
REMARK    6  A    between atoms: C_6  and  C_13
REMARK    7  A    between atoms: C_13  and  C_14
REMARK    8  A    between atoms: C_13  and  C_23
REMARK    9  A    between atoms: N_16  and  C_17
REMARK   10  A    between atoms: N_16  and  C_20
REMARK   11  A    between atoms: C_17  and  C_18
REMARK   12  A    between atoms: C_17  and  C_19
REMARK   13  A    between atoms: C_20  and  C_21
REMARK   14  A    between atoms: C_20  and  C_22
REMARK                            x       y       z     vdW  Elec       q    Type
REMARK                         _______ _______ _______ _____ _____    ______ ____
ROOT
ATOM      1  C   UNL     1       3.405   5.807  18.343  0.00  0.00    +0.000 C 
ENDROOT
BRANCH   1   2
ATOM      2  C   UNL     1       2.697   7.167  18.621  0.00  0.00    +0.000 A 
ATOM      3  C   UNL     1       2.561   8.168  17.638  0.00  0.00    +0.000 A 
ATOM      4  C   UNL     1       1.833   9.341  17.879  0.00  0.00    +0.000 A 
ATOM      5  C   UNL     1       1.212   9.549  19.111  0.00  0.00    +0.000 A 
ATOM      6  C   UNL     1       1.334   8.584  20.099  0.00  0.00    +0.000 A 
ATOM      7  C   UNL     1       2.057   7.408  19.855  0.00  0.00    +0.000 A 
ENDBRANCH   1   2
BRANCH   1   8
ATOM      8  C   UNL     1       3.282   4.824  19.543  0.00  0.00    +0.000 C 
ATOM      9  O   UNL     1       3.864   5.128  20.593  0.00  0.00    +0.000 OA
ATOM     10  N   UNL     1       2.610   3.590  19.436  0.00  0.00    +0.000 N 
BRANCH  10  11
ATOM     11  C   UNL     1       1.806   3.149  18.252  0.00  0.00    +0.000 C 
ATOM     12  C   UNL     1       2.545   2.255  17.240  0.00  0.00    +0.000 C 
ATOM     13  C   UNL     1       0.485   2.470  18.622  0.00  0.00    +0.000 C 
ENDBRANCH  10  11
BRANCH  10  14
ATOM     14  C   UNL     1       2.831   2.620  20.548  0.00  0.00    +0.000 C 
ATOM     15  C   UNL     1       4.310   2.224  20.654  0.00  0.00    +0.000 C 
ATOM     16  C   UNL     1       2.271   3.055  21.905  0.00  0.00    +0.000 C 
ENDBRANCH  10  14
ENDBRANCH   1   8
BRANCH   1  17
ATOM     17  C   UNL     1       4.935   5.926  17.924  0.00  0.00    +0.000 C 
BRANCH  17  18
ATOM     18  C   UNL     1       5.196   5.283  16.565  0.00  0.00    +0.000 A 
ATOM     19  C   UNL     1       5.376   6.003  15.382  0.00  0.00    +0.000 A 
ATOM     20  C   UNL     1       5.778   5.347  14.219  0.00  0.00    +0.000 A 
ATOM     21  C   UNL     1       5.980   3.980  14.270  0.00  0.00    +0.000 A 
ATOM     22  N   UNL     1       5.768   3.237  15.375  0.00  0.00    +0.000 NA
ATOM     23  C   UNL     1       5.364   3.897  16.484  0.00  0.00    +0.000 A 
ENDBRANCH  17  18
BRANCH  17  24
ATOM     24  C   UNL     1       5.896   5.476  19.041  0.00  0.00    +0.000 C 
BRANCH  24  25
ATOM     25  C   UNL     1       7.360   5.544  18.660  0.00  0.00    +0.000 C 
ATOM     26  O   UNL     1       8.023   4.585  18.283  0.00  0.00    +0.000 OA
BRANCH  25  28
ATOM     27  C   UNL     1       7.841   7.624  17.677  0.00  0.00    +0.000 C 
ATOM     28  O   UNL     1       7.849   6.802  18.841  0.00  0.00    +0.000 OA
ENDBRANCH  25  28
ENDBRANCH  24  25
ENDBRANCH  17  24
ENDBRANCH   1  17
TORSDOF 9
ENDMDL
MODEL 2
REMARK VINA RESULT:      -7.1      0.845      1.337
REMARK  Name = 
REMARK  14 active torsions:
REMARK  status: ('A' for Active; 'I' for Inactive)
REMARK    1  A    between atoms: C_1  and  O_2
REMARK    2  A    between atoms: O_2  and  C_3
REMARK    3  A    between atoms: C_3  and  C_5
REMARK    4  A    between atoms: C_5  and  C_6
REMARK    5  A    between atoms: C_6  and  C_7
REMARK    6  A    between atoms: C_6  and  C_13
REMARK    7  A    between atoms: C_13  and  C_14
REMARK    8  A    between atoms: C_13  and  C_23
REMARK    9  A    between atoms: N_16  and  C_17
REMARK   10  A    between atoms: N_16  and  C_20
REMARK   11  A    between atoms: C_17  and  C_18
REMARK   12  A    between atoms: C_17  and  C_19
REMARK   13  A    between atoms: C_20  and  C_21
REMARK   14  A    between atoms: C_20  and  C_22
REMARK                            x       y       z     vdW  Elec       q    Type
REMARK                         _______ _______ _______ _____ _____    ______ ____
ROOT
ATOM      1  C   UNL     1       3.400   6.262  18.045  0.00  0.00    +0.000 C 
ENDROOT
BRANCH   1   2
ATOM      2  C   UNL     1       2.575   7.494  18.523  0.00  0.00    +0.000 A 
ATOM      3  C   UNL     1       2.218   8.550  17.660  0.00  0.00    +0.000 A 
ATOM      4  C   UNL     1       1.390   9.598  18.085  0.00  0.00    +0.000 A 
ATOM      5  C   UNL     1       0.885   9.621  19.385  0.00  0.00    +0.000 A 
ATOM      6  C   UNL     1       1.225   8.598  20.258  0.00  0.00    +0.000 A 
ATOM      7  C   UNL     1       2.048   7.547  19.830  0.00  0.00    +0.000 A 
ENDBRANCH   1   2
BRANCH   1   8
ATOM      8  C   UNL     1       3.707   5.273  19.208  0.00  0.00    +0.000 C 
ATOM      9  O   UNL     1       4.617   5.575  19.991  0.00  0.00    +0.000 OA
ATOM     10  N   UNL     1       3.043   4.036  19.335  0.00  0.00    +0.000 N 
BRANCH  10  11
ATOM     11  C   UNL     1       1.878   3.596  18.503  0.00  0.00    +0.000 C 
ATOM     12  C   UNL     1       2.195   2.566  17.405  0.00  0.00    +0.000 C 
ATOM     13  C   UNL     1       0.694   3.080  19.324  0.00  0.00    +0.000 C 
ENDBRANCH  10  11
BRANCH  10  14
ATOM     14  C   UNL     1       3.640   3.063  20.295  0.00  0.00    +0.000 C 
ATOM     15  C   UNL     1       2.643   2.692  21.401  0.00  0.00    +0.000 C 
ATOM     16  C   UNL     1       4.252   1.814  19.653  0.00  0.00    +0.000 C 
ENDBRANCH  10  14
ENDBRANCH   1   8
BRANCH   1  17
ATOM     17  C   UNL     1       4.758   6.620  17.298  0.00  0.00    +0.000 C 
BRANCH  17  18
ATOM     18  C   UNL     1       5.120   5.563  16.258  0.00  0.00    +0.000 A 
ATOM     19  C   UNL     1       5.341   5.840  14.906  0.00  0.00    +0.000 A 
ATOM     20  C   UNL     1       5.833   4.847  14.061  0.00  0.00    +0.000 A 
ATOM     21  C   UNL     1       6.083   3.595  14.590  0.00  0.00    +0.000 A 
ATOM     22  N   UNL     1       5.837   3.268  15.875  0.00  0.00    +0.000 NA
ATOM     23  C   UNL     1       5.345   4.245  16.669  0.00  0.00    +0.000 A 
ENDBRANCH  17  18
BRANCH  17  24
ATOM     24  C   UNL     1       5.898   6.979  18.270  0.00  0.00    +0.000 C 
BRANCH  24  25
ATOM     25  C   UNL     1       7.264   7.052  17.619  0.00  0.00    +0.000 C 
ATOM     26  O   UNL     1       7.622   7.943  16.858  0.00  0.00    +0.000 OA
BRANCH  25  28
ATOM     27  C   UNL     1       7.960   5.598  19.329  0.00  0.00    +0.000 C 
ATOM     28  O   UNL     1       8.017   5.968  17.953  0.00  0.00    +0.000 OA
ENDBRANCH  25  28
ENDBRANCH  24  25
ENDBRANCH  17  24
ENDBRANCH   1  17
TORSDOF 9
ENDMDL
MODEL 3
REMARK VINA RESULT:      -6.9      0.668      1.362
REMARK  Name = 
REMARK  14 active torsions:
REMARK  status: ('A' for Active; 'I' for Inactive)
REMARK    1  A    between atoms: C_1  and  O_2
REMARK    2  A    between atoms: O_2  and  C_3
REMARK    3  A    between atoms: C_3  and  C_5
REMARK    4  A    between atoms: C_5  and  C_6
REMARK    5  A    between atoms: C_6  and  C_7
REMARK    6  A    between atoms: C_6  and  C_13
REMARK    7  A    between atoms: C_13  and  C_14
REMARK    8  A    between atoms: C_13  and  C_23
REMARK    9  A    between atoms: N_16  and  C_17
REMARK   10  A    between atoms: N_16  and  C_20
REMARK   11  A    between atoms: C_17  and  C_18
REMARK   12  A    between atoms: C_17  and  C_19
REMARK   13  A    between atoms: C_20  and  C_21
REMARK   14  A    between atoms: C_20  and  C_22
REMARK                            x       y       z     vdW  Elec       q    Type
REMARK                         _______ _______ _______ _____ _____    ______ ____
ROOT
ATOM      1  C   UNL     1       3.366   6.035  18.021  0.00  0.00    +0.000 C 
ENDROOT
BRANCH   1   2
ATOM      2  C   UNL     1       2.558   7.295  18.455  0.00  0.00    +0.000 A 
ATOM      3  C   UNL     1       1.999   7.432  19.741  0.00  0.00    +0.000 A 
ATOM      4  C   UNL     1       1.364   8.615  20.144  0.00  0.00    +0.000 A 
ATOM      5  C   UNL     1       1.274   9.703  19.275  0.00  0.00    +0.000 A 
ATOM      6  C   UNL     1       1.812   9.593  18.001  0.00  0.00    +0.000 A 
ATOM      7  C   UNL     1       2.451   8.412  17.601  0.00  0.00    +0.000 A 
ENDBRANCH   1   2
BRANCH   1   8
ATOM      8  C   UNL     1       3.489   4.991  19.170  0.00  0.00    +0.000 C 
ATOM      9  O   UNL     1       4.276   5.245  20.092  0.00  0.00    +0.000 OA
ATOM     10  N   UNL     1       2.804   3.760  19.141  0.00  0.00    +0.000 N 
BRANCH  10  11
ATOM     11  C   UNL     1       1.772   3.374  18.127  0.00  0.00    +0.000 C 
ATOM     12  C   UNL     1       2.303   2.647  16.879  0.00  0.00    +0.000 C 
ATOM     13  C   UNL     1       0.614   2.557  18.706  0.00  0.00    +0.000 C 
ENDBRANCH  10  11
BRANCH  10  14
ATOM     14  C   UNL     1       3.245   2.737  20.133  0.00  0.00    +0.000 C 
ATOM     15  C   UNL     1       4.767   2.544  20.093  0.00  0.00    +0.000 C 
ATOM     16  C   UNL     1       2.750   2.969  21.564  0.00  0.00    +0.000 C 
ENDBRANCH  10  14
ENDBRANCH   1   8
BRANCH   1  17
ATOM     17  C   UNL     1       4.815   6.340  17.441  0.00  0.00    +0.000 C 
BRANCH  17  18
ATOM     18  C   UNL     1       5.168   5.398  16.293  0.00  0.00    +0.000 A 
ATOM     19  C   UNL     1       5.249   5.793  14.955  0.00  0.00    +0.000 A 
ATOM     20  C   UNL     1       5.743   4.912  13.995  0.00  0.00    +0.000 A 
ATOM     21  C   UNL     1       6.136   3.649  14.399  0.00  0.00    +0.000 A 
ATOM     22  N   UNL     1       6.028   3.207  15.669  0.00  0.00    +0.000 NA
ATOM     23  C   UNL     1       5.531   4.077  16.577  0.00  0.00    +0.000 A 
ENDBRANCH  17  18
BRANCH  17  24
ATOM     24  C   UNL     1       5.889   6.441  18.541  0.00  0.00    +0.000 C 
BRANCH  24  25
ATOM     25  C   UNL     1       7.197   7.045  18.071  0.00  0.00    +0.000 C 
ATOM     26  O   UNL     1       7.310   7.786  17.102  0.00  0.00    +0.000 OA
BRANCH  25  28
ATOM     27  C   UNL     1       7.936   5.494  19.675  0.00  0.00    +0.000 C 
ATOM     28  O   UNL     1       8.233   6.611  18.841  0.00  0.00    +0.000 OA
ENDBRANCH  25  28
ENDBRANCH  24  25
ENDBRANCH  17  24
ENDBRANCH   1  17
TORSDOF 9
ENDMDL
MODEL 4
REMARK VINA RESULT:      -6.9      0.984      1.702
REMARK  Name = 
REMARK  14 active torsions:
REMARK  status: ('A' for Active; 'I' for Inactive)
REMARK    1  A    between atoms: C_1  and  O_2
REMARK    2  A    between atoms: O_2  and  C_3
REMARK    3  A    between atoms: C_3  and  C_5
REMARK    4  A    between atoms: C_5  and  C_6
REMARK    5  A    between atoms: C_6  and  C_7
REMARK    6  A    between atoms: C_6  and  C_13
REMARK    7  A    between atoms: C_13  and  C_14
REMARK    8  A    between atoms: C_13  and  C_23
REMARK    9  A    between atoms: N_16  and  C_17
REMARK   10  A    between atoms: N_16  and  C_20
REMARK   11  A    between atoms: C_17  and  C_18
REMARK   12  A    between atoms: C_17  and  C_19
REMARK   13  A    between atoms: C_20  and  C_21
REMARK   14  A    between atoms: C_20  and  C_22
REMARK                            x       y       z     vdW  Elec       q    Type
REMARK                         _______ _______ _______ _____ _____    ______ ____
ROOT
ATOM      1  C   UNL     1       3.456   6.151  17.985  0.00  0.00    +0.000 C 
ENDROOT
BRANCH   1   2
ATOM      2  C   UNL     1       2.549   7.323  18.463  0.00  0.00    +0.000 A 
ATOM      3  C   UNL     1       2.076   7.426  19.787  0.00  0.00    +0.000 A 
ATOM      4  C   UNL     1       1.345   8.541  20.222  0.00  0.00    +0.000 A 
ATOM      5  C   UNL     1       1.071   9.593  19.348  0.00  0.00    +0.000 A 
ATOM      6  C   UNL     1       1.520   9.516  18.038  0.00  0.00    +0.000 A 
ATOM      7  C   UNL     1       2.255   8.404  17.606  0.00  0.00    +0.000 A 
ENDBRANCH   1   2
BRANCH   1   8
ATOM      8  C   UNL     1       3.829   5.184  19.147  0.00  0.00    +0.000 C 
ATOM      9  O   UNL     1       4.797   5.488  19.856  0.00  0.00    +0.000 OA
ATOM     10  N   UNL     1       3.156   3.962  19.350  0.00  0.00    +0.000 N 
BRANCH  10  11
ATOM     11  C   UNL     1       1.928   3.524  18.614  0.00  0.00    +0.000 C 
ATOM     12  C   UNL     1       2.115   2.336  17.655  0.00  0.00    +0.000 C 
ATOM     13  C   UNL     1       0.735   3.226  19.526  0.00  0.00    +0.000 C 
ENDBRANCH  10  11
BRANCH  10  14
ATOM     14  C   UNL     1       3.803   3.001  20.290  0.00  0.00    +0.000 C 
ATOM     15  C   UNL     1       2.843   2.594  21.416  0.00  0.00    +0.000 C 
ATOM     16  C   UNL     1       4.436   1.775  19.625  0.00  0.00    +0.000 C 
ENDBRANCH  10  14
ENDBRANCH   1   8
BRANCH   1  17
ATOM     17  C   UNL     1       4.788   6.600  17.238  0.00  0.00    +0.000 C 
BRANCH  17  18
ATOM     18  C   UNL     1       5.304   5.507  16.308  0.00  0.00    +0.000 A 
ATOM     19  C   UNL     1       5.264   4.143  16.608  0.00  0.00    +0.000 A 
ATOM     20  C   UNL     1       5.599   3.203  15.634  0.00  0.00    +0.000 A 
ATOM     21  C   UNL     1       5.975   3.656  14.383  0.00  0.00    +0.000 A 
ATOM     22  N   UNL     1       6.077   4.962  14.064  0.00  0.00    +0.000 NA
ATOM     23  C   UNL     1       5.762   5.852  15.032  0.00  0.00    +0.000 A 
ENDBRANCH  17  18
BRANCH  17  24
ATOM     24  C   UNL     1       5.845   7.177  18.199  0.00  0.00    +0.000 C 
BRANCH  24  25
ATOM     25  C   UNL     1       7.272   6.841  17.818  0.00  0.00    +0.000 C 
ATOM     26  O   UNL     1       7.859   5.822  18.161  0.00  0.00    +0.000 OA
BRANCH  25  28
ATOM     27  C   UNL     1       8.135   9.027  17.829  0.00  0.00    +0.000 C 
ATOM     28  O   UNL     1       7.827   7.848  17.089  0.00  0.00    +0.000 OA
ENDBRANCH  25  28
ENDBRANCH  24  25
ENDBRANCH  17  24
ENDBRANCH   1  17
TORSDOF 9
ENDMDL
MODEL 5
REMARK VINA RESULT:      -6.9      0.461      1.325
REMARK  Name = 
REMARK  14 active torsions:
REMARK  status: ('A' for Active; 'I' for Inactive)
REMARK    1  A    between atoms: C_1  and  O_2
REMARK    2  A    between atoms: O_2  and  C_3
REMARK    3  A    between atoms: C_3  and  C_5
REMARK    4  A    between atoms: C_5  and  C_6
REMARK    5  A    between atoms: C_6  and  C_7
REMARK    6  A    between atoms: C_6  and  C_13
REMARK    7  A    between atoms: C_13  and  C_14
REMARK    8  A    between atoms: C_13  and  C_23
REMARK    9  A    between atoms: N_16  and  C_17
REMARK   10  A    between atoms: N_16  and  C_20
REMARK   11  A    between atoms: C_17  and  C_18
REMARK   12  A    between atoms: C_17  and  C_19
REMARK   13  A    between atoms: C_20  and  C_21
REMARK   14  A    between atoms: C_20  and  C_22
REMARK                            x       y       z     vdW  Elec       q    Type
REMARK                         _______ _______ _______ _____ _____    ______ ____
ROOT
ATOM      1  C   UNL     1       3.341   5.850  18.435  0.00  0.00    +0.000 C 
ENDROOT
BRANCH   1   2
ATOM      2  C   UNL     1       2.588   7.208  18.557  0.00  0.00    +0.000 A 
ATOM      3  C   UNL     1       1.910   7.599  19.729  0.00  0.00    +0.000 A 
ATOM      4  C   UNL     1       1.326   8.867  19.853  0.00  0.00    +0.000 A 
ATOM      5  C   UNL     1       1.407   9.789  18.810  0.00  0.00    +0.000 A 
ATOM      6  C   UNL     1       2.063   9.430  17.642  0.00  0.00    +0.000 A 
ATOM      7  C   UNL     1       2.652   8.164  17.522  0.00  0.00    +0.000 A 
ENDBRANCH   1   2
BRANCH   1   8
ATOM      8  C   UNL     1       3.243   5.005  19.739  0.00  0.00    +0.000 C 
ATOM      9  O   UNL     1       3.752   5.475  20.765  0.00  0.00    +0.000 OA
ATOM     10  N   UNL     1       2.675   3.715  19.755  0.00  0.00    +0.000 N 
BRANCH  10  11
ATOM     11  C   UNL     1       1.960   3.075  18.605  0.00  0.00    +0.000 C 
ATOM     12  C   UNL     1       1.284   4.044  17.619  0.00  0.00    +0.000 C 
ATOM     13  C   UNL     1       2.828   2.099  17.806  0.00  0.00    +0.000 C 
ENDBRANCH  10  11
BRANCH  10  14
ATOM     14  C   UNL     1       2.921   2.902  20.981  0.00  0.00    +0.000 C 
ATOM     15  C   UNL     1       1.623   2.259  21.490  0.00  0.00    +0.000 C 
ATOM     16  C   UNL     1       4.044   1.868  20.857  0.00  0.00    +0.000 C 
ENDBRANCH  10  14
ENDBRANCH   1   8
BRANCH   1  17
ATOM     17  C   UNL     1       4.869   5.971  18.010  0.00  0.00    +0.000 C 
BRANCH  17  18
ATOM     18  C   UNL     1       5.119   5.355  16.636  0.00  0.00    +0.000 A 
ATOM     19  C   UNL     1       5.300   6.100  15.468  0.00  0.00    +0.000 A 
ATOM     20  C   UNL     1       5.691   5.466  14.290  0.00  0.00    +0.000 A 
ATOM     21  C   UNL     1       5.883   4.097  14.309  0.00  0.00    +0.000 A 
ATOM     22  N   UNL     1       5.670   3.332  15.400  0.00  0.00    +0.000 NA
ATOM     23  C   UNL     1       5.275   3.970  16.524  0.00  0.00    +0.000 A 
ENDBRANCH  17  18
BRANCH  17  24
ATOM     24  C   UNL     1       5.835   5.494  19.112  0.00  0.00    +0.000 C 
BRANCH  24  25
ATOM     25  C   UNL     1       7.297   5.554  18.719  0.00  0.00    +0.000 C 
ATOM     26  O   UNL     1       7.957   4.587  18.356  0.00  0.00    +0.000 OA
BRANCH  25  28
ATOM     27  C   UNL     1       7.867   7.580  17.672  0.00  0.00    +0.000 C 
ATOM     28  O   UNL     1       7.787   6.815  18.872  0.00  0.00    +0.000 OA
ENDBRANCH  25  28
ENDBRANCH  24  25
ENDBRANCH  17  24
ENDBRANCH   1  17
TORSDOF 9
ENDMDL
MODEL 6
REMARK VINA RESULT:      -6.9      0.936      1.511
REMARK  Name = 
REMARK  14 active torsions:
REMARK  status: ('A' for Active; 'I' for Inactive)
REMARK    1  A    between atoms: C_1  and  O_2
REMARK    2  A    between atoms: O_2  and  C_3
REMARK    3  A    between atoms: C_3  and  C_5
REMARK    4  A    between atoms: C_5  and  C_6
REMARK    5  A    between atoms: C_6  and  C_7
REMARK    6  A    between atoms: C_6  and  C_13
REMARK    7  A    between atoms: C_13  and  C_14
REMARK    8  A    between atoms: C_13  and  C_23
REMARK    9  A    between atoms: N_16  and  C_17
REMARK   10  A    between atoms: N_16  and  C_20
REMARK   11  A    between atoms: C_17  and  C_18
REMARK   12  A    between atoms: C_17  and  C_19
REMARK   13  A    between atoms: C_20  and  C_21
REMARK   14  A    between atoms: C_20  and  C_22
REMARK                            x       y       z     vdW  Elec       q    Type
REMARK                         _______ _______ _______ _____ _____    ______ ____
ROOT
ATOM      1  C   UNL     1       3.619   6.023  17.972  0.00  0.00    +0.000 C 
ENDROOT
BRANCH   1   2
ATOM      2  C   UNL     1       2.754   7.252  18.382  0.00  0.00    +0.000 A 
ATOM      3  C   UNL     1       2.171   7.378  19.660  0.00  0.00    +0.000 A 
ATOM      4  C   UNL     1       1.482   8.538  20.042  0.00  0.00    +0.000 A 
ATOM      5  C   UNL     1       1.359   9.612  19.161  0.00  0.00    +0.000 A 
ATOM      6  C   UNL     1       1.918   9.513  17.895  0.00  0.00    +0.000 A 
ATOM      7  C   UNL     1       2.612   8.356  17.516  0.00  0.00    +0.000 A 
ENDBRANCH   1   2
BRANCH   1   8
ATOM      8  C   UNL     1       3.921   5.087  19.179  0.00  0.00    +0.000 C 
ATOM      9  O   UNL     1       4.864   5.396  19.921  0.00  0.00    +0.000 OA
ATOM     10  N   UNL     1       3.215   3.886  19.392  0.00  0.00    +0.000 N 
BRANCH  10  11
ATOM     11  C   UNL     1       2.011   3.448  18.616  0.00  0.00    +0.000 C 
ATOM     12  C   UNL     1       2.272   2.408  17.512  0.00  0.00    +0.000 C 
ATOM     13  C   UNL     1       0.862   2.944  19.493  0.00  0.00    +0.000 C 
ENDBRANCH  10  11
BRANCH  10  14
ATOM     14  C   UNL     1       3.802   2.944  20.388  0.00  0.00    +0.000 C 
ATOM     15  C   UNL     1       2.783   2.585  21.479  0.00  0.00    +0.000 C 
ATOM     16  C   UNL     1       4.444   1.689  19.790  0.00  0.00    +0.000 C 
ENDBRANCH  10  14
ENDBRANCH   1   8
BRANCH   1  17
ATOM     17  C   UNL     1       4.985   6.385  17.242  0.00  0.00    +0.000 C 
BRANCH  17  18
ATOM     18  C   UNL     1       5.276   5.425  16.092  0.00  0.00    +0.000 A 
ATOM     19  C   UNL     1       5.286   5.800  14.746  0.00  0.00    +0.000 A 
ATOM     20  C   UNL     1       5.728   4.904  13.774  0.00  0.00    +0.000 A 
ATOM     21  C   UNL     1       6.141   3.647  14.176  0.00  0.00    +0.000 A 
ATOM     22  N   UNL     1       6.101   3.224  15.456  0.00  0.00    +0.000 NA
ATOM     23  C   UNL     1       5.653   4.108  16.375  0.00  0.00    +0.000 A 
ENDBRANCH  17  18
BRANCH  17  24
ATOM     24  C   UNL     1       6.155   6.578  18.227  0.00  0.00    +0.000 C 
BRANCH  24  25
ATOM     25  C   UNL     1       7.407   7.146  17.592  0.00  0.00    +0.000 C 
ATOM     26  O   UNL     1       7.774   6.906  16.447  0.00  0.00    +0.000 OA
BRANCH  25  28
ATOM     27  C   UNL     1       8.316   9.261  18.069  0.00  0.00    +0.000 C 
ATOM     28  O   UNL     1       8.095   7.914  18.481  0.00  0.00    +0.000 OA
ENDBRANCH  25  28
ENDBRANCH  24  25
ENDBRANCH  17  24
ENDBRANCH   1  17
TORSDOF 9
ENDMDL
MODEL 7
REMARK VINA RESULT:      -6.9      0.999      1.399
REMARK  Name = 
REMARK  14 active torsions:
REMARK  status: ('A' for Active; 'I' for Inactive)
REMARK    1  A    between atoms: C_1  and  O_2
REMARK    2  A    between atoms: O_2  and  C_3
REMARK    3  A    between atoms: C_3  and  C_5
REMARK    4  A    between atoms: C_5  and  C_6
REMARK    5  A    between atoms: C_6  and  C_7
REMARK    6  A    between atoms: C_6  and  C_13
REMARK    7  A    between atoms: C_13  and  C_14
REMARK    8  A    between atoms: C_13  and  C_23
REMARK    9  A    between atoms: N_16  and  C_17
REMARK   10  A    between atoms: N_16  and  C_20
REMARK   11  A    between atoms: C_17  and  C_18
REMARK   12  A    between atoms: C_17  and  C_19
REMARK   13  A    between atoms: C_20  and  C_21
REMARK   14  A    between atoms: C_20  and  C_22
REMARK                            x       y       z     vdW  Elec       q    Type
REMARK                         _______ _______ _______ _____ _____    ______ ____
ROOT
ATOM      1  C   UNL     1       3.442   6.165  18.078  0.00  0.00    +0.000 C 
ENDROOT
BRANCH   1   2
ATOM      2  C   UNL     1       2.630   7.360  18.661  0.00  0.00    +0.000 A 
ATOM      3  C   UNL     1       2.237   8.465  17.878  0.00  0.00    +0.000 A 
ATOM      4  C   UNL     1       1.421   9.479  18.398  0.00  0.00    +0.000 A 
ATOM      5  C   UNL     1       0.966   9.420  19.715  0.00  0.00    +0.000 A 
ATOM      6  C   UNL     1       1.343   8.347  20.510  0.00  0.00    +0.000 A 
ATOM      7  C   UNL     1       2.153   7.330  19.988  0.00  0.00    +0.000 A 
ENDBRANCH   1   2
BRANCH   1   8
ATOM      8  C   UNL     1       3.846   5.137  19.175  0.00  0.00    +0.000 C 
ATOM      9  O   UNL     1       4.869   5.374  19.831  0.00  0.00    +0.000 OA
ATOM     10  N   UNL     1       3.138   3.936  19.375  0.00  0.00    +0.000 N 
BRANCH  10  11
ATOM     11  C   UNL     1       1.849   3.576  18.703  0.00  0.00    +0.000 C 
ATOM     12  C   UNL     1       0.588   3.684  19.579  0.00  0.00    +0.000 C 
ATOM     13  C   UNL     1       1.598   4.339  17.399  0.00  0.00    +0.000 C 
ENDBRANCH  10  11
BRANCH  10  14
ATOM     14  C   UNL     1       3.803   2.913  20.232  0.00  0.00    +0.000 C 
ATOM     15  C   UNL     1       2.915   2.524  21.422  0.00  0.00    +0.000 C 
ATOM     16  C   UNL     1       4.310   1.675  19.487  0.00  0.00    +0.000 C 
ENDBRANCH  10  14
ENDBRANCH   1   8
BRANCH   1  17
ATOM     17  C   UNL     1       4.738   6.579  17.253  0.00  0.00    +0.000 C 
BRANCH  17  18
ATOM     18  C   UNL     1       5.083   5.538  16.193  0.00  0.00    +0.000 A 
ATOM     19  C   UNL     1       5.396   5.847  14.866  0.00  0.00    +0.000 A 
ATOM     20  C   UNL     1       5.865   4.853  14.009  0.00  0.00    +0.000 A 
ATOM     21  C   UNL     1       6.001   3.568  14.502  0.00  0.00    +0.000 A 
ATOM     22  N   UNL     1       5.664   3.213  15.758  0.00  0.00    +0.000 NA
ATOM     23  C   UNL     1       5.196   4.194  16.563  0.00  0.00    +0.000 A 
ENDBRANCH  17  18
BRANCH  17  24
ATOM     24  C   UNL     1       5.915   6.989  18.158  0.00  0.00    +0.000 C 
BRANCH  24  25
ATOM     25  C   UNL     1       7.277   6.802  17.520  0.00  0.00    +0.000 C 
ATOM     26  O   UNL     1       7.913   5.755  17.540  0.00  0.00    +0.000 OA
BRANCH  25  28
ATOM     27  C   UNL     1       8.108   8.966  17.908  0.00  0.00    +0.000 C 
ATOM     28  O   UNL     1       7.716   7.967  16.970  0.00  0.00    +0.000 OA
ENDBRANCH  25  28
ENDBRANCH  24  25
ENDBRANCH  17  24
ENDBRANCH   1  17
TORSDOF 9
ENDMDL
MODEL 8
REMARK VINA RESULT:      -6.7      5.665      9.869
REMARK  Name = 
REMARK  14 active torsions:
REMARK  status: ('A' for Active; 'I' for Inactive)
REMARK    1  A    between atoms: C_1  and  O_2
REMARK    2  A    between atoms: O_2  and  C_3
REMARK    3  A    between atoms: C_3  and  C_5
REMARK    4  A    between atoms: C_5  and  C_6
REMARK    5  A    between atoms: C_6  and  C_7
REMARK    6  A    between atoms: C_6  and  C_13
REMARK    7  A    between atoms: C_13  and  C_14
REMARK    8  A    between atoms: C_13  and  C_23
REMARK    9  A    between atoms: N_16  and  C_17
REMARK   10  A    between atoms: N_16  and  C_20
REMARK   11  A    between atoms: C_17  and  C_18
REMARK   12  A    between atoms: C_17  and  C_19
REMARK   13  A    between atoms: C_20  and  C_21
REMARK   14  A    between atoms: C_20  and  C_22
REMARK                            x       y       z     vdW  Elec       q    Type
REMARK                         _______ _______ _______ _____ _____    ______ ____
ROOT
ATOM      1  C   UNL     1       0.552  11.518  19.406  0.00  0.00    +0.000 C 
ENDROOT
BRANCH   1   2
ATOM      2  C   UNL     1       1.248  10.143  19.179  0.00  0.00    +0.000 A 
ATOM      3  C   UNL     1       1.198   9.101  20.127  0.00  0.00    +0.000 A 
ATOM      4  C   UNL     1       1.745   7.839  19.861  0.00  0.00    +0.000 A 
ATOM      5  C   UNL     1       2.353   7.574  18.634  0.00  0.00    +0.000 A 
ATOM      6  C   UNL     1       2.421   8.583  17.683  0.00  0.00    +0.000 A 
ATOM      7  C   UNL     1       1.869   9.843  17.949  0.00  0.00    +0.000 A 
ENDBRANCH   1   2
BRANCH   1   8
ATOM      8  C   UNL     1       1.420  12.483  20.267  0.00  0.00    +0.000 C 
ATOM      9  O   UNL     1       1.887  12.041  21.325  0.00  0.00    +0.000 OA
ATOM     10  N   UNL     1       1.611  13.834  19.916  0.00  0.00    +0.000 N 
BRANCH  10  11
ATOM     11  C   UNL     1       1.166  14.460  18.631  0.00  0.00    +0.000 C 
ATOM     12  C   UNL     1      -0.268  15.017  18.622  0.00  0.00    +0.000 C 
ATOM     13  C   UNL     1       2.110  15.549  18.115  0.00  0.00    +0.000 C 
ENDBRANCH  10  11
BRANCH  10  14
ATOM     14  C   UNL     1       2.195  14.712  20.971  0.00  0.00    +0.000 C 
ATOM     15  C   UNL     1       1.197  14.946  22.114  0.00  0.00    +0.000 C 
ATOM     16  C   UNL     1       3.559  14.263  21.504  0.00  0.00    +0.000 C 
ENDBRANCH  10  14
ENDBRANCH   1   8
BRANCH   1  17
ATOM     17  C   UNL     1      -0.906  11.430  20.038  0.00  0.00    +0.000 C 
BRANCH  17  18
ATOM     18  C   UNL     1      -1.986  11.449  18.959  0.00  0.00    +0.000 A 
ATOM     19  C   UNL     1      -1.844  10.855  17.703  0.00  0.00    +0.000 A 
ATOM     20  C   UNL     1      -2.938  10.771  16.843  0.00  0.00    +0.000 A 
ATOM     21  C   UNL     1      -4.148  11.294  17.262  0.00  0.00    +0.000 A 
ATOM     22  N   UNL     1      -4.318  11.922  18.443  0.00  0.00    +0.000 NA
ATOM     23  C   UNL     1      -3.236  12.004  19.250  0.00  0.00    +0.000 A 
ENDBRANCH  17  18
BRANCH  17  24
ATOM     24  C   UNL     1      -1.123  12.441  21.180  0.00  0.00    +0.000 C 
BRANCH  24  25
ATOM     25  C   UNL     1      -1.517  11.806  22.498  0.00  0.00    +0.000 C 
ATOM     26  O   UNL     1      -2.640  11.863  22.986  0.00  0.00    +0.000 OA
BRANCH  25  28
ATOM     27  C   UNL     1      -0.554   9.800  23.252  0.00  0.00    +0.000 C 
ATOM     28  O   UNL     1      -0.444  11.211  23.088  0.00  0.00    +0.000 OA
ENDBRANCH  25  28
ENDBRANCH  24  25
ENDBRANCH  17  24
ENDBRANCH   1  17
TORSDOF 9
ENDMDL
MODEL 9
REMARK VINA RESULT:      -6.6      2.130      5.415
REMARK  Name = 
REMARK  14 active torsions:
REMARK  status: ('A' for Active; 'I' for Inactive)
REMARK    1  A    between atoms: C_1  and  O_2
REMARK    2  A    between atoms: O_2  and  C_3
REMARK    3  A    between atoms: C_3  and  C_5
REMARK    4  A    between atoms: C_5  and  C_6
REMARK    5  A    between atoms: C_6  and  C_7
REMARK    6  A    between atoms: C_6  and  C_13
REMARK    7  A    between atoms: C_13  and  C_14
REMARK    8  A    between atoms: C_13  and  C_23
REMARK    9  A    between atoms: N_16  and  C_17
REMARK   10  A    between atoms: N_16  and  C_20
REMARK   11  A    between atoms: C_17  and  C_18
REMARK   12  A    between atoms: C_17  and  C_19
REMARK   13  A    between atoms: C_20  and  C_21
REMARK   14  A    between atoms: C_20  and  C_22
REMARK                            x       y       z     vdW  Elec       q    Type
REMARK                         _______ _______ _______ _____ _____    ______ ____
ROOT
ATOM      1  C   UNL     1       3.220   6.396  18.829  0.00  0.00    +0.000 C 
ENDROOT
BRANCH   1   2
ATOM      2  C   UNL     1       2.270   7.616  19.022  0.00  0.00    +0.000 A 
ATOM      3  C   UNL     1       1.737   7.973  20.278  0.00  0.00    +0.000 A 
ATOM      4  C   UNL     1       0.968   9.132  20.447  0.00  0.00    +0.000 A 
ATOM      5  C   UNL     1       0.711   9.977  19.367  0.00  0.00    +0.000 A 
ATOM      6  C   UNL     1       1.218   9.647  18.119  0.00  0.00    +0.000 A 
ATOM      7  C   UNL     1       1.992   8.491  17.952  0.00  0.00    +0.000 A 
ENDBRANCH   1   2
BRANCH   1   8
ATOM      8  C   UNL     1       4.347   6.686  17.796  0.00  0.00    +0.000 C 
ATOM      9  O   UNL     1       4.033   7.287  16.759  0.00  0.00    +0.000 OA
ATOM     10  N   UNL     1       5.665   6.220  17.974  0.00  0.00    +0.000 N 
BRANCH  10  11
ATOM     11  C   UNL     1       6.183   5.557  19.212  0.00  0.00    +0.000 C 
ATOM     12  C   UNL     1       5.986   4.033  19.284  0.00  0.00    +0.000 C 
ATOM     13  C   UNL     1       7.651   5.870  19.512  0.00  0.00    +0.000 C 
ENDBRANCH  10  11
BRANCH  10  14
ATOM     14  C   UNL     1       6.558   6.298  16.781  0.00  0.00    +0.000 C 
ATOM     15  C   UNL     1       7.660   7.348  16.981  0.00  0.00    +0.000 C 
ATOM     16  C   UNL     1       7.141   4.958  16.323  0.00  0.00    +0.000 C 
ENDBRANCH  10  14
ENDBRANCH   1   8
BRANCH   1  17
ATOM     17  C   UNL     1       2.489   5.040  18.432  0.00  0.00    +0.000 C 
BRANCH  17  18
ATOM     18  C   UNL     1       2.066   4.249  19.667  0.00  0.00    +0.000 A 
ATOM     19  C   UNL     1       0.857   3.557  19.774  0.00  0.00    +0.000 A 
ATOM     20  C   UNL     1       0.625   2.722  20.867  0.00  0.00    +0.000 A 
ATOM     21  C   UNL     1       1.609   2.610  21.832  0.00  0.00    +0.000 A 
ATOM     22  N   UNL     1       2.768   3.298  21.795  0.00  0.00    +0.000 NA
ATOM     23  C   UNL     1       2.961   4.112  20.733  0.00  0.00    +0.000 A 
ENDBRANCH  17  18
BRANCH  17  24
ATOM     24  C   UNL     1       3.272   4.224  17.386  0.00  0.00    +0.000 C 
BRANCH  24  25
ATOM     25  C   UNL     1       2.915   2.752  17.358  0.00  0.00    +0.000 C 
ATOM     26  O   UNL     1       1.805   2.314  17.077  0.00  0.00    +0.000 OA
BRANCH  25  28
ATOM     27  C   UNL     1       3.717   1.084  18.805  0.00  0.00    +0.000 C 
ATOM     28  O   UNL     1       3.977   1.990  17.736  0.00  0.00    +0.000 OA
ENDBRANCH  25  28
ENDBRANCH  24  25
ENDBRANCH  17  24
ENDBRANCH   1  17
TORSDOF 9
ENDMDL
