MODEL 1
REMARK VINA RESULT:      -7.9      0.000      0.000
REMARK  Name = 
REMARK  3 active torsions:
REMARK  status: ('A' for Active; 'I' for Inactive)
REMARK    1  A    between atoms: N_6  and  C_7
REMARK    2  A    between atoms: C_14  and  N_15
REMARK    3  A    between atoms: N_15  and  C_16
REMARK                            x       y       z     vdW  Elec       q    Type
REMARK                         _______ _______ _______ _____ _____    ______ ____
ROOT
ATOM      1 CL   UNL     1       7.797   7.683  17.307  0.00  0.00    +0.000 Cl
ATOM      2  C   UNL     1       6.601   6.472  17.548  0.00  0.00    +0.000 A 
ATOM      3  C   UNL     1       5.736   6.553  18.607  0.00  0.00    +0.000 A 
ATOM      4  N   UNL     1       4.763   5.651  18.839  0.00  0.00    +0.000 NA
ATOM      5  C   UNL     1       4.638   4.640  17.960  0.00  0.00    +0.000 A 
ATOM      6  N   UNL     1       3.551   3.782  18.053  0.00  0.00    +0.000 N 
ATOM      7  N   UNL     1       5.463   4.462  16.919  0.00  0.00    +0.000 NA
ATOM      8  C   UNL     1       6.451   5.365  16.722  0.00  0.00    +0.000 A 
ATOM      9  H   UNL     1       3.480   3.190  17.238  0.00  0.00    +0.000 HD
ENDROOT
BRANCH   6  10
ATOM     10  C   UNL     1       2.836   3.374  19.185  0.00  0.00    +0.000 A 
ATOM     11  C   UNL     1       1.466   3.652  19.272  0.00  0.00    +0.000 A 
ATOM     12  C   UNL     1       0.734   3.302  20.410  0.00  0.00    +0.000 A 
ATOM     13  C   UNL     1       1.362   2.649  21.470  0.00  0.00    +0.000 A 
ATOM     14  C   UNL     1       2.721   2.362  21.397  0.00  0.00    +0.000 A 
ATOM     15  C   UNL     1       3.453   2.735  20.268  0.00  0.00    +0.000 A 
ENDBRANCH   6  10
BRANCH   8  16
ATOM     16  N   UNL     1       7.350   5.174  15.653  0.00  0.00    +0.000 N 
ATOM     17  H   UNL     1       8.220   5.671  15.787  0.00  0.00    +0.000 HD
BRANCH  16  18
ATOM     18  C   UNL     1       7.087   4.773  14.333  0.00  0.00    +0.000 A 
ATOM     19  C   UNL     1       7.842   5.313  13.284  0.00  0.00    +0.000 A 
ATOM     20  C   UNL     1       7.651   4.884  11.968  0.00  0.00    +0.000 A 
ATOM     21  C   UNL     1       6.709   3.901  11.684  0.00  0.00    +0.000 A 
ATOM     22  C   UNL     1       5.934   3.371  12.713  0.00  0.00    +0.000 A 
ATOM     23  C   UNL     1       6.112   3.816  14.026  0.00  0.00    +0.000 A 
ENDBRANCH  16  18
ENDBRANCH   8  16
TORSDOF 3
ENDMDL
MODEL 2
REMARK VINA RESULT:      -7.7      3.743      4.865
REMARK  Name = 
REMARK  3 active torsions:
REMARK  status: ('A' for Active; 'I' for Inactive)
REMARK    1  A    between atoms: N_6  and  C_7
REMARK    2  A    between atoms: C_14  and  N_15
REMARK    3  A    between atoms: N_15  and  C_16
REMARK                            x       y       z     vdW  Elec       q    Type
REMARK                         _______ _______ _______ _____ _____    ______ ____
ROOT
ATOM      1 CL   UNL     1       2.842   1.799  18.078  0.00  0.00    +0.000 Cl
ATOM      2  C   UNL     1       2.796   3.413  18.667  0.00  0.00    +0.000 A 
ATOM      3  C   UNL     1       1.623   3.947  19.133  0.00  0.00    +0.000 A 
ATOM      4  N   UNL     1       1.525   5.196  19.628  0.00  0.00    +0.000 NA
ATOM      5  C   UNL     1       2.651   5.929  19.679  0.00  0.00    +0.000 A 
ATOM      6  N   UNL     1       2.643   7.153  20.334  0.00  0.00    +0.000 N 
ATOM      7  N   UNL     1       3.832   5.501  19.211  0.00  0.00    +0.000 NA
ATOM      8  C   UNL     1       3.901   4.254  18.692  0.00  0.00    +0.000 A 
ATOM      9  H   UNL     1       3.579   7.511  20.456  0.00  0.00    +0.000 HD
ENDROOT
BRANCH   6  10
ATOM     10  C   UNL     1       1.599   8.075  20.481  0.00  0.00    +0.000 A 
ATOM     11  C   UNL     1       1.348   9.001  19.461  0.00  0.00    +0.000 A 
ATOM     12  C   UNL     1       0.345   9.965  19.599  0.00  0.00    +0.000 A 
ATOM     13  C   UNL     1      -0.434  10.001  20.755  0.00  0.00    +0.000 A 
ATOM     14  C   UNL     1      -0.199   9.085  21.775  0.00  0.00    +0.000 A 
ATOM     15  C   UNL     1       0.819   8.140  21.643  0.00  0.00    +0.000 A 
ENDBRANCH   6  10
BRANCH   8  16
ATOM     16  N   UNL     1       5.126   3.800  18.163  0.00  0.00    +0.000 N 
ATOM     17  H   UNL     1       5.754   3.459  18.878  0.00  0.00    +0.000 HD
BRANCH  16  18
ATOM     18  C   UNL     1       5.733   4.114  16.936  0.00  0.00    +0.000 A 
ATOM     19  C   UNL     1       5.030   3.900  15.743  0.00  0.00    +0.000 A 
ATOM     20  C   UNL     1       5.579   4.267  14.511  0.00  0.00    +0.000 A 
ATOM     21  C   UNL     1       6.835   4.863  14.456  0.00  0.00    +0.000 A 
ATOM     22  C   UNL     1       7.556   5.061  15.631  0.00  0.00    +0.000 A 
ATOM     23  C   UNL     1       7.014   4.676  16.861  0.00  0.00    +0.000 A 
ENDBRANCH  16  18
ENDBRANCH   8  16
TORSDOF 3
ENDMDL
MODEL 3
REMARK VINA RESULT:      -7.7      0.167      1.494
REMARK  Name = 
REMARK  3 active torsions:
REMARK  status: ('A' for Active; 'I' for Inactive)
REMARK    1  A    between atoms: N_6  and  C_7
REMARK    2  A    between atoms: C_14  and  N_15
REMARK    3  A    between atoms: N_15  and  C_16
REMARK                            x       y       z     vdW  Elec       q    Type
REMARK                         _______ _______ _______ _____ _____    ______ ____
ROOT
ATOM      1 CL   UNL     1       7.773   7.787  17.105  0.00  0.00    +0.000 Cl
ATOM      2  C   UNL     1       6.585   6.576  17.379  0.00  0.00    +0.000 A 
ATOM      3  C   UNL     1       5.679   6.711  18.398  0.00  0.00    +0.000 A 
ATOM      4  N   UNL     1       4.710   5.811  18.651  0.00  0.00    +0.000 NA
ATOM      5  C   UNL     1       4.631   4.744  17.836  0.00  0.00    +0.000 A 
ATOM      6  N   UNL     1       3.553   3.877  17.944  0.00  0.00    +0.000 N 
ATOM      7  N   UNL     1       5.497   4.513  16.839  0.00  0.00    +0.000 NA
ATOM      8  C   UNL     1       6.480   5.416  16.621  0.00  0.00    +0.000 A 
ATOM      9  H   UNL     1       3.520   3.234  17.167  0.00  0.00    +0.000 HD
ENDROOT
BRANCH   6  10
ATOM     10  C   UNL     1       2.802   3.531  19.073  0.00  0.00    +0.000 A 
ATOM     11  C   UNL     1       3.435   2.912  20.159  0.00  0.00    +0.000 A 
ATOM     12  C   UNL     1       2.704   2.510  21.280  0.00  0.00    +0.000 A 
ATOM     13  C   UNL     1       1.330   2.740  21.337  0.00  0.00    +0.000 A 
ATOM     14  C   UNL     1       0.687   3.356  20.268  0.00  0.00    +0.000 A 
ATOM     15  C   UNL     1       1.418   3.735  19.141  0.00  0.00    +0.000 A 
ENDBRANCH   6  10
BRANCH   8  16
ATOM     16  N   UNL     1       7.421   5.171  15.600  0.00  0.00    +0.000 N 
ATOM     17  H   UNL     1       8.301   5.641  15.765  0.00  0.00    +0.000 HD
BRANCH  16  18
ATOM     18  C   UNL     1       7.205   4.753  14.277  0.00  0.00    +0.000 A 
ATOM     19  C   UNL     1       6.247   3.766  14.012  0.00  0.00    +0.000 A 
ATOM     20  C   UNL     1       5.960   3.377  12.701  0.00  0.00    +0.000 A 
ATOM     21  C   UNL     1       6.621   3.979  11.634  0.00  0.00    +0.000 A 
ATOM     22  C   UNL     1       7.593   4.945  11.882  0.00  0.00    +0.000 A 
ATOM     23  C   UNL     1       7.893   5.318  13.196  0.00  0.00    +0.000 A 
ENDBRANCH  16  18
ENDBRANCH   8  16
TORSDOF 3
ENDMDL
MODEL 4
REMARK VINA RESULT:      -7.7      4.105      5.540
REMARK  Name = 
REMARK  3 active torsions:
REMARK  status: ('A' for Active; 'I' for Inactive)
REMARK    1  A    between atoms: N_6  and  C_7
REMARK    2  A    between atoms: C_14  and  N_15
REMARK    3  A    between atoms: N_15  and  C_16
REMARK                            x       y       z     vdW  Elec       q    Type
REMARK                         _______ _______ _______ _____ _____    ______ ____
ROOT
ATOM      1 CL   UNL     1       1.931   1.771  19.363  0.00  0.00    +0.000 Cl
ATOM      2  C   UNL     1       2.056   3.463  19.641  0.00  0.00    +0.000 A 
ATOM      3  C   UNL     1       1.006   4.156  20.183  0.00  0.00    +0.000 A 
ATOM      4  N   UNL     1       1.048   5.475  20.448  0.00  0.00    +0.000 NA
ATOM      5  C   UNL     1       2.196   6.122  20.179  0.00  0.00    +0.000 A 
ATOM      6  N   UNL     1       2.353   7.439  20.588  0.00  0.00    +0.000 N 
ATOM      7  N   UNL     1       3.259   5.532  19.614  0.00  0.00    +0.000 NA
ATOM      8  C   UNL     1       3.184   4.212  19.331  0.00  0.00    +0.000 A 
ATOM      9  H   UNL     1       3.311   7.742  20.489  0.00  0.00    +0.000 HD
ENDROOT
BRANCH   6  10
ATOM     10  C   UNL     1       1.391   8.446  20.729  0.00  0.00    +0.000 A 
ATOM     11  C   UNL     1       0.803   8.666  21.981  0.00  0.00    +0.000 A 
ATOM     12  C   UNL     1      -0.196   9.630  22.144  0.00  0.00    +0.000 A 
ATOM     13  C   UNL     1      -0.606  10.401  21.057  0.00  0.00    +0.000 A 
ATOM     14  C   UNL     1      -0.029  10.196  19.808  0.00  0.00    +0.000 A 
ATOM     15  C   UNL     1       0.951   9.216  19.645  0.00  0.00    +0.000 A 
ENDBRANCH   6  10
BRANCH   8  16
ATOM     16  N   UNL     1       4.279   3.583  18.704  0.00  0.00    +0.000 N 
ATOM     17  H   UNL     1       4.647   2.813  19.248  0.00  0.00    +0.000 HD
BRANCH  16  18
ATOM     18  C   UNL     1       5.144   4.084  17.717  0.00  0.00    +0.000 A 
ATOM     19  C   UNL     1       4.723   4.115  16.382  0.00  0.00    +0.000 A 
ATOM     20  C   UNL     1       5.532   4.671  15.387  0.00  0.00    +0.000 A 
ATOM     21  C   UNL     1       6.771   5.214  15.717  0.00  0.00    +0.000 A 
ATOM     22  C   UNL     1       7.213   5.170  17.037  0.00  0.00    +0.000 A 
ATOM     23  C   UNL     1       6.410   4.595  18.027  0.00  0.00    +0.000 A 
ENDBRANCH  16  18
ENDBRANCH   8  16
TORSDOF 3
ENDMDL
MODEL 5
REMARK VINA RESULT:      -7.6      4.229      5.421
REMARK  Name = 
REMARK  3 active torsions:
REMARK  status: ('A' for Active; 'I' for Inactive)
REMARK    1  A    between atoms: N_6  and  C_7
REMARK    2  A    between atoms: C_14  and  N_15
REMARK    3  A    between atoms: N_15  and  C_16
REMARK                            x       y       z     vdW  Elec       q    Type
REMARK                         _______ _______ _______ _____ _____    ______ ____
ROOT
ATOM      1 CL   UNL     1       2.624   2.215  19.512  0.00  0.00    +0.000 Cl
ATOM      2  C   UNL     1       2.412   3.917  19.622  0.00  0.00    +0.000 A 
ATOM      3  C   UNL     1       1.777   4.468  20.703  0.00  0.00    +0.000 A 
ATOM      4  N   UNL     1       1.599   5.793  20.861  0.00  0.00    +0.000 NA
ATOM      5  C   UNL     1       2.099   6.600  19.908  0.00  0.00    +0.000 A 
ATOM      6  N   UNL     1       2.096   7.974  20.101  0.00  0.00    +0.000 N 
ATOM      7  N   UNL     1       2.700   6.146  18.799  0.00  0.00    +0.000 NA
ATOM      8  C   UNL     1       2.843   4.809  18.648  0.00  0.00    +0.000 A 
ATOM      9  H   UNL     1       2.655   8.444  19.405  0.00  0.00    +0.000 HD
ENDROOT
BRANCH   6  10
ATOM     10  C   UNL     1       1.190   8.768  20.815  0.00  0.00    +0.000 A 
ATOM     11  C   UNL     1       0.333   9.630  20.119  0.00  0.00    +0.000 A 
ATOM     12  C   UNL     1      -0.548  10.472  20.805  0.00  0.00    +0.000 A 
ATOM     13  C   UNL     1      -0.596  10.446  22.198  0.00  0.00    +0.000 A 
ATOM     14  C   UNL     1       0.247   9.593  22.903  0.00  0.00    +0.000 A 
ATOM     15  C   UNL     1       1.141   8.771  22.215  0.00  0.00    +0.000 A 
ENDBRANCH   6  10
BRANCH   8  16
ATOM     16  N   UNL     1       3.441   4.313  17.472  0.00  0.00    +0.000 N 
ATOM     17  H   UNL     1       2.894   3.579  17.041  0.00  0.00    +0.000 HD
BRANCH  16  18
ATOM     18  C   UNL     1       4.783   4.377  17.064  0.00  0.00    +0.000 A 
ATOM     19  C   UNL     1       5.091   4.354  15.698  0.00  0.00    +0.000 A 
ATOM     20  C   UNL     1       6.410   4.486  15.257  0.00  0.00    +0.000 A 
ATOM     21  C   UNL     1       7.440   4.654  16.178  0.00  0.00    +0.000 A 
ATOM     22  C   UNL     1       7.153   4.656  17.541  0.00  0.00    +0.000 A 
ATOM     23  C   UNL     1       5.834   4.503  17.980  0.00  0.00    +0.000 A 
ENDBRANCH  16  18
ENDBRANCH   8  16
TORSDOF 3
ENDMDL
MODEL 6
REMARK VINA RESULT:      -7.6      1.745      7.275
REMARK  Name = 
REMARK  3 active torsions:
REMARK  status: ('A' for Active; 'I' for Inactive)
REMARK    1  A    between atoms: N_6  and  C_7
REMARK    2  A    between atoms: C_14  and  N_15
REMARK    3  A    between atoms: N_15  and  C_16
REMARK                            x       y       z     vdW  Elec       q    Type
REMARK                         _______ _______ _______ _____ _____    ______ ____
ROOT
ATOM      1 CL   UNL     1       2.583   8.102  18.725  0.00  0.00    +0.000 Cl
ATOM      2  C   UNL     1       3.669   7.081  17.869  0.00  0.00    +0.000 A 
ATOM      3  C   UNL     1       4.056   7.396  16.593  0.00  0.00    +0.000 A 
ATOM      4  N   UNL     1       4.921   6.651  15.877  0.00  0.00    +0.000 NA
ATOM      5  C   UNL     1       5.436   5.561  16.473  0.00  0.00    +0.000 A 
ATOM      6  N   UNL     1       6.456   4.856  15.849  0.00  0.00    +0.000 N 
ATOM      7  N   UNL     1       5.085   5.158  17.702  0.00  0.00    +0.000 NA
ATOM      8  C   UNL     1       4.193   5.906  18.392  0.00  0.00    +0.000 A 
ATOM      9  H   UNL     1       6.870   4.180  16.474  0.00  0.00    +0.000 HD
ENDROOT
BRANCH   6  10
ATOM     10  C   UNL     1       6.707   4.680  14.483  0.00  0.00    +0.000 A 
ATOM     11  C   UNL     1       6.011   3.690  13.777  0.00  0.00    +0.000 A 
ATOM     12  C   UNL     1       6.274   3.457  12.424  0.00  0.00    +0.000 A 
ATOM     13  C   UNL     1       7.226   4.226  11.755  0.00  0.00    +0.000 A 
ATOM     14  C   UNL     1       7.923   5.214  12.442  0.00  0.00    +0.000 A 
ATOM     15  C   UNL     1       7.673   5.428  13.799  0.00  0.00    +0.000 A 
ENDBRANCH   6  10
BRANCH   8  16
ATOM     16  N   UNL     1       3.786   5.477  19.672  0.00  0.00    +0.000 N 
ATOM     17  H   UNL     1       4.495   5.635  20.376  0.00  0.00    +0.000 HD
BRANCH  16  18
ATOM     18  C   UNL     1       2.791   4.550  20.022  0.00  0.00    +0.000 A 
ATOM     19  C   UNL     1       1.974   4.004  19.024  0.00  0.00    +0.000 A 
ATOM     20  C   UNL     1       1.022   3.028  19.329  0.00  0.00    +0.000 A 
ATOM     21  C   UNL     1       0.882   2.576  20.638  0.00  0.00    +0.000 A 
ATOM     22  C   UNL     1       1.670   3.126  21.646  0.00  0.00    +0.000 A 
ATOM     23  C   UNL     1       2.608   4.117  21.341  0.00  0.00    +0.000 A 
ENDBRANCH  16  18
ENDBRANCH   8  16
TORSDOF 3
ENDMDL
MODEL 7
REMARK VINA RESULT:      -7.6      4.180      5.422
REMARK  Name = 
REMARK  3 active torsions:
REMARK  status: ('A' for Active; 'I' for Inactive)
REMARK    1  A    between atoms: N_6  and  C_7
REMARK    2  A    between atoms: C_14  and  N_15
REMARK    3  A    between atoms: N_15  and  C_16
REMARK                            x       y       z     vdW  Elec       q    Type
REMARK                         _______ _______ _______ _____ _____    ______ ____
ROOT
ATOM      1 CL   UNL     1       2.353   1.980  19.556  0.00  0.00    +0.000 Cl
ATOM      2  C   UNL     1       2.255   3.693  19.646  0.00  0.00    +0.000 A 
ATOM      3  C   UNL     1       1.560   4.296  20.661  0.00  0.00    +0.000 A 
ATOM      4  N   UNL     1       1.464   5.632  20.801  0.00  0.00    +0.000 NA
ATOM      5  C   UNL     1       2.111   6.394  19.901  0.00  0.00    +0.000 A 
ATOM      6  N   UNL     1       2.190   7.766  20.094  0.00  0.00    +0.000 N 
ATOM      7  N   UNL     1       2.783   5.890  18.856  0.00  0.00    +0.000 NA
ATOM      8  C   UNL     1       2.842   4.546  18.719  0.00  0.00    +0.000 A 
ATOM      9  H   UNL     1       2.846   8.190  19.456  0.00  0.00    +0.000 HD
ENDROOT
BRANCH   6  10
ATOM     10  C   UNL     1       1.279   8.629  20.717  0.00  0.00    +0.000 A 
ATOM     11  C   UNL     1       0.476   9.466  19.932  0.00  0.00    +0.000 A 
ATOM     12  C   UNL     1      -0.407  10.373  20.524  0.00  0.00    +0.000 A 
ATOM     13  C   UNL     1      -0.512  10.439  21.913  0.00  0.00    +0.000 A 
ATOM     14  C   UNL     1       0.276   9.611  22.706  0.00  0.00    +0.000 A 
ATOM     15  C   UNL     1       1.173   8.723  22.110  0.00  0.00    +0.000 A 
ENDBRANCH   6  10
BRANCH   8  16
ATOM     16  N   UNL     1       3.513   4.000  17.606  0.00  0.00    +0.000 N 
ATOM     17  H   UNL     1       3.162   3.086  17.353  0.00  0.00    +0.000 HD
BRANCH  16  18
ATOM     18  C   UNL     1       4.782   4.316  17.092  0.00  0.00    +0.000 A 
ATOM     19  C   UNL     1       5.881   4.379  17.958  0.00  0.00    +0.000 A 
ATOM     20  C   UNL     1       7.167   4.623  17.469  0.00  0.00    +0.000 A 
ATOM     21  C   UNL     1       7.373   4.796  16.103  0.00  0.00    +0.000 A 
ATOM     22  C   UNL     1       6.287   4.759  15.232  0.00  0.00    +0.000 A 
ATOM     23  C   UNL     1       4.998   4.535  15.727  0.00  0.00    +0.000 A 
ENDBRANCH  16  18
ENDBRANCH   8  16
TORSDOF 3
ENDMDL
MODEL 8
REMARK VINA RESULT:      -7.5      1.746      7.336
REMARK  Name = 
REMARK  3 active torsions:
REMARK  status: ('A' for Active; 'I' for Inactive)
REMARK    1  A    between atoms: N_6  and  C_7
REMARK    2  A    between atoms: C_14  and  N_15
REMARK    3  A    between atoms: N_15  and  C_16
REMARK                            x       y       z     vdW  Elec       q    Type
REMARK                         _______ _______ _______ _____ _____    ______ ____
ROOT
ATOM      1 CL   UNL     1       2.541   8.023  18.739  0.00  0.00    +0.000 Cl
ATOM      2  C   UNL     1       3.642   7.007  17.897  0.00  0.00    +0.000 A 
ATOM      3  C   UNL     1       4.032   7.316  16.620  0.00  0.00    +0.000 A 
ATOM      4  N   UNL     1       4.909   6.575  15.915  0.00  0.00    +0.000 NA
ATOM      5  C   UNL     1       5.434   5.497  16.523  0.00  0.00    +0.000 A 
ATOM      6  N   UNL     1       6.465   4.798  15.910  0.00  0.00    +0.000 N 
ATOM      7  N   UNL     1       5.081   5.100  17.754  0.00  0.00    +0.000 NA
ATOM      8  C   UNL     1       4.178   5.843  18.433  0.00  0.00    +0.000 A 
ATOM      9  H   UNL     1       6.884   4.133  16.542  0.00  0.00    +0.000 HD
ENDROOT
BRANCH   6  10
ATOM     10  C   UNL     1       6.725   4.613  14.547  0.00  0.00    +0.000 A 
ATOM     11  C   UNL     1       7.699   5.400  13.919  0.00  0.00    +0.000 A 
ATOM     12  C   UNL     1       7.947   5.274  12.549  0.00  0.00    +0.000 A 
ATOM     13  C   UNL     1       7.236   4.343  11.793  0.00  0.00    +0.000 A 
ATOM     14  C   UNL     1       6.269   3.552  12.404  0.00  0.00    +0.000 A 
ATOM     15  C   UNL     1       6.008   3.698  13.767  0.00  0.00    +0.000 A 
ENDBRANCH   6  10
BRANCH   8  16
ATOM     16  N   UNL     1       3.769   5.421  19.714  0.00  0.00    +0.000 N 
ATOM     17  H   UNL     1       4.458   5.624  20.426  0.00  0.00    +0.000 HD
BRANCH  16  18
ATOM     18  C   UNL     1       2.812   4.455  20.067  0.00  0.00    +0.000 A 
ATOM     19  C   UNL     1       2.722   4.026  21.397  0.00  0.00    +0.000 A 
ATOM     20  C   UNL     1       1.735   3.119  21.793  0.00  0.00    +0.000 A 
ATOM     21  C   UNL     1       0.818   2.636  20.865  0.00  0.00    +0.000 A 
ATOM     22  C   UNL     1       0.909   3.035  19.534  0.00  0.00    +0.000 A 
ATOM     23  C   UNL     1       1.909   3.927  19.135  0.00  0.00    +0.000 A 
ENDBRANCH  16  18
ENDBRANCH   8  16
TORSDOF 3
ENDMDL
MODEL 9
REMARK VINA RESULT:      -7.5      1.747      7.292
REMARK  Name = 
REMARK  3 active torsions:
REMARK  status: ('A' for Active; 'I' for Inactive)
REMARK    1  A    between atoms: N_6  and  C_7
REMARK    2  A    between atoms: C_14  and  N_15
REMARK    3  A    between atoms: N_15  and  C_16
REMARK                            x       y       z     vdW  Elec       q    Type
REMARK                         _______ _______ _______ _____ _____    ______ ____
ROOT
ATOM      1 CL   UNL     1       2.585   8.146  18.649  0.00  0.00    +0.000 Cl
ATOM      2  C   UNL     1       3.671   7.117  17.804  0.00  0.00    +0.000 A 
ATOM      3  C   UNL     1       4.078   7.431  16.534  0.00  0.00    +0.000 A 
ATOM      4  N   UNL     1       4.944   6.681  15.827  0.00  0.00    +0.000 NA
ATOM      5  C   UNL     1       5.440   5.583  16.425  0.00  0.00    +0.000 A 
ATOM      6  N   UNL     1       6.460   4.870  15.813  0.00  0.00    +0.000 N 
ATOM      7  N   UNL     1       5.069   5.180  17.649  0.00  0.00    +0.000 NA
ATOM      8  C   UNL     1       4.177   5.934  18.330  0.00  0.00    +0.000 A 
ATOM      9  H   UNL     1       6.860   4.187  16.440  0.00  0.00    +0.000 HD
ENDROOT
BRANCH   6  10
ATOM     10  C   UNL     1       6.727   4.695  14.449  0.00  0.00    +0.000 A 
ATOM     11  C   UNL     1       6.050   3.698  13.736  0.00  0.00    +0.000 A 
ATOM     12  C   UNL     1       6.329   3.466  12.387  0.00  0.00    +0.000 A 
ATOM     13  C   UNL     1       7.279   4.245  11.727  0.00  0.00    +0.000 A 
ATOM     14  C   UNL     1       7.957   5.242  12.420  0.00  0.00    +0.000 A 
ATOM     15  C   UNL     1       7.691   5.454  13.774  0.00  0.00    +0.000 A 
ENDBRANCH   6  10
BRANCH   8  16
ATOM     16  N   UNL     1       3.748   5.506  19.603  0.00  0.00    +0.000 N 
ATOM     17  H   UNL     1       4.412   5.734  20.331  0.00  0.00    +0.000 HD
BRANCH  16  18
ATOM     18  C   UNL     1       2.812   4.513  19.936  0.00  0.00    +0.000 A 
ATOM     19  C   UNL     1       2.690   4.100  21.269  0.00  0.00    +0.000 A 
ATOM     20  C   UNL     1       1.721   3.165  21.644  0.00  0.00    +0.000 A 
ATOM     21  C   UNL     1       0.854   2.638  20.692  0.00  0.00    +0.000 A 
ATOM     22  C   UNL     1       0.979   3.021  19.359  0.00  0.00    +0.000 A 
ATOM     23  C   UNL     1       1.962   3.942  18.982  0.00  0.00    +0.000 A 
ENDBRANCH  16  18
ENDBRANCH   8  16
TORSDOF 3
ENDMDL
