MODEL 1
REMARK VINA RESULT:      -5.6      0.000      0.000
REMARK  Name = 
REMARK  6 active torsions:
REMARK  status: ('A' for Active; 'I' for Inactive)
REMARK    1  A    between atoms: P_2  and  O_3
REMARK    2  A    between atoms: P_2  and  O_4
REMARK    3  A    between atoms: P_2  and  C_5
REMARK    4  A    between atoms: C_5  and  C_6
REMARK    5  A    between atoms: C_6  and  C_7
REMARK    6  A    between atoms: C_7  and  N_8
REMARK                            x       y       z     vdW  Elec       q    Type
REMARK                         _______ _______ _______ _____ _____    ______ ____
ROOT
ATOM      1  C   UNL     1       5.505   4.757  19.171  0.00  0.00    +0.000 C 
ENDROOT
BRANCH   1   2
ATOM      2  C   UNL     1       6.108   5.666  18.110  0.00  0.00    +0.000 C 
BRANCH   2   4
ATOM      3  O   UNL     1       7.508   5.613  15.673  0.00  0.00    +0.000 OA
ATOM      4  P   UNL     1       7.002   4.828  16.839  0.00  0.00    +0.000 P 
BRANCH   4   5
ATOM      5  O   UNL     1       6.089   3.596  16.378  0.00  0.00    +0.000 OA
ATOM      6  H   UNL     1       6.487   3.083  15.649  0.00  0.00    +0.000 HD
ENDBRANCH   4   5
BRANCH   4   7
ATOM      7  O   UNL     1       8.178   4.062  17.606  0.00  0.00    +0.000 OA
ATOM      8  H   UNL     1       8.971   4.608  17.736  0.00  0.00    +0.000 HD
ENDBRANCH   4   7
ENDBRANCH   2   4
ENDBRANCH   1   2
BRANCH   1   9
ATOM      9  C   UNL     1       3.973   4.761  19.113  0.00  0.00    +0.000 C 
BRANCH   9  10
ATOM     10  N   UNL     1       3.356   3.663  19.875  0.00  0.00    +0.000 NA
ATOM     11  C   UNL     1       1.881   3.632  19.766  0.00  0.00    +0.000 C 
ATOM     12  C   UNL     1       1.367   3.241  18.365  0.00  0.00    +0.000 C 
ATOM     13  N   UNL     1       1.886   1.943  17.914  0.00  0.00    +0.000 NA
ATOM     14  C   UNL     1       3.349   1.882  18.054  0.00  0.00    +0.000 C 
ATOM     15  C   UNL     1       3.869   2.347  19.435  0.00  0.00    +0.000 C 
ATOM     16  H   UNL     1       1.630   1.794  16.941  0.00  0.00    +0.000 HD
ENDBRANCH   9  10
ENDBRANCH   1   9
TORSDOF 6
ENDMDL
MODEL 2
REMARK VINA RESULT:      -5.5      1.098      1.673
REMARK  Name = 
REMARK  6 active torsions:
REMARK  status: ('A' for Active; 'I' for Inactive)
REMARK    1  A    between atoms: P_2  and  O_3
REMARK    2  A    between atoms: P_2  and  O_4
REMARK    3  A    between atoms: P_2  and  C_5
REMARK    4  A    between atoms: C_5  and  C_6
REMARK    5  A    between atoms: C_6  and  C_7
REMARK    6  A    between atoms: C_7  and  N_8
REMARK                            x       y       z     vdW  Elec       q    Type
REMARK                         _______ _______ _______ _____ _____    ______ ____
ROOT
ATOM      1  C   UNL     1       4.591   5.972  17.575  0.00  0.00    +0.000 C 
ENDROOT
BRANCH   1   2
ATOM      2  C   UNL     1       6.052   5.688  17.894  0.00  0.00    +0.000 C 
BRANCH   2   4
ATOM      3  O   UNL     1       7.420   5.640  15.440  0.00  0.00    +0.000 OA
ATOM      4  P   UNL     1       6.940   4.854  16.616  0.00  0.00    +0.000 P 
BRANCH   4   5
ATOM      5  O   UNL     1       6.038   3.608  16.174  0.00  0.00    +0.000 OA
ATOM      6  H   UNL     1       6.543   2.775  16.120  0.00  0.00    +0.000 HD
ENDBRANCH   4   5
BRANCH   4   7
ATOM      7  O   UNL     1       8.135   4.109  17.372  0.00  0.00    +0.000 OA
ATOM      8  H   UNL     1       8.044   4.118  18.339  0.00  0.00    +0.000 HD
ENDBRANCH   4   7
ENDBRANCH   2   4
ENDBRANCH   1   2
BRANCH   1   9
ATOM      9  C   UNL     1       3.650   5.094  18.407  0.00  0.00    +0.000 C 
BRANCH   9  10
ATOM     10  N   UNL     1       3.765   3.659  18.100  0.00  0.00    +0.000 NA
ATOM     11  C   UNL     1       4.085   2.831  19.284  0.00  0.00    +0.000 C 
ATOM     12  C   UNL     1       2.938   2.743  20.312  0.00  0.00    +0.000 C 
ATOM     13  N   UNL     1       1.690   2.238  19.725  0.00  0.00    +0.000 NA
ATOM     14  C   UNL     1       1.343   2.979  18.503  0.00  0.00    +0.000 C 
ATOM     15  C   UNL     1       2.516   3.133  17.506  0.00  0.00    +0.000 C 
ATOM     16  H   UNL     1       0.935   2.325  20.403  0.00  0.00    +0.000 HD
ENDBRANCH   9  10
ENDBRANCH   1   9
TORSDOF 6
ENDMDL
MODEL 3
REMARK VINA RESULT:      -5.5      1.188      1.984
REMARK  Name = 
REMARK  6 active torsions:
REMARK  status: ('A' for Active; 'I' for Inactive)
REMARK    1  A    between atoms: P_2  and  O_3
REMARK    2  A    between atoms: P_2  and  O_4
REMARK    3  A    between atoms: P_2  and  C_5
REMARK    4  A    between atoms: C_5  and  C_6
REMARK    5  A    between atoms: C_6  and  C_7
REMARK    6  A    between atoms: C_7  and  N_8
REMARK                            x       y       z     vdW  Elec       q    Type
REMARK                         _______ _______ _______ _____ _____    ______ ____
ROOT
ATOM      1  C   UNL     1       5.257   4.242  18.925  0.00  0.00    +0.000 C 
ENDROOT
BRANCH   1   2
ATOM      2  C   UNL     1       5.778   5.317  17.982  0.00  0.00    +0.000 C 
BRANCH   2   4
ATOM      3  O   UNL     1       6.227   3.787  15.668  0.00  0.00    +0.000 OA
ATOM      4  P   UNL     1       6.809   4.721  16.678  0.00  0.00    +0.000 P 
BRANCH   4   5
ATOM      5  O   UNL     1       8.114   4.111  17.375  0.00  0.00    +0.000 OA
ATOM      6  H   UNL     1       8.078   3.139  17.460  0.00  0.00    +0.000 HD
ENDBRANCH   4   5
BRANCH   4   7
ATOM      7  O   UNL     1       7.414   6.038  16.004  0.00  0.00    +0.000 OA
ATOM      8  H   UNL     1       6.989   6.857  16.309  0.00  0.00    +0.000 HD
ENDBRANCH   4   7
ENDBRANCH   2   4
ENDBRANCH   1   2
BRANCH   1   9
ATOM      9  C   UNL     1       3.847   3.785  18.537  0.00  0.00    +0.000 C 
BRANCH   9  10
ATOM     10  N   UNL     1       3.407   2.575  19.251  0.00  0.00    +0.000 NA
ATOM     11  C   UNL     1       3.132   2.809  20.685  0.00  0.00    +0.000 C 
ATOM     12  C   UNL     1       1.887   3.682  20.948  0.00  0.00    +0.000 C 
ATOM     13  N   UNL     1       0.672   3.132  20.333  0.00  0.00    +0.000 NA
ATOM     14  C   UNL     1       0.893   2.817  18.914  0.00  0.00    +0.000 C 
ATOM     15  C   UNL     1       2.183   2.007  18.643  0.00  0.00    +0.000 C 
ATOM     16  H   UNL     1      -0.087   3.805  20.419  0.00  0.00    +0.000 HD
ENDBRANCH   9  10
ENDBRANCH   1   9
TORSDOF 6
ENDMDL
MODEL 4
REMARK VINA RESULT:      -5.5      1.392      1.822
REMARK  Name = 
REMARK  6 active torsions:
REMARK  status: ('A' for Active; 'I' for Inactive)
REMARK    1  A    between atoms: P_2  and  O_3
REMARK    2  A    between atoms: P_2  and  O_4
REMARK    3  A    between atoms: P_2  and  C_5
REMARK    4  A    between atoms: C_5  and  C_6
REMARK    5  A    between atoms: C_6  and  C_7
REMARK    6  A    between atoms: C_7  and  N_8
REMARK                            x       y       z     vdW  Elec       q    Type
REMARK                         _______ _______ _______ _____ _____    ______ ____
ROOT
ATOM      1  C   UNL     1       4.597   4.089  17.973  0.00  0.00    +0.000 C 
ENDROOT
BRANCH   1   2
ATOM      2  C   UNL     1       5.722   5.108  17.855  0.00  0.00    +0.000 C 
BRANCH   2   4
ATOM      3  O   UNL     1       7.365   5.844  15.697  0.00  0.00    +0.000 OA
ATOM      4  P   UNL     1       6.919   4.747  16.608  0.00  0.00    +0.000 P 
BRANCH   4   5
ATOM      5  O   UNL     1       6.362   3.485  15.796  0.00  0.00    +0.000 OA
ATOM      6  H   UNL     1       6.342   2.670  16.332  0.00  0.00    +0.000 HD
ENDBRANCH   4   5
BRANCH   4   7
ATOM      7  O   UNL     1       8.140   4.084  17.397  0.00  0.00    +0.000 OA
ATOM      8  H   UNL     1       8.963   4.596  17.333  0.00  0.00    +0.000 HD
ENDBRANCH   4   7
ENDBRANCH   2   4
ENDBRANCH   1   2
BRANCH   1   9
ATOM      9  C   UNL     1       4.002   4.067  19.385  0.00  0.00    +0.000 C 
BRANCH   9  10
ATOM     10  N   UNL     1       2.745   4.826  19.502  0.00  0.00    +0.000 NA
ATOM     11  C   UNL     1       1.691   4.359  18.576  0.00  0.00    +0.000 C 
ATOM     12  C   UNL     1       1.134   2.961  18.917  0.00  0.00    +0.000 C 
ATOM     13  N   UNL     1       0.608   2.882  20.286  0.00  0.00    +0.000 NA
ATOM     14  C   UNL     1       1.586   3.391  21.259  0.00  0.00    +0.000 C 
ATOM     15  C   UNL     1       2.201   4.758  20.876  0.00  0.00    +0.000 C 
ATOM     16  H   UNL     1       0.378   1.915  20.507  0.00  0.00    +0.000 HD
ENDBRANCH   9  10
ENDBRANCH   1   9
TORSDOF 6
ENDMDL
MODEL 5
REMARK VINA RESULT:      -5.5      0.511      1.322
REMARK  Name = 
REMARK  6 active torsions:
REMARK  status: ('A' for Active; 'I' for Inactive)
REMARK    1  A    between atoms: P_2  and  O_3
REMARK    2  A    between atoms: P_2  and  O_4
REMARK    3  A    between atoms: P_2  and  C_5
REMARK    4  A    between atoms: C_5  and  C_6
REMARK    5  A    between atoms: C_6  and  C_7
REMARK    6  A    between atoms: C_7  and  N_8
REMARK                            x       y       z     vdW  Elec       q    Type
REMARK                         _______ _______ _______ _____ _____    ______ ____
ROOT
ATOM      1  C   UNL     1       5.035   5.256  19.243  0.00  0.00    +0.000 C 
ENDROOT
BRANCH   1   2
ATOM      2  C   UNL     1       5.386   5.627  17.809  0.00  0.00    +0.000 C 
BRANCH   2   4
ATOM      3  O   UNL     1       7.896   4.409  18.142  0.00  0.00    +0.000 OA
ATOM      4  P   UNL     1       6.844   4.856  17.180  0.00  0.00    +0.000 P 
BRANCH   4   5
ATOM      5  O   UNL     1       7.434   5.841  16.065  0.00  0.00    +0.000 OA
ATOM      6  H   UNL     1       6.737   6.273  15.536  0.00  0.00    +0.000 HD
ENDBRANCH   4   5
BRANCH   4   7
ATOM      7  O   UNL     1       6.309   3.655  16.271  0.00  0.00    +0.000 OA
ATOM      8  H   UNL     1       5.659   3.936  15.606  0.00  0.00    +0.000 HD
ENDBRANCH   4   7
ENDBRANCH   2   4
ENDBRANCH   1   2
BRANCH   1   9
ATOM      9  C   UNL     1       3.563   4.847  19.376  0.00  0.00    +0.000 C 
BRANCH   9  10
ATOM     10  N   UNL     1       3.373   3.568  20.078  0.00  0.00    +0.000 NA
ATOM     11  C   UNL     1       1.955   3.159  20.176  0.00  0.00    +0.000 C 
ATOM     12  C   UNL     1       1.325   2.762  18.825  0.00  0.00    +0.000 C 
ATOM     13  N   UNL     1       2.065   1.687  18.151  0.00  0.00    +0.000 NA
ATOM     14  C   UNL     1       3.499   2.000  18.074  0.00  0.00    +0.000 C 
ATOM     15  C   UNL     1       4.113   2.473  19.413  0.00  0.00    +0.000 C 
ATOM     16  H   UNL     1       1.693   1.554  17.213  0.00  0.00    +0.000 HD
ENDBRANCH   9  10
ENDBRANCH   1   9
TORSDOF 6
ENDMDL
MODEL 6
REMARK VINA RESULT:      -5.5      0.873      2.066
REMARK  Name = 
REMARK  6 active torsions:
REMARK  status: ('A' for Active; 'I' for Inactive)
REMARK    1  A    between atoms: P_2  and  O_3
REMARK    2  A    between atoms: P_2  and  O_4
REMARK    3  A    between atoms: P_2  and  C_5
REMARK    4  A    between atoms: C_5  and  C_6
REMARK    5  A    between atoms: C_6  and  C_7
REMARK    6  A    between atoms: C_7  and  N_8
REMARK                            x       y       z     vdW  Elec       q    Type
REMARK                         _______ _______ _______ _____ _____    ______ ____
ROOT
ATOM      1  C   UNL     1       5.419   5.011  19.007  0.00  0.00    +0.000 C 
ENDROOT
BRANCH   1   2
ATOM      2  C   UNL     1       5.793   5.647  17.676  0.00  0.00    +0.000 C 
BRANCH   2   4
ATOM      3  O   UNL     1       8.193   4.204  17.446  0.00  0.00    +0.000 OA
ATOM      4  P   UNL     1       6.997   4.756  16.742  0.00  0.00    +0.000 P 
BRANCH   4   5
ATOM      5  O   UNL     1       7.407   5.698  15.514  0.00  0.00    +0.000 OA
ATOM      6  H   UNL     1       7.869   5.214  14.804  0.00  0.00    +0.000 HD
ENDBRANCH   4   5
BRANCH   4   7
ATOM      7  O   UNL     1       6.165   3.620  15.985  0.00  0.00    +0.000 OA
ATOM      8  H   UNL     1       5.798   3.912  15.135  0.00  0.00    +0.000 HD
ENDBRANCH   4   7
ENDBRANCH   2   4
ENDBRANCH   1   2
BRANCH   1   9
ATOM      9  C   UNL     1       3.931   4.648  19.061  0.00  0.00    +0.000 C 
BRANCH   9  10
ATOM     10  N   UNL     1       3.450   3.967  17.847  0.00  0.00    +0.000 NA
ATOM     11  C   UNL     1       3.753   2.520  17.829  0.00  0.00    +0.000 C 
ATOM     12  C   UNL     1       2.957   1.702  18.867  0.00  0.00    +0.000 C 
ATOM     13  N   UNL     1       1.504   1.867  18.722  0.00  0.00    +0.000 NA
ATOM     14  C   UNL     1       1.137   3.290  18.671  0.00  0.00    +0.000 C 
ATOM     15  C   UNL     1       1.988   4.125  17.685  0.00  0.00    +0.000 C 
ATOM     16  H   UNL     1       1.031   1.421  19.505  0.00  0.00    +0.000 HD
ENDBRANCH   9  10
ENDBRANCH   1   9
TORSDOF 6
ENDMDL
MODEL 7
REMARK VINA RESULT:      -5.5      1.814      2.273
REMARK  Name = 
REMARK  6 active torsions:
REMARK  status: ('A' for Active; 'I' for Inactive)
REMARK    1  A    between atoms: P_2  and  O_3
REMARK    2  A    between atoms: P_2  and  O_4
REMARK    3  A    between atoms: P_2  and  C_5
REMARK    4  A    between atoms: C_5  and  C_6
REMARK    5  A    between atoms: C_6  and  C_7
REMARK    6  A    between atoms: C_7  and  N_8
REMARK                            x       y       z     vdW  Elec       q    Type
REMARK                         _______ _______ _______ _____ _____    ______ ____
ROOT
ATOM      1  C   UNL     1       5.119   4.290  19.399  0.00  0.00    +0.000 C 
ENDROOT
BRANCH   1   2
ATOM      2  C   UNL     1       5.651   5.505  18.652  0.00  0.00    +0.000 C 
BRANCH   2   4
ATOM      3  O   UNL     1       7.986   7.029  18.299  0.00  0.00    +0.000 OA
ATOM      4  P   UNL     1       7.398   5.735  18.759  0.00  0.00    +0.000 P 
BRANCH   4   5
ATOM      5  O   UNL     1       8.066   4.480  18.025  0.00  0.00    +0.000 OA
ATOM      6  H   UNL     1       8.813   4.101  18.527  0.00  0.00    +0.000 HD
ENDBRANCH   4   5
BRANCH   4   7
ATOM      7  O   UNL     1       7.756   5.418  20.285  0.00  0.00    +0.000 OA
ATOM      8  H   UNL     1       8.230   4.579  20.403  0.00  0.00    +0.000 HD
ENDBRANCH   4   7
ENDBRANCH   2   4
ENDBRANCH   1   2
BRANCH   1   9
ATOM      9  C   UNL     1       3.839   3.747  18.756  0.00  0.00    +0.000 C 
BRANCH   9  10
ATOM     10  N   UNL     1       3.327   2.530  19.408  0.00  0.00    +0.000 NA
ATOM     11  C   UNL     1       3.038   2.715  20.847  0.00  0.00    +0.000 C 
ATOM     12  C   UNL     1       1.834   3.637  21.129  0.00  0.00    +0.000 C 
ATOM     13  N   UNL     1       0.604   3.176  20.471  0.00  0.00    +0.000 NA
ATOM     14  C   UNL     1       0.835   2.912  19.043  0.00  0.00    +0.000 C 
ATOM     15  C   UNL     1       2.088   2.051  18.757  0.00  0.00    +0.000 C 
ATOM     16  H   UNL     1      -0.122   3.882  20.575  0.00  0.00    +0.000 HD
ENDBRANCH   9  10
ENDBRANCH   1   9
TORSDOF 6
ENDMDL
MODEL 8
REMARK VINA RESULT:      -5.4      1.351      2.201
REMARK  Name = 
REMARK  6 active torsions:
REMARK  status: ('A' for Active; 'I' for Inactive)
REMARK    1  A    between atoms: P_2  and  O_3
REMARK    2  A    between atoms: P_2  and  O_4
REMARK    3  A    between atoms: P_2  and  C_5
REMARK    4  A    between atoms: C_5  and  C_6
REMARK    5  A    between atoms: C_6  and  C_7
REMARK    6  A    between atoms: C_7  and  N_8
REMARK                            x       y       z     vdW  Elec       q    Type
REMARK                         _______ _______ _______ _____ _____    ______ ____
ROOT
ATOM      1  C   UNL     1       5.106   4.839  19.160  0.00  0.00    +0.000 C 
ENDROOT
BRANCH   1   2
ATOM      2  C   UNL     1       5.625   5.622  17.962  0.00  0.00    +0.000 C 
BRANCH   2   4
ATOM      3  O   UNL     1       8.131   4.352  17.891  0.00  0.00    +0.000 OA
ATOM      4  P   UNL     1       6.967   4.860  17.104  0.00  0.00    +0.000 P 
BRANCH   4   5
ATOM      5  O   UNL     1       7.419   5.888  15.965  0.00  0.00    +0.000 OA
ATOM      6  H   UNL     1       6.797   6.633  15.859  0.00  0.00    +0.000 HD
ENDBRANCH   4   5
BRANCH   4   7
ATOM      7  O   UNL     1       6.287   3.712  16.224  0.00  0.00    +0.000 OA
ATOM      8  H   UNL     1       6.910   3.264  15.628  0.00  0.00    +0.000 HD
ENDBRANCH   4   7
ENDBRANCH   2   4
ENDBRANCH   1   2
BRANCH   1   9
ATOM      9  C   UNL     1       3.909   3.959  18.784  0.00  0.00    +0.000 C 
BRANCH   9  10
ATOM     10  N   UNL     1       2.636   4.697  18.729  0.00  0.00    +0.000 NA
ATOM     11  C   UNL     1       1.534   3.917  18.123  0.00  0.00    +0.000 C 
ATOM     12  C   UNL     1       1.061   2.730  18.988  0.00  0.00    +0.000 C 
ATOM     13  N   UNL     1       0.643   3.143  20.334  0.00  0.00    +0.000 NA
ATOM     14  C   UNL     1       1.671   3.977  20.974  0.00  0.00    +0.000 C 
ATOM     15  C   UNL     1       2.200   5.121  20.077  0.00  0.00    +0.000 C 
ATOM     16  H   UNL     1       0.470   2.317  20.904  0.00  0.00    +0.000 HD
ENDBRANCH   9  10
ENDBRANCH   1   9
TORSDOF 6
ENDMDL
MODEL 9
REMARK VINA RESULT:      -5.4      0.969      1.544
REMARK  Name = 
REMARK  6 active torsions:
REMARK  status: ('A' for Active; 'I' for Inactive)
REMARK    1  A    between atoms: P_2  and  O_3
REMARK    2  A    between atoms: P_2  and  O_4
REMARK    3  A    between atoms: P_2  and  C_5
REMARK    4  A    between atoms: C_5  and  C_6
REMARK    5  A    between atoms: C_6  and  C_7
REMARK    6  A    between atoms: C_7  and  N_8
REMARK                            x       y       z     vdW  Elec       q    Type
REMARK                         _______ _______ _______ _____ _____    ______ ____
ROOT
ATOM      1  C   UNL     1       5.683   4.961  19.045  0.00  0.00    +0.000 C 
ENDROOT
BRANCH   1   2
ATOM      2  C   UNL     1       5.887   5.654  17.705  0.00  0.00    +0.000 C 
BRANCH   2   4
ATOM      3  O   UNL     1       6.136   3.690  15.710  0.00  0.00    +0.000 OA
ATOM      4  P   UNL     1       6.827   4.730  16.530  0.00  0.00    +0.000 P 
BRANCH   4   5
ATOM      5  O   UNL     1       8.081   4.131  17.323  0.00  0.00    +0.000 OA
ATOM      6  H   UNL     1       8.927   4.538  17.056  0.00  0.00    +0.000 HD
ENDBRANCH   4   5
BRANCH   4   7
ATOM      7  O   UNL     1       7.543   5.836  15.623  0.00  0.00    +0.000 OA
ATOM      8  H   UNL     1       6.930   6.305  15.033  0.00  0.00    +0.000 HD
ENDBRANCH   4   7
ENDBRANCH   2   4
ENDBRANCH   1   2
BRANCH   1   9
ATOM      9  C   UNL     1       4.696   3.794  18.933  0.00  0.00    +0.000 C 
BRANCH   9  10
ATOM     10  N   UNL     1       3.483   3.974  19.747  0.00  0.00    +0.000 NA
ATOM     11  C   UNL     1       2.541   4.966  19.183  0.00  0.00    +0.000 C 
ATOM     12  C   UNL     1       1.861   4.507  17.876  0.00  0.00    +0.000 C 
ATOM     13  N   UNL     1       1.146   3.233  18.029  0.00  0.00    +0.000 NA
ATOM     14  C   UNL     1       2.009   2.213  18.644  0.00  0.00    +0.000 C 
ATOM     15  C   UNL     1       2.751   2.699  19.912  0.00  0.00    +0.000 C 
ATOM     16  H   UNL     1       0.832   2.908  17.117  0.00  0.00    +0.000 HD
ENDBRANCH   9  10
ENDBRANCH   1   9
TORSDOF 6
ENDMDL
