MODEL 1
REMARK VINA RESULT:      -6.7      0.000      0.000
REMARK  Name = 
REMARK  20 active torsions:
REMARK  status: ('A' for Active; 'I' for Inactive)
REMARK    1  A    between atoms: C_1  and  C_2
REMARK    2  A    between atoms: C_2  and  C_3
REMARK    3  A    between atoms: C_3  and  C_4
REMARK    4  A    between atoms: C_4  and  C_5
REMARK    5  A    between atoms: C_5  and  C_6
REMARK    6  A    between atoms: C_6  and  S_7
REMARK    7  A    between atoms: S_7  and  C_8
REMARK    8  A    between atoms: C_8  and  C_9
REMARK    9  A    between atoms: C_9  and  N_10
REMARK   10  A    between atoms: C_9  and  C_20
REMARK   11  A    between atoms: C_11  and  C_13
REMARK   12  A    between atoms: C_13  and  C_14
REMARK   13  A    between atoms: C_14  and  C_15
REMARK   14  A    between atoms: C_15  and  N_16
REMARK   15  A    between atoms: C_15  and  C_17
REMARK   16  A    between atoms: C_17  and  O_19
REMARK   17  A    between atoms: N_22  and  C_23
REMARK   18  A    between atoms: C_23  and  C_24
REMARK   19  A    between atoms: C_24  and  C_25
REMARK   20  A    between atoms: C_25  and  O_27
REMARK                            x       y       z     vdW  Elec       q    Type
REMARK                         _______ _______ _______ _____ _____    ______ ____
ROOT
ATOM      1  C   UNK     1       6.344   4.132  16.332  0.00  0.00    +0.000 C 
ENDROOT
BRANCH   1   2
ATOM      2  C   UNK     1       6.800   4.483  14.899  0.00  0.00    +0.000 C 
ATOM      3  O   UNK     1       7.642   5.345  14.662  0.00  0.00    +0.000 OA
ATOM      4  N   UNK     1       6.250   3.702  13.900  0.00  0.00    +0.000 N 
ATOM      5  H   UNK     1       5.496   3.062  14.159  0.00  0.00    +0.000 HD
BRANCH   4   6
ATOM      6  C   UNK     1       6.514   3.993  12.497  0.00  0.00    +0.000 C 
BRANCH   6   7
ATOM      7  C   UNK     1       6.948   2.771  11.685  0.00  0.00    +0.000 C 
BRANCH   7   8
ATOM      8  C   UNK     1       5.782   1.896  11.377  0.00  0.00    +0.000 C 
ATOM      9  O   UNK     1       5.878   0.695  11.240  0.00  0.00    +0.000 OA
BRANCH   8  10
ATOM     10  O   UNK     1       4.589   2.494  11.293  0.00  0.00    +0.000 OA
ATOM     11  H   UNK     1       4.631   3.462  11.321  0.00  0.00    +0.000 HD
ENDBRANCH   8  10
ENDBRANCH   7   8
ENDBRANCH   6   7
ENDBRANCH   4   6
ENDBRANCH   1   2
BRANCH   1  12
ATOM     12  N   UNK     1       4.890   4.318  16.467  0.00  0.00    +0.000 N 
ATOM     13  C   UNK     1       4.183   3.811  17.526  0.00  0.00    +0.000 C 
ATOM     14  O   UNK     1       4.717   3.148  18.411  0.00  0.00    +0.000 OA
ATOM     15  H   UNK     1       4.429   4.935  15.808  0.00  0.00    +0.000 HD
BRANCH  13  16
ATOM     16  C   UNK     1       2.681   4.041  17.471  0.00  0.00    +0.000 C 
BRANCH  16  17
ATOM     17  C   UNK     1       2.065   4.212  18.862  0.00  0.00    +0.000 C 
BRANCH  17  18
ATOM     18  C   UNK     1       1.493   2.917  19.451  0.00  0.00    +0.000 C 
BRANCH  18  19
ATOM     19  N   UNK     1       1.720   1.713  18.642  0.00  0.00    +0.000 NA
ATOM     20  H   UNK     1       1.037   1.001  18.892  0.00  0.00    +0.000 HD
ATOM     21  H   UNK     1       2.652   1.345  18.819  0.00  0.00    +0.000 HD
ENDBRANCH  18  19
BRANCH  18  22
ATOM     22  C   UNK     1       2.085   2.704  20.854  0.00  0.00    +0.000 C 
ATOM     23  O   UNK     1       1.411   2.709  21.870  0.00  0.00    +0.000 OA
BRANCH  22  24
ATOM     24  O   UNK     1       3.423   2.469  20.901  0.00  0.00    +0.000 OA
ATOM     25  H   UNK     1       3.737   2.618  21.823  0.00  0.00    +0.000 HD
ENDBRANCH  22  24
ENDBRANCH  18  22
ENDBRANCH  17  18
ENDBRANCH  16  17
ENDBRANCH  13  16
ENDBRANCH   1  12
BRANCH   1  26
ATOM     26  C   UNK     1       7.143   4.989  17.325  0.00  0.00    +0.000 C 
BRANCH  26  27
ATOM     27  S   UNK     1       6.604   6.735  17.418  0.00  0.00    +0.000 S 
BRANCH  27  28
ATOM     28  C   UNK     1       8.066   7.494  18.210  0.00  0.00    +0.000 C 
BRANCH  28  29
ATOM     29  C   UNK     1       8.074   8.981  17.860  0.00  0.00    +0.000 C 
BRANCH  29  30
ATOM     30  C   UNK     1       8.891   9.809  18.855  0.00  0.00    +0.000 C 
BRANCH  30  31
ATOM     31  C   UNK     1       9.775  10.819  18.118  0.00  0.00    +0.000 C 
BRANCH  31  33
ATOM     32  C   UNK     1      10.043  13.242  17.469  0.00  0.00    +0.000 C 
ATOM     33  C   UNK     1       9.089  12.179  17.992  0.00  0.00    +0.000 C 
ENDBRANCH  31  33
ENDBRANCH  30  31
ENDBRANCH  29  30
ENDBRANCH  28  29
ENDBRANCH  27  28
ENDBRANCH  26  27
ENDBRANCH   1  26
TORSDOF 19
ENDMDL
MODEL 2
REMARK VINA RESULT:      -6.6      1.676      2.092
REMARK  Name = 
REMARK  20 active torsions:
REMARK  status: ('A' for Active; 'I' for Inactive)
REMARK    1  A    between atoms: C_1  and  C_2
REMARK    2  A    between atoms: C_2  and  C_3
REMARK    3  A    between atoms: C_3  and  C_4
REMARK    4  A    between atoms: C_4  and  C_5
REMARK    5  A    between atoms: C_5  and  C_6
REMARK    6  A    between atoms: C_6  and  S_7
REMARK    7  A    between atoms: S_7  and  C_8
REMARK    8  A    between atoms: C_8  and  C_9
REMARK    9  A    between atoms: C_9  and  N_10
REMARK   10  A    between atoms: C_9  and  C_20
REMARK   11  A    between atoms: C_11  and  C_13
REMARK   12  A    between atoms: C_13  and  C_14
REMARK   13  A    between atoms: C_14  and  C_15
REMARK   14  A    between atoms: C_15  and  N_16
REMARK   15  A    between atoms: C_15  and  C_17
REMARK   16  A    between atoms: C_17  and  O_19
REMARK   17  A    between atoms: N_22  and  C_23
REMARK   18  A    between atoms: C_23  and  C_24
REMARK   19  A    between atoms: C_24  and  C_25
REMARK   20  A    between atoms: C_25  and  O_27
REMARK                            x       y       z     vdW  Elec       q    Type
REMARK                         _______ _______ _______ _____ _____    ______ ____
ROOT
ATOM      1  C   UNK     1       6.209   4.509  16.907  0.00  0.00    +0.000 C 
ENDROOT
BRANCH   1   2
ATOM      2  C   UNK     1       6.232   5.184  15.518  0.00  0.00    +0.000 C 
ATOM      3  O   UNK     1       5.525   6.149  15.236  0.00  0.00    +0.000 OA
ATOM      4  N   UNK     1       7.163   4.676  14.634  0.00  0.00    +0.000 N 
ATOM      5  H   UNK     1       7.657   3.822  14.904  0.00  0.00    +0.000 HD
BRANCH   4   6
ATOM      6  C   UNK     1       7.220   5.151  13.257  0.00  0.00    +0.000 C 
BRANCH   6   7
ATOM      7  C   UNK     1       7.199   4.028  12.217  0.00  0.00    +0.000 C 
BRANCH   7   8
ATOM      8  C   UNK     1       5.935   3.246  12.305  0.00  0.00    +0.000 C 
ATOM      9  O   UNK     1       4.888   3.726  12.685  0.00  0.00    +0.000 OA
BRANCH   8  10
ATOM     10  O   UNK     1       5.989   1.971  11.905  0.00  0.00    +0.000 OA
ATOM     11  H   UNK     1       6.885   1.657  11.709  0.00  0.00    +0.000 HD
ENDBRANCH   8  10
ENDBRANCH   7   8
ENDBRANCH   6   7
ENDBRANCH   4   6
ENDBRANCH   1   2
BRANCH   1  12
ATOM     12  N   UNK     1       5.148   5.093  17.743  0.00  0.00    +0.000 N 
ATOM     13  C   UNK     1       4.692   4.478  18.881  0.00  0.00    +0.000 C 
ATOM     14  O   UNK     1       5.122   3.389  19.253  0.00  0.00    +0.000 OA
ATOM     15  H   UNK     1       4.833   6.030  17.522  0.00  0.00    +0.000 HD
BRANCH  13  16
ATOM     16  C   UNK     1       3.548   5.189  19.586  0.00  0.00    +0.000 C 
BRANCH  16  17
ATOM     17  C   UNK     1       2.177   4.704  19.107  0.00  0.00    +0.000 C 
BRANCH  17  18
ATOM     18  C   UNK     1       1.779   3.327  19.652  0.00  0.00    +0.000 C 
BRANCH  18  19
ATOM     19  N   UNK     1       0.582   3.318  20.501  0.00  0.00    +0.000 NA
ATOM     20  H   UNK     1       0.807   3.718  21.410  0.00  0.00    +0.000 HD
ATOM     21  H   UNK     1       0.259   2.364  20.638  0.00  0.00    +0.000 HD
ENDBRANCH  18  19
BRANCH  18  22
ATOM     22  C   UNK     1       1.570   2.366  18.470  0.00  0.00    +0.000 C 
ATOM     23  O   UNK     1       2.467   2.030  17.717  0.00  0.00    +0.000 OA
BRANCH  22  24
ATOM     24  O   UNK     1       0.313   1.869  18.329  0.00  0.00    +0.000 OA
ATOM     25  H   UNK     1      -0.333   2.596  18.490  0.00  0.00    +0.000 HD
ENDBRANCH  22  24
ENDBRANCH  18  22
ENDBRANCH  17  18
ENDBRANCH  16  17
ENDBRANCH  13  16
ENDBRANCH   1  12
BRANCH   1  26
ATOM     26  C   UNK     1       7.602   4.643  17.541  0.00  0.00    +0.000 C 
BRANCH  26  27
ATOM     27  S   UNK     1       7.723   5.938  18.826  0.00  0.00    +0.000 S 
BRANCH  27  28
ATOM     28  C   UNK     1       7.788   7.438  17.784  0.00  0.00    +0.000 C 
BRANCH  28  29
ATOM     29  C   UNK     1       8.522   8.525  18.566  0.00  0.00    +0.000 C 
BRANCH  29  30
ATOM     30  C   UNK     1       8.382   9.905  17.918  0.00  0.00    +0.000 C 
BRANCH  30  31
ATOM     31  C   UNK     1       9.412  10.880  18.496  0.00  0.00    +0.000 C 
BRANCH  31  33
ATOM     32  C   UNK     1      10.435  11.816  20.603  0.00  0.00    +0.000 C 
ATOM     33  C   UNK     1       9.474  10.792  20.021  0.00  0.00    +0.000 C 
ENDBRANCH  31  33
ENDBRANCH  30  31
ENDBRANCH  29  30
ENDBRANCH  28  29
ENDBRANCH  27  28
ENDBRANCH  26  27
ENDBRANCH   1  26
TORSDOF 19
ENDMDL
MODEL 3
REMARK VINA RESULT:      -6.6      3.776      7.200
REMARK  Name = 
REMARK  20 active torsions:
REMARK  status: ('A' for Active; 'I' for Inactive)
REMARK    1  A    between atoms: C_1  and  C_2
REMARK    2  A    between atoms: C_2  and  C_3
REMARK    3  A    between atoms: C_3  and  C_4
REMARK    4  A    between atoms: C_4  and  C_5
REMARK    5  A    between atoms: C_5  and  C_6
REMARK    6  A    between atoms: C_6  and  S_7
REMARK    7  A    between atoms: S_7  and  C_8
REMARK    8  A    between atoms: C_8  and  C_9
REMARK    9  A    between atoms: C_9  and  N_10
REMARK   10  A    between atoms: C_9  and  C_20
REMARK   11  A    between atoms: C_11  and  C_13
REMARK   12  A    between atoms: C_13  and  C_14
REMARK   13  A    between atoms: C_14  and  C_15
REMARK   14  A    between atoms: C_15  and  N_16
REMARK   15  A    between atoms: C_15  and  C_17
REMARK   16  A    between atoms: C_17  and  O_19
REMARK   17  A    between atoms: N_22  and  C_23
REMARK   18  A    between atoms: C_23  and  C_24
REMARK   19  A    between atoms: C_24  and  C_25
REMARK   20  A    between atoms: C_25  and  O_27
REMARK                            x       y       z     vdW  Elec       q    Type
REMARK                         _______ _______ _______ _____ _____    ______ ____
ROOT
ATOM      1  C   UNK     1       2.708   6.227  17.964  0.00  0.00    +0.000 C 
ENDROOT
BRANCH   1   2
ATOM      2  C   UNK     1       2.309   7.558  18.638  0.00  0.00    +0.000 C 
ATOM      3  O   UNK     1       2.341   8.637  18.051  0.00  0.00    +0.000 OA
ATOM      4  N   UNK     1       1.837   7.442  19.931  0.00  0.00    +0.000 N 
ATOM      5  H   UNK     1       1.917   6.529  20.385  0.00  0.00    +0.000 HD
BRANCH   4   6
ATOM      6  C   UNK     1       1.525   8.627  20.719  0.00  0.00    +0.000 C 
BRANCH   6   7
ATOM      7  C   UNK     1       0.289   8.469  21.608  0.00  0.00    +0.000 C 
BRANCH   7   8
ATOM      8  C   UNK     1       0.056   9.698  22.417  0.00  0.00    +0.000 C 
ATOM      9  O   UNK     1       0.664  10.731  22.235  0.00  0.00    +0.000 OA
BRANCH   8  10
ATOM     10  O   UNK     1      -0.899   9.629  23.351  0.00  0.00    +0.000 OA
ATOM     11  H   UNK     1      -0.984  10.432  23.888  0.00  0.00    +0.000 HD
ENDBRANCH   8  10
ENDBRANCH   7   8
ENDBRANCH   6   7
ENDBRANCH   4   6
ENDBRANCH   1   2
BRANCH   1  12
ATOM     12  N   UNK     1       2.250   5.086  18.771  0.00  0.00    +0.000 N 
ATOM     13  C   UNK     1       1.387   4.141  18.279  0.00  0.00    +0.000 C 
ATOM     14  O   UNK     1       0.923   4.207  17.144  0.00  0.00    +0.000 OA
ATOM     15  H   UNK     1       2.680   4.945  19.678  0.00  0.00    +0.000 HD
BRANCH  13  16
ATOM     16  C   UNK     1       0.967   3.068  19.271  0.00  0.00    +0.000 C 
BRANCH  16  17
ATOM     17  C   UNK     1       2.096   2.079  19.573  0.00  0.00    +0.000 C 
BRANCH  17  18
ATOM     18  C   UNK     1       3.132   2.604  20.575  0.00  0.00    +0.000 C 
BRANCH  18  19
ATOM     19  N   UNK     1       2.713   2.558  21.981  0.00  0.00    +0.000 NA
ATOM     20  H   UNK     1       1.700   2.474  22.032  0.00  0.00    +0.000 HD
ATOM     21  H   UNK     1       2.993   3.413  22.456  0.00  0.00    +0.000 HD
ENDBRANCH  18  19
BRANCH  18  22
ATOM     22  C   UNK     1       4.436   1.808  20.406  0.00  0.00    +0.000 C 
ATOM     23  O   UNK     1       5.242   1.649  21.307  0.00  0.00    +0.000 OA
BRANCH  22  24
ATOM     24  O   UNK     1       4.631   1.246  19.184  0.00  0.00    +0.000 OA
ATOM     25  H   UNK     1       5.384   0.614  19.244  0.00  0.00    +0.000 HD
ENDBRANCH  22  24
ENDBRANCH  18  22
ENDBRANCH  17  18
ENDBRANCH  16  17
ENDBRANCH  13  16
ENDBRANCH   1  12
BRANCH   1  26
ATOM     26  C   UNK     1       4.229   6.224  17.746  0.00  0.00    +0.000 C 
BRANCH  26  27
ATOM     27  S   UNK     1       4.986   4.559  17.743  0.00  0.00    +0.000 S 
BRANCH  27  28
ATOM     28  C   UNK     1       6.007   4.659  16.230  0.00  0.00    +0.000 C 
BRANCH  28  29
ATOM     29  C   UNK     1       7.374   5.218  16.619  0.00  0.00    +0.000 C 
BRANCH  29  30
ATOM     30  C   UNK     1       7.614   5.172  18.130  0.00  0.00    +0.000 C 
BRANCH  30  31
ATOM     31  C   UNK     1       7.980   6.561  18.661  0.00  0.00    +0.000 C 
BRANCH  31  33
ATOM     32  C   UNK     1       8.281   8.987  18.042  0.00  0.00    +0.000 C 
ATOM     33  C   UNK     1       7.676   7.652  17.636  0.00  0.00    +0.000 C 
ENDBRANCH  31  33
ENDBRANCH  30  31
ENDBRANCH  29  30
ENDBRANCH  28  29
ENDBRANCH  27  28
ENDBRANCH  26  27
ENDBRANCH   1  26
TORSDOF 19
ENDMDL
MODEL 4
REMARK VINA RESULT:      -6.4      4.284      7.082
REMARK  Name = 
REMARK  20 active torsions:
REMARK  status: ('A' for Active; 'I' for Inactive)
REMARK    1  A    between atoms: C_1  and  C_2
REMARK    2  A    between atoms: C_2  and  C_3
REMARK    3  A    between atoms: C_3  and  C_4
REMARK    4  A    between atoms: C_4  and  C_5
REMARK    5  A    between atoms: C_5  and  C_6
REMARK    6  A    between atoms: C_6  and  S_7
REMARK    7  A    between atoms: S_7  and  C_8
REMARK    8  A    between atoms: C_8  and  C_9
REMARK    9  A    between atoms: C_9  and  N_10
REMARK   10  A    between atoms: C_9  and  C_20
REMARK   11  A    between atoms: C_11  and  C_13
REMARK   12  A    between atoms: C_13  and  C_14
REMARK   13  A    between atoms: C_14  and  C_15
REMARK   14  A    between atoms: C_15  and  N_16
REMARK   15  A    between atoms: C_15  and  C_17
REMARK   16  A    between atoms: C_17  and  O_19
REMARK   17  A    between atoms: N_22  and  C_23
REMARK   18  A    between atoms: C_23  and  C_24
REMARK   19  A    between atoms: C_24  and  C_25
REMARK   20  A    between atoms: C_25  and  O_27
REMARK                            x       y       z     vdW  Elec       q    Type
REMARK                         _______ _______ _______ _____ _____    ______ ____
ROOT
ATOM      1  C   UNK     1       2.194   6.725  19.337  0.00  0.00    +0.000 C 
ENDROOT
BRANCH   1   2
ATOM      2  C   UNK     1       1.720   8.038  19.997  0.00  0.00    +0.000 C 
ATOM      3  O   UNK     1       1.670   8.190  21.215  0.00  0.00    +0.000 OA
ATOM      4  N   UNK     1       1.428   9.064  19.118  0.00  0.00    +0.000 N 
ATOM      5  H   UNK     1       1.410   8.843  18.120  0.00  0.00    +0.000 HD
BRANCH   4   6
ATOM      6  C   UNK     1       0.871  10.321  19.600  0.00  0.00    +0.000 C 
BRANCH   6   7
ATOM      7  C   UNK     1      -0.645  10.283  19.811  0.00  0.00    +0.000 C 
BRANCH   7   8
ATOM      8  C   UNK     1      -1.364  10.466  18.519  0.00  0.00    +0.000 C 
ATOM      9  O   UNK     1      -2.510  10.859  18.453  0.00  0.00    +0.000 OA
BRANCH   8  10
ATOM     10  O   UNK     1      -0.671  10.209  17.404  0.00  0.00    +0.000 OA
ATOM     11  H   UNK     1      -1.223  10.050  16.624  0.00  0.00    +0.000 HD
ENDBRANCH   8  10
ENDBRANCH   7   8
ENDBRANCH   6   7
ENDBRANCH   4   6
ENDBRANCH   1   2
BRANCH   1  12
ATOM     12  N   UNK     1       2.552   5.735  20.365  0.00  0.00    +0.000 N 
ATOM     13  C   UNK     1       1.798   4.613  20.595  0.00  0.00    +0.000 C 
ATOM     14  O   UNK     1       0.764   4.383  19.975  0.00  0.00    +0.000 OA
ATOM     15  H   UNK     1       3.445   5.841  20.834  0.00  0.00    +0.000 HD
BRANCH  13  16
ATOM     16  C   UNK     1       2.278   3.734  21.739  0.00  0.00    +0.000 C 
BRANCH  16  17
ATOM     17  C   UNK     1       2.786   2.373  21.255  0.00  0.00    +0.000 C 
BRANCH  17  18
ATOM     18  C   UNK     1       3.740   2.457  20.057  0.00  0.00    +0.000 C 
BRANCH  18  19
ATOM     19  N   UNK     1       5.076   1.893  20.287  0.00  0.00    +0.000 NA
ATOM     20  H   UNK     1       5.491   1.628  19.396  0.00  0.00    +0.000 HD
ATOM     21  H   UNK     1       5.008   1.064  20.873  0.00  0.00    +0.000 HD
ENDBRANCH  18  19
BRANCH  18  22
ATOM     22  C   UNK     1       3.092   1.752  18.854  0.00  0.00    +0.000 C 
ATOM     23  O   UNK     1       3.734   1.248  17.950  0.00  0.00    +0.000 OA
BRANCH  22  24
ATOM     24  O   UNK     1       1.734   1.688  18.870  0.00  0.00    +0.000 OA
ATOM     25  H   UNK     1       1.397   1.927  17.976  0.00  0.00    +0.000 HD
ENDBRANCH  22  24
ENDBRANCH  18  22
ENDBRANCH  17  18
ENDBRANCH  16  17
ENDBRANCH  13  16
ENDBRANCH   1  12
BRANCH   1  26
ATOM     26  C   UNK     1       3.363   7.044  18.393  0.00  0.00    +0.000 C 
BRANCH  26  27
ATOM     27  S   UNK     1       4.578   5.689  18.212  0.00  0.00    +0.000 S 
BRANCH  27  28
ATOM     28  C   UNK     1       5.135   5.966  16.493  0.00  0.00    +0.000 C 
BRANCH  28  29
ATOM     29  C   UNK     1       6.631   6.272  16.526  0.00  0.00    +0.000 C 
BRANCH  29  30
ATOM     30  C   UNK     1       7.279   5.867  17.852  0.00  0.00    +0.000 C 
BRANCH  30  31
ATOM     31  C   UNK     1       8.033   7.050  18.467  0.00  0.00    +0.000 C 
BRANCH  31  33
ATOM     32  C   UNK     1       8.563   9.509  18.274  0.00  0.00    +0.000 C 
ATOM     33  C   UNK     1       7.829   8.329  17.656  0.00  0.00    +0.000 C 
ENDBRANCH  31  33
ENDBRANCH  30  31
ENDBRANCH  29  30
ENDBRANCH  28  29
ENDBRANCH  27  28
ENDBRANCH  26  27
ENDBRANCH   1  26
TORSDOF 19
ENDMDL
MODEL 5
REMARK VINA RESULT:      -6.4      1.597      1.870
REMARK  Name = 
REMARK  20 active torsions:
REMARK  status: ('A' for Active; 'I' for Inactive)
REMARK    1  A    between atoms: C_1  and  C_2
REMARK    2  A    between atoms: C_2  and  C_3
REMARK    3  A    between atoms: C_3  and  C_4
REMARK    4  A    between atoms: C_4  and  C_5
REMARK    5  A    between atoms: C_5  and  C_6
REMARK    6  A    between atoms: C_6  and  S_7
REMARK    7  A    between atoms: S_7  and  C_8
REMARK    8  A    between atoms: C_8  and  C_9
REMARK    9  A    between atoms: C_9  and  N_10
REMARK   10  A    between atoms: C_9  and  C_20
REMARK   11  A    between atoms: C_11  and  C_13
REMARK   12  A    between atoms: C_13  and  C_14
REMARK   13  A    between atoms: C_14  and  C_15
REMARK   14  A    between atoms: C_15  and  N_16
REMARK   15  A    between atoms: C_15  and  C_17
REMARK   16  A    between atoms: C_17  and  O_19
REMARK   17  A    between atoms: N_22  and  C_23
REMARK   18  A    between atoms: C_23  and  C_24
REMARK   19  A    between atoms: C_24  and  C_25
REMARK   20  A    between atoms: C_25  and  O_27
REMARK                            x       y       z     vdW  Elec       q    Type
REMARK                         _______ _______ _______ _____ _____    ______ ____
ROOT
ATOM      1  C   UNK     1       5.527   5.408  17.294  0.00  0.00    +0.000 C 
ENDROOT
BRANCH   1   2
ATOM      2  C   UNK     1       5.786   5.449  15.772  0.00  0.00    +0.000 C 
ATOM      3  O   UNK     1       5.591   6.453  15.092  0.00  0.00    +0.000 OA
ATOM      4  N   UNK     1       6.329   4.297  15.238  0.00  0.00    +0.000 N 
ATOM      5  H   UNK     1       6.386   3.475  15.844  0.00  0.00    +0.000 HD
BRANCH   4   6
ATOM      6  C   UNK     1       6.526   4.163  13.801  0.00  0.00    +0.000 C 
BRANCH   6   7
ATOM      7  C   UNK     1       5.246   3.824  13.033  0.00  0.00    +0.000 C 
BRANCH   7   8
ATOM      8  C   UNK     1       5.515   2.810  11.975  0.00  0.00    +0.000 C 
ATOM      9  O   UNK     1       4.668   2.435  11.192  0.00  0.00    +0.000 OA
BRANCH   8  10
ATOM     10  O   UNK     1       6.766   2.344  11.895  0.00  0.00    +0.000 OA
ATOM     11  H   UNK     1       6.902   1.499  12.351  0.00  0.00    +0.000 HD
ENDBRANCH   8  10
ENDBRANCH   7   8
ENDBRANCH   6   7
ENDBRANCH   4   6
ENDBRANCH   1   2
BRANCH   1  12
ATOM     12  N   UNK     1       4.124   5.057  17.566  0.00  0.00    +0.000 N 
ATOM     13  C   UNK     1       3.688   3.757  17.601  0.00  0.00    +0.000 C 
ATOM     14  O   UNK     1       4.439   2.811  17.380  0.00  0.00    +0.000 OA
ATOM     15  H   UNK     1       3.494   5.802  17.843  0.00  0.00    +0.000 HD
BRANCH  13  16
ATOM     16  C   UNK     1       2.195   3.581  17.830  0.00  0.00    +0.000 C 
BRANCH  16  17
ATOM     17  C   UNK     1       1.648   4.551  18.879  0.00  0.00    +0.000 C 
BRANCH  17  18
ATOM     18  C   UNK     1       2.377   4.485  20.227  0.00  0.00    +0.000 C 
BRANCH  18  19
ATOM     19  N   UNK     1       2.394   5.742  20.985  0.00  0.00    +0.000 NA
ATOM     20  H   UNK     1       2.589   6.517  20.355  0.00  0.00    +0.000 HD
ATOM     21  H   UNK     1       3.121   5.710  21.695  0.00  0.00    +0.000 HD
ENDBRANCH  18  19
BRANCH  18  22
ATOM     22  C   UNK     1       1.737   3.382  21.086  0.00  0.00    +0.000 C 
ATOM     23  O   UNK     1       2.260   2.929  22.088  0.00  0.00    +0.000 OA
BRANCH  22  24
ATOM     24  O   UNK     1       0.512   2.955  20.680  0.00  0.00    +0.000 OA
ATOM     25  H   UNK     1       0.114   3.644  20.099  0.00  0.00    +0.000 HD
ENDBRANCH  22  24
ENDBRANCH  18  22
ENDBRANCH  17  18
ENDBRANCH  16  17
ENDBRANCH  13  16
ENDBRANCH   1  12
BRANCH   1  26
ATOM     26  C   UNK     1       5.922   6.765  17.897  0.00  0.00    +0.000 C 
BRANCH  26  27
ATOM     27  S   UNK     1       7.724   7.005  18.095  0.00  0.00    +0.000 S 
BRANCH  27  28
ATOM     28  C   UNK     1       7.876   8.773  17.658  0.00  0.00    +0.000 C 
BRANCH  28  29
ATOM     29  C   UNK     1       8.859   9.418  18.633  0.00  0.00    +0.000 C 
BRANCH  29  30
ATOM     30  C   UNK     1       9.042  10.915  18.373  0.00  0.00    +0.000 C 
BRANCH  30  31
ATOM     31  C   UNK     1      10.278  11.444  19.106  0.00  0.00    +0.000 C 
BRANCH  31  33
ATOM     32  C   UNK     1      11.398  12.844  17.332  0.00  0.00    +0.000 C 
ATOM     33  C   UNK     1      11.476  11.575  18.166  0.00  0.00    +0.000 C 
ENDBRANCH  31  33
ENDBRANCH  30  31
ENDBRANCH  29  30
ENDBRANCH  28  29
ENDBRANCH  27  28
ENDBRANCH  26  27
ENDBRANCH   1  26
TORSDOF 19
ENDMDL
MODEL 6
REMARK VINA RESULT:      -6.4      4.046      7.406
REMARK  Name = 
REMARK  20 active torsions:
REMARK  status: ('A' for Active; 'I' for Inactive)
REMARK    1  A    between atoms: C_1  and  C_2
REMARK    2  A    between atoms: C_2  and  C_3
REMARK    3  A    between atoms: C_3  and  C_4
REMARK    4  A    between atoms: C_4  and  C_5
REMARK    5  A    between atoms: C_5  and  C_6
REMARK    6  A    between atoms: C_6  and  S_7
REMARK    7  A    between atoms: S_7  and  C_8
REMARK    8  A    between atoms: C_8  and  C_9
REMARK    9  A    between atoms: C_9  and  N_10
REMARK   10  A    between atoms: C_9  and  C_20
REMARK   11  A    between atoms: C_11  and  C_13
REMARK   12  A    between atoms: C_13  and  C_14
REMARK   13  A    between atoms: C_14  and  C_15
REMARK   14  A    between atoms: C_15  and  N_16
REMARK   15  A    between atoms: C_15  and  C_17
REMARK   16  A    between atoms: C_17  and  O_19
REMARK   17  A    between atoms: N_22  and  C_23
REMARK   18  A    between atoms: C_23  and  C_24
REMARK   19  A    between atoms: C_24  and  C_25
REMARK   20  A    between atoms: C_25  and  O_27
REMARK                            x       y       z     vdW  Elec       q    Type
REMARK                         _______ _______ _______ _____ _____    ______ ____
ROOT
ATOM      1  C   UNK     1       5.024   4.578  17.280  0.00  0.00    +0.000 C 
ENDROOT
BRANCH   1   2
ATOM      2  C   UNK     1       4.626   3.520  18.331  0.00  0.00    +0.000 C 
ATOM      3  O   UNK     1       5.189   3.417  19.418  0.00  0.00    +0.000 OA
ATOM      4  N   UNK     1       3.535   2.741  17.995  0.00  0.00    +0.000 N 
ATOM      5  H   UNK     1       3.168   2.823  17.044  0.00  0.00    +0.000 HD
BRANCH   4   6
ATOM      6  C   UNK     1       3.118   1.636  18.849  0.00  0.00    +0.000 C 
BRANCH   6   7
ATOM      7  C   UNK     1       1.789   1.880  19.568  0.00  0.00    +0.000 C 
BRANCH   7   8
ATOM      8  C   UNK     1       2.019   2.356  20.961  0.00  0.00    +0.000 C 
ATOM      9  O   UNK     1       1.115   2.646  21.716  0.00  0.00    +0.000 OA
BRANCH   8  10
ATOM     10  O   UNK     1       3.291   2.416  21.372  0.00  0.00    +0.000 OA
ATOM     11  H   UNK     1       3.405   2.830  22.241  0.00  0.00    +0.000 HD
ENDBRANCH   8  10
ENDBRANCH   7   8
ENDBRANCH   6   7
ENDBRANCH   4   6
ENDBRANCH   1   2
BRANCH   1  12
ATOM     12  N   UNK     1       4.072   5.700  17.295  0.00  0.00    +0.000 N 
ATOM     13  C   UNK     1       4.480   7.006  17.381  0.00  0.00    +0.000 C 
ATOM     14  O   UNK     1       5.665   7.315  17.478  0.00  0.00    +0.000 OA
ATOM     15  H   UNK     1       3.094   5.493  17.125  0.00  0.00    +0.000 HD
BRANCH  13  16
ATOM     16  C   UNK     1       3.360   8.031  17.452  0.00  0.00    +0.000 C 
BRANCH  16  17
ATOM     17  C   UNK     1       2.151   7.521  18.241  0.00  0.00    +0.000 C 
BRANCH  17  18
ATOM     18  C   UNK     1       2.439   7.273  19.726  0.00  0.00    +0.000 C 
BRANCH  18  19
ATOM     19  N   UNK     1       1.683   8.121  20.655  0.00  0.00    +0.000 NA
ATOM     20  H   UNK     1       1.016   7.551  21.170  0.00  0.00    +0.000 HD
ATOM     21  H   UNK     1       1.172   8.833  20.139  0.00  0.00    +0.000 HD
ENDBRANCH  18  19
BRANCH  18  22
ATOM     22  C   UNK     1       2.161   5.795  20.047  0.00  0.00    +0.000 C 
ATOM     23  O   UNK     1       1.741   5.001  19.224  0.00  0.00    +0.000 OA
BRANCH  22  24
ATOM     24  O   UNK     1       2.448   5.403  21.317  0.00  0.00    +0.000 OA
ATOM     25  H   UNK     1       2.094   6.076  21.942  0.00  0.00    +0.000 HD
ENDBRANCH  22  24
ENDBRANCH  18  22
ENDBRANCH  17  18
ENDBRANCH  16  17
ENDBRANCH  13  16
ENDBRANCH   1  12
BRANCH   1  26
ATOM     26  C   UNK     1       5.111   3.897  15.905  0.00  0.00    +0.000 C 
BRANCH  26  27
ATOM     27  S   UNK     1       5.928   4.904  14.616  0.00  0.00    +0.000 S 
BRANCH  27  28
ATOM     28  C   UNK     1       6.397   3.602  13.422  0.00  0.00    +0.000 C 
BRANCH  28  29
ATOM     29  C   UNK     1       5.567   3.801  12.156  0.00  0.00    +0.000 C 
BRANCH  29  30
ATOM     30  C   UNK     1       5.054   2.478  11.582  0.00  0.00    +0.000 C 
BRANCH  30  31
ATOM     31  C   UNK     1       3.731   2.689  10.839  0.00  0.00    +0.000 C 
BRANCH  31  33
ATOM     32  C   UNK     1       2.740   4.383   9.255  0.00  0.00    +0.000 C 
ATOM     33  C   UNK     1       3.465   4.170  10.575  0.00  0.00    +0.000 C 
ENDBRANCH  31  33
ENDBRANCH  30  31
ENDBRANCH  29  30
ENDBRANCH  28  29
ENDBRANCH  27  28
ENDBRANCH  26  27
ENDBRANCH   1  26
TORSDOF 19
ENDMDL
MODEL 7
REMARK VINA RESULT:      -6.4      4.133      7.798
REMARK  Name = 
REMARK  20 active torsions:
REMARK  status: ('A' for Active; 'I' for Inactive)
REMARK    1  A    between atoms: C_1  and  C_2
REMARK    2  A    between atoms: C_2  and  C_3
REMARK    3  A    between atoms: C_3  and  C_4
REMARK    4  A    between atoms: C_4  and  C_5
REMARK    5  A    between atoms: C_5  and  C_6
REMARK    6  A    between atoms: C_6  and  S_7
REMARK    7  A    between atoms: S_7  and  C_8
REMARK    8  A    between atoms: C_8  and  C_9
REMARK    9  A    between atoms: C_9  and  N_10
REMARK   10  A    between atoms: C_9  and  C_20
REMARK   11  A    between atoms: C_11  and  C_13
REMARK   12  A    between atoms: C_13  and  C_14
REMARK   13  A    between atoms: C_14  and  C_15
REMARK   14  A    between atoms: C_15  and  N_16
REMARK   15  A    between atoms: C_15  and  C_17
REMARK   16  A    between atoms: C_17  and  O_19
REMARK   17  A    between atoms: N_22  and  C_23
REMARK   18  A    between atoms: C_23  and  C_24
REMARK   19  A    between atoms: C_24  and  C_25
REMARK   20  A    between atoms: C_25  and  O_27
REMARK                            x       y       z     vdW  Elec       q    Type
REMARK                         _______ _______ _______ _____ _____    ______ ____
ROOT
ATOM      1  C   UNK     1       3.227   6.834  17.658  0.00  0.00    +0.000 C 
ENDROOT
BRANCH   1   2
ATOM      2  C   UNK     1       2.904   5.327  17.758  0.00  0.00    +0.000 C 
ATOM      3  O   UNK     1       3.502   4.474  17.107  0.00  0.00    +0.000 OA
ATOM      4  N   UNK     1       1.943   4.993  18.694  0.00  0.00    +0.000 N 
ATOM      5  H   UNK     1       1.428   5.757  19.138  0.00  0.00    +0.000 HD
BRANCH   4   6
ATOM      6  C   UNK     1       1.469   3.621  18.817  0.00  0.00    +0.000 C 
BRANCH   6   7
ATOM      7  C   UNK     1       1.073   3.232  20.243  0.00  0.00    +0.000 C 
BRANCH   7   8
ATOM      8  C   UNK     1       2.271   3.166  21.127  0.00  0.00    +0.000 C 
ATOM      9  O   UNK     1       2.232   3.435  22.309  0.00  0.00    +0.000 OA
BRANCH   8  10
ATOM     10  O   UNK     1       3.410   2.751  20.563  0.00  0.00    +0.000 OA
ATOM     11  H   UNK     1       4.118   2.559  21.198  0.00  0.00    +0.000 HD
ENDBRANCH   8  10
ENDBRANCH   7   8
ENDBRANCH   6   7
ENDBRANCH   4   6
ENDBRANCH   1   2
BRANCH   1  12
ATOM     12  N   UNK     1       4.679   7.054  17.745  0.00  0.00    +0.000 N 
ATOM     13  C   UNK     1       5.478   7.112  16.632  0.00  0.00    +0.000 C 
ATOM     14  O   UNK     1       5.032   6.956  15.498  0.00  0.00    +0.000 OA
ATOM     15  H   UNK     1       5.071   7.278  18.652  0.00  0.00    +0.000 HD
BRANCH  13  16
ATOM     16  C   UNK     1       6.963   7.279  16.909  0.00  0.00    +0.000 C 
BRANCH  16  17
ATOM     17  C   UNK     1       7.450   6.373  18.043  0.00  0.00    +0.000 C 
BRANCH  17  18
ATOM     18  C   UNK     1       7.093   4.894  17.853  0.00  0.00    +0.000 C 
BRANCH  18  19
ATOM     19  N   UNK     1       8.242   3.985  17.760  0.00  0.00    +0.000 NA
ATOM     20  H   UNK     1       8.986   4.313  18.373  0.00  0.00    +0.000 HD
ATOM     21  H   UNK     1       8.593   3.964  16.806  0.00  0.00    +0.000 HD
ENDBRANCH  18  19
BRANCH  18  22
ATOM     22  C   UNK     1       6.185   4.448  19.011  0.00  0.00    +0.000 C 
ATOM     23  O   UNK     1       5.986   5.127  20.003  0.00  0.00    +0.000 OA
BRANCH  22  24
ATOM     24  O   UNK     1       5.574   3.244  18.852  0.00  0.00    +0.000 OA
ATOM     25  H   UNK     1       4.606   3.394  18.744  0.00  0.00    +0.000 HD
ENDBRANCH  22  24
ENDBRANCH  18  22
ENDBRANCH  17  18
ENDBRANCH  16  17
ENDBRANCH  13  16
ENDBRANCH   1  12
BRANCH   1  26
ATOM     26  C   UNK     1       2.451   7.576  18.757  0.00  0.00    +0.000 C 
BRANCH  26  27
ATOM     27  S   UNK     1       1.556   9.061  18.176  0.00  0.00    +0.000 S 
BRANCH  27  28
ATOM     28  C   UNK     1       0.901   9.698  19.759  0.00  0.00    +0.000 C 
BRANCH  28  29
ATOM     29  C   UNK     1      -0.574  10.038  19.557  0.00  0.00    +0.000 C 
BRANCH  29  30
ATOM     30  C   UNK     1      -0.796  10.990  18.380  0.00  0.00    +0.000 C 
BRANCH  30  31
ATOM     31  C   UNK     1      -2.284  11.069  18.023  0.00  0.00    +0.000 C 
BRANCH  31  33
ATOM     32  C   UNK     1      -2.892   9.698  15.994  0.00  0.00    +0.000 C 
ATOM     33  C   UNK     1      -2.499  11.074  16.510  0.00  0.00    +0.000 C 
ENDBRANCH  31  33
ENDBRANCH  30  31
ENDBRANCH  29  30
ENDBRANCH  28  29
ENDBRANCH  27  28
ENDBRANCH  26  27
ENDBRANCH   1  26
TORSDOF 19
ENDMDL
MODEL 8
REMARK VINA RESULT:      -6.3      3.996      7.508
REMARK  Name = 
REMARK  20 active torsions:
REMARK  status: ('A' for Active; 'I' for Inactive)
REMARK    1  A    between atoms: C_1  and  C_2
REMARK    2  A    between atoms: C_2  and  C_3
REMARK    3  A    between atoms: C_3  and  C_4
REMARK    4  A    between atoms: C_4  and  C_5
REMARK    5  A    between atoms: C_5  and  C_6
REMARK    6  A    between atoms: C_6  and  S_7
REMARK    7  A    between atoms: S_7  and  C_8
REMARK    8  A    between atoms: C_8  and  C_9
REMARK    9  A    between atoms: C_9  and  N_10
REMARK   10  A    between atoms: C_9  and  C_20
REMARK   11  A    between atoms: C_11  and  C_13
REMARK   12  A    between atoms: C_13  and  C_14
REMARK   13  A    between atoms: C_14  and  C_15
REMARK   14  A    between atoms: C_15  and  N_16
REMARK   15  A    between atoms: C_15  and  C_17
REMARK   16  A    between atoms: C_17  and  O_19
REMARK   17  A    between atoms: N_22  and  C_23
REMARK   18  A    between atoms: C_23  and  C_24
REMARK   19  A    between atoms: C_24  and  C_25
REMARK   20  A    between atoms: C_25  and  O_27
REMARK                            x       y       z     vdW  Elec       q    Type
REMARK                         _______ _______ _______ _____ _____    ______ ____
ROOT
ATOM      1  C   UNK     1       2.996   6.490  17.890  0.00  0.00    +0.000 C 
ENDROOT
BRANCH   1   2
ATOM      2  C   UNK     1       2.361   7.853  18.243  0.00  0.00    +0.000 C 
ATOM      3  O   UNK     1       2.248   8.764  17.428  0.00  0.00    +0.000 OA
ATOM      4  N   UNK     1       1.856   7.950  19.526  0.00  0.00    +0.000 N 
ATOM      5  H   UNK     1       2.060   7.187  20.175  0.00  0.00    +0.000 HD
BRANCH   4   6
ATOM      6  C   UNK     1       1.326   9.212  20.023  0.00  0.00    +0.000 C 
BRANCH   6   7
ATOM      7  C   UNK     1       0.303   9.050  21.150  0.00  0.00    +0.000 C 
BRANCH   7   8
ATOM      8  C   UNK     1       0.909   9.388  22.469  0.00  0.00    +0.000 C 
ATOM      9  O   UNK     1       0.268   9.844  23.391  0.00  0.00    +0.000 OA
BRANCH   8  10
ATOM     10  O   UNK     1       2.213   9.126  22.614  0.00  0.00    +0.000 OA
ATOM     11  H   UNK     1       2.473   8.908  23.523  0.00  0.00    +0.000 HD
ENDBRANCH   8  10
ENDBRANCH   7   8
ENDBRANCH   6   7
ENDBRANCH   4   6
ENDBRANCH   1   2
BRANCH   1  12
ATOM     12  N   UNK     1       2.553   5.456  18.839  0.00  0.00    +0.000 N 
ATOM     13  C   UNK     1       1.680   4.461  18.482  0.00  0.00    +0.000 C 
ATOM     14  O   UNK     1       1.195   4.390  17.356  0.00  0.00    +0.000 OA
ATOM     15  H   UNK     1       2.999   5.426  19.749  0.00  0.00    +0.000 HD
BRANCH  13  16
ATOM     16  C   UNK     1       1.278   3.519  19.606  0.00  0.00    +0.000 C 
BRANCH  16  17
ATOM     17  C   UNK     1       1.576   2.054  19.272  0.00  0.00    +0.000 C 
BRANCH  17  18
ATOM     18  C   UNK     1       3.050   1.777  18.953  0.00  0.00    +0.000 C 
BRANCH  18  19
ATOM     19  N   UNK     1       3.577   2.495  17.786  0.00  0.00    +0.000 NA
ATOM     20  H   UNK     1       3.445   1.930  16.950  0.00  0.00    +0.000 HD
ATOM     21  H   UNK     1       4.572   2.671  17.906  0.00  0.00    +0.000 HD
ENDBRANCH  18  19
BRANCH  18  22
ATOM     22  C   UNK     1       3.900   2.120  20.187  0.00  0.00    +0.000 C 
ATOM     23  O   UNK     1       3.419   2.426  21.264  0.00  0.00    +0.000 OA
BRANCH  22  24
ATOM     24  O   UNK     1       5.246   2.025  20.021  0.00  0.00    +0.000 OA
ATOM     25  H   UNK     1       5.567   2.845  19.580  0.00  0.00    +0.000 HD
ENDBRANCH  22  24
ENDBRANCH  18  22
ENDBRANCH  17  18
ENDBRANCH  16  17
ENDBRANCH  13  16
ENDBRANCH   1  12
BRANCH   1  26
ATOM     26  C   UNK     1       4.524   6.651  17.865  0.00  0.00    +0.000 C 
BRANCH  26  27
ATOM     27  S   UNK     1       5.430   5.404  18.849  0.00  0.00    +0.000 S 
BRANCH  27  28
ATOM     28  C   UNK     1       7.114   5.597  18.164  0.00  0.00    +0.000 C 
BRANCH  28  29
ATOM     29  C   UNK     1       6.986   5.874  16.668  0.00  0.00    +0.000 C 
BRANCH  29  30
ATOM     30  C   UNK     1       6.879   4.589  15.844  0.00  0.00    +0.000 C 
BRANCH  30  31
ATOM     31  C   UNK     1       5.707   4.673  14.862  0.00  0.00    +0.000 C 
BRANCH  31  33
ATOM     32  C   UNK     1       7.022   4.352  12.733  0.00  0.00    +0.000 C 
ATOM     33  C   UNK     1       5.936   3.789  13.637  0.00  0.00    +0.000 C 
ENDBRANCH  31  33
ENDBRANCH  30  31
ENDBRANCH  29  30
ENDBRANCH  28  29
ENDBRANCH  27  28
ENDBRANCH  26  27
ENDBRANCH   1  26
TORSDOF 19
ENDMDL
MODEL 9
REMARK VINA RESULT:      -6.3      4.341      8.056
REMARK  Name = 
REMARK  20 active torsions:
REMARK  status: ('A' for Active; 'I' for Inactive)
REMARK    1  A    between atoms: C_1  and  C_2
REMARK    2  A    between atoms: C_2  and  C_3
REMARK    3  A    between atoms: C_3  and  C_4
REMARK    4  A    between atoms: C_4  and  C_5
REMARK    5  A    between atoms: C_5  and  C_6
REMARK    6  A    between atoms: C_6  and  S_7
REMARK    7  A    between atoms: S_7  and  C_8
REMARK    8  A    between atoms: C_8  and  C_9
REMARK    9  A    between atoms: C_9  and  N_10
REMARK   10  A    between atoms: C_9  and  C_20
REMARK   11  A    between atoms: C_11  and  C_13
REMARK   12  A    between atoms: C_13  and  C_14
REMARK   13  A    between atoms: C_14  and  C_15
REMARK   14  A    between atoms: C_15  and  N_16
REMARK   15  A    between atoms: C_15  and  C_17
REMARK   16  A    between atoms: C_17  and  O_19
REMARK   17  A    between atoms: N_22  and  C_23
REMARK   18  A    between atoms: C_23  and  C_24
REMARK   19  A    between atoms: C_24  and  C_25
REMARK   20  A    between atoms: C_25  and  O_27
REMARK                            x       y       z     vdW  Elec       q    Type
REMARK                         _______ _______ _______ _____ _____    ______ ____
ROOT
ATOM      1  C   UNK     1       2.607   6.356  18.427  0.00  0.00    +0.000 C 
ENDROOT
BRANCH   1   2
ATOM      2  C   UNK     1       2.142   7.609  19.201  0.00  0.00    +0.000 C 
ATOM      3  O   UNK     1       1.971   8.698  18.660  0.00  0.00    +0.000 OA
ATOM      4  N   UNK     1       1.855   7.401  20.536  0.00  0.00    +0.000 N 
ATOM      5  H   UNK     1       2.100   6.493  20.938  0.00  0.00    +0.000 HD
BRANCH   4   6
ATOM      6  C   UNK     1       1.508   8.517  21.405  0.00  0.00    +0.000 C 
BRANCH   6   7
ATOM      7  C   UNK     1       0.001   8.698  21.605  0.00  0.00    +0.000 C 
BRANCH   7   8
ATOM      8  C   UNK     1      -0.300  10.028  22.205  0.00  0.00    +0.000 C 
ATOM      9  O   UNK     1      -0.815  10.931  21.580  0.00  0.00    +0.000 OA
BRANCH   8  10
ATOM     10  O   UNK     1      -0.008  10.181  23.501  0.00  0.00    +0.000 OA
ATOM     11  H   UNK     1       0.788   9.706  23.785  0.00  0.00    +0.000 HD
ENDBRANCH   8  10
ENDBRANCH   7   8
ENDBRANCH   6   7
ENDBRANCH   4   6
ENDBRANCH   1   2
BRANCH   1  12
ATOM     12  N   UNK     1       1.986   5.146  18.990  0.00  0.00    +0.000 N 
ATOM     13  C   UNK     1       1.647   4.068  18.213  0.00  0.00    +0.000 C 
ATOM     14  O   UNK     1       1.816   4.060  16.997  0.00  0.00    +0.000 OA
ATOM     15  H   UNK     1       1.915   5.076  19.999  0.00  0.00    +0.000 HD
BRANCH  13  16
ATOM     16  C   UNK     1       0.955   2.932  18.949  0.00  0.00    +0.000 C 
BRANCH  16  17
ATOM     17  C   UNK     1       1.928   1.822  19.355  0.00  0.00    +0.000 C 
BRANCH  17  18
ATOM     18  C   UNK     1       2.943   2.245  20.424  0.00  0.00    +0.000 C 
BRANCH  18  19
ATOM     19  N   UNK     1       4.093   3.006  19.922  0.00  0.00    +0.000 NA
ATOM     20  H   UNK     1       4.263   2.762  18.948  0.00  0.00    +0.000 HD
ATOM     21  H   UNK     1       4.924   2.779  20.463  0.00  0.00    +0.000 HD
ENDBRANCH  18  19
BRANCH  18  22
ATOM     22  C   UNK     1       2.218   3.071  21.499  0.00  0.00    +0.000 C 
ATOM     23  O   UNK     1       2.360   4.275  21.624  0.00  0.00    +0.000 OA
BRANCH  22  24
ATOM     24  O   UNK     1       1.362   2.379  22.297  0.00  0.00    +0.000 OA
ATOM     25  H   UNK     1       0.438   2.588  22.024  0.00  0.00    +0.000 HD
ENDBRANCH  22  24
ENDBRANCH  18  22
ENDBRANCH  17  18
ENDBRANCH  16  17
ENDBRANCH  13  16
ENDBRANCH   1  12
BRANCH   1  26
ATOM     26  C   UNK     1       4.142   6.301  18.459  0.00  0.00    +0.000 C 
BRANCH  26  27
ATOM     27  S   UNK     1       4.927   6.183  16.811  0.00  0.00    +0.000 S 
BRANCH  27  28
ATOM     28  C   UNK     1       6.027   4.746  17.067  0.00  0.00    +0.000 C 
BRANCH  28  29
ATOM     29  C   UNK     1       7.004   4.685  15.895  0.00  0.00    +0.000 C 
BRANCH  29  30
ATOM     30  C   UNK     1       6.329   4.990  14.556  0.00  0.00    +0.000 C 
BRANCH  30  31
ATOM     31  C   UNK     1       5.696   3.725  13.971  0.00  0.00    +0.000 C 
BRANCH  31  33
ATOM     32  C   UNK     1       4.922   3.113  11.649  0.00  0.00    +0.000 C 
ATOM     33  C   UNK     1       6.107   3.513  12.514  0.00  0.00    +0.000 C 
ENDBRANCH  31  33
ENDBRANCH  30  31
ENDBRANCH  29  30
ENDBRANCH  28  29
ENDBRANCH  27  28
ENDBRANCH  26  27
ENDBRANCH   1  26
TORSDOF 19
ENDMDL
