MODEL 1
REMARK VINA RESULT:      -8.3      0.000      0.000
REMARK  Name = 
REMARK  6 active torsions:
REMARK  status: ('A' for Active; 'I' for Inactive)
REMARK    1  A    between atoms: C_2  and  C_3
REMARK    2  A    between atoms: C_3  and  C_4
REMARK    3  A    between atoms: C_4  and  C_5
REMARK    4  A    between atoms: C_5  and  O_6
REMARK    5  A    between atoms: O_6  and  C_7
REMARK    6  A    between atoms: C_14  and  O_15
REMARK                            x       y       z     vdW  Elec       q    Type
REMARK                         _______ _______ _______ _____ _____    ______ ____
ROOT
ATOM      1  C   UNL     1       4.562   2.468  20.041  0.00  0.00    +0.000 C 
ENDROOT
BRANCH   1   2
ATOM      2  C   UNL     1       3.251   2.198  20.786  0.00  0.00    +0.000 C 
BRANCH   2   3
ATOM      3  C   UNL     1       2.053   1.923  19.871  0.00  0.00    +0.000 C 
BRANCH   3   5
ATOM      4  O   UNL     1       2.242   2.451  17.532  0.00  0.00    +0.000 OA
ATOM      5  C   UNL     1       1.963   2.847  18.663  0.00  0.00    +0.000 C 
ATOM      6  N   UNL     1       1.582   4.156  18.897  0.00  0.00    +0.000 N 
ATOM      7  C   UNL     1       1.188   4.731  20.192  0.00  0.00    +0.000 C 
ATOM      8  C   UNL     1       2.036   5.972  20.527  0.00  0.00    +0.000 C 
ATOM      9  N   UNL     1       2.008   6.904  19.404  0.00  0.00    +0.000 N 
ATOM     10  C   UNL     1       1.653   8.214  19.575  0.00  0.00    +0.000 A 
ATOM     11  N   UNL     1       1.279   8.627  20.802  0.00  0.00    +0.000 NA
ATOM     12  C   UNL     1       0.963   9.921  20.968  0.00  0.00    +0.000 A 
ATOM     13  C   UNL     1       0.999  10.840  19.949  0.00  0.00    +0.000 A 
ATOM     14  C   UNL     1       1.369  10.333  18.727  0.00  0.00    +0.000 A 
ATOM     15  N   UNL     1       1.693   9.042  18.517  0.00  0.00    +0.000 NA
ATOM     16  C   UNL     1       2.390   6.371  18.096  0.00  0.00    +0.000 C 
ATOM     17  C   UNL     1       1.555   5.115  17.780  0.00  0.00    +0.000 C 
ENDBRANCH   3   5
ENDBRANCH   2   3
ENDBRANCH   1   2
BRANCH   1  18
ATOM     18  O   UNL     1       4.864   3.864  20.154  0.00  0.00    +0.000 OA
BRANCH  18  19
ATOM     19  C   UNL     1       5.516   4.448  19.100  0.00  0.00    +0.000 A 
ATOM     20  C   UNL     1       6.518   5.418  19.185  0.00  0.00    +0.000 A 
ATOM     21  C   UNL     1       7.156   5.886  18.028  0.00  0.00    +0.000 A 
ATOM     22  C   UNL     1       6.803   5.386  16.772  0.00  0.00    +0.000 A 
ATOM     23  N   UNL     1       7.497   5.774  15.608  0.00  0.00    +0.000 N 
ATOM     24  C   UNL     1       7.207   5.156  14.425  0.00  0.00    +0.000 A 
ATOM     25  N   UNL     1       7.789   5.256  13.262  0.00  0.00    +0.000 NA
ATOM     26  C   UNL     1       7.045   4.397  12.488  0.00  0.00    +0.000 A 
ATOM     27  N   UNL     1       6.042   3.761  13.004  0.00  0.00    +0.000 NA
ATOM     28  C   UNL     1       6.093   4.190  14.295  0.00  0.00    +0.000 A 
ATOM     29  C   UNL     1       5.376   3.863  15.370  0.00  0.00    +0.000 A 
ATOM     30  C   UNL     1       5.755   4.431  16.682  0.00  0.00    +0.000 A 
ATOM     31  C   UNL     1       5.119   3.982  17.844  0.00  0.00    +0.000 A 
ATOM     32  H   UNL     1       8.249   6.441  15.663  0.00  0.00    +0.000 HD
BRANCH  26  33
ATOM     33  O   UNL     1       7.462   4.280  11.229  0.00  0.00    +0.000 OA
ATOM     34  H   UNL     1       7.632   3.339  11.075  0.00  0.00    +0.000 HD
ENDBRANCH  26  33
ENDBRANCH  18  19
ENDBRANCH   1  18
TORSDOF 6
ENDMDL
MODEL 2
REMARK VINA RESULT:      -7.9      2.886      9.050
REMARK  Name = 
REMARK  6 active torsions:
REMARK  status: ('A' for Active; 'I' for Inactive)
REMARK    1  A    between atoms: C_2  and  C_3
REMARK    2  A    between atoms: C_3  and  C_4
REMARK    3  A    between atoms: C_4  and  C_5
REMARK    4  A    between atoms: C_5  and  O_6
REMARK    5  A    between atoms: O_6  and  C_7
REMARK    6  A    between atoms: C_14  and  O_15
REMARK                            x       y       z     vdW  Elec       q    Type
REMARK                         _______ _______ _______ _____ _____    ______ ____
ROOT
ATOM      1  C   UNL     1       2.188   5.489  18.661  0.00  0.00    +0.000 C 
ENDROOT
BRANCH   1   2
ATOM      2  C   UNL     1       2.451   4.678  19.934  0.00  0.00    +0.000 C 
BRANCH   2   3
ATOM      3  C   UNL     1       3.635   3.712  19.831  0.00  0.00    +0.000 C 
BRANCH   3   5
ATOM      4  O   UNL     1       5.549   5.101  20.277  0.00  0.00    +0.000 OA
ATOM      5  C   UNL     1       4.958   4.379  19.474  0.00  0.00    +0.000 C 
ATOM      6  N   UNL     1       5.451   4.163  18.201  0.00  0.00    +0.000 N 
ATOM      7  C   UNL     1       4.858   3.294  17.172  0.00  0.00    +0.000 C 
ATOM      8  C   UNL     1       4.617   4.070  15.864  0.00  0.00    +0.000 C 
ATOM      9  N   UNL     1       5.844   4.750  15.463  0.00  0.00    +0.000 N 
ATOM     10  C   UNL     1       6.374   4.586  14.212  0.00  0.00    +0.000 A 
ATOM     11  N   UNL     1       5.764   3.739  13.359  0.00  0.00    +0.000 NA
ATOM     12  C   UNL     1       6.271   3.608  12.123  0.00  0.00    +0.000 A 
ATOM     13  C   UNL     1       7.380   4.291  11.690  0.00  0.00    +0.000 A 
ATOM     14  C   UNL     1       7.953   5.115  12.626  0.00  0.00    +0.000 A 
ATOM     15  N   UNL     1       7.477   5.275  13.878  0.00  0.00    +0.000 NA
ATOM     16  C   UNL     1       6.470   5.622  16.458  0.00  0.00    +0.000 C 
ATOM     17  C   UNL     1       6.683   4.845  17.772  0.00  0.00    +0.000 C 
ENDBRANCH   3   5
ENDBRANCH   2   3
ENDBRANCH   1   2
BRANCH   1  18
ATOM     18  O   UNL     1       2.903   6.726  18.760  0.00  0.00    +0.000 OA
BRANCH  18  19
ATOM     19  C   UNL     1       2.160   7.864  18.928  0.00  0.00    +0.000 A 
ATOM     20  C   UNL     1       1.739   8.732  17.918  0.00  0.00    +0.000 A 
ATOM     21  C   UNL     1       0.920   9.831  18.217  0.00  0.00    +0.000 A 
ATOM     22  C   UNL     1       0.508  10.070  19.530  0.00  0.00    +0.000 A 
ATOM     23  N   UNL     1      -0.391  11.112  19.837  0.00  0.00    +0.000 N 
ATOM     24  C   UNL     1      -0.872  11.220  21.110  0.00  0.00    +0.000 A 
ATOM     25  N   UNL     1      -1.789  12.012  21.595  0.00  0.00    +0.000 NA
ATOM     26  C   UNL     1      -1.821  11.644  22.920  0.00  0.00    +0.000 A 
ATOM     27  N   UNL     1      -1.026  10.719  23.357  0.00  0.00    +0.000 NA
ATOM     28  C   UNL     1      -0.376  10.368  22.213  0.00  0.00    +0.000 A 
ATOM     29  C   UNL     1       0.529   9.423  21.959  0.00  0.00    +0.000 A 
ATOM     30  C   UNL     1       0.969   9.211  20.564  0.00  0.00    +0.000 A 
ATOM     31  C   UNL     1       1.796   8.127  20.252  0.00  0.00    +0.000 A 
ATOM     32  H   UNL     1      -0.734  11.718  19.110  0.00  0.00    +0.000 HD
BRANCH  26  33
ATOM     33  O   UNL     1      -2.724  12.289  23.655  0.00  0.00    +0.000 OA
ATOM     34  H   UNL     1      -2.379  12.323  24.560  0.00  0.00    +0.000 HD
ENDBRANCH  26  33
ENDBRANCH  18  19
ENDBRANCH   1  18
TORSDOF 6
ENDMDL
MODEL 3
REMARK VINA RESULT:      -7.8      7.186      9.348
REMARK  Name = 
REMARK  6 active torsions:
REMARK  status: ('A' for Active; 'I' for Inactive)
REMARK    1  A    between atoms: C_2  and  C_3
REMARK    2  A    between atoms: C_3  and  C_4
REMARK    3  A    between atoms: C_4  and  C_5
REMARK    4  A    between atoms: C_5  and  O_6
REMARK    5  A    between atoms: O_6  and  C_7
REMARK    6  A    between atoms: C_14  and  O_15
REMARK                            x       y       z     vdW  Elec       q    Type
REMARK                         _______ _______ _______ _____ _____    ______ ____
ROOT
ATOM      1  C   UNL     1       8.283   8.427  17.886  0.00  0.00    +0.000 C 
ENDROOT
BRANCH   1   2
ATOM      2  C   UNL     1       8.202   9.926  18.195  0.00  0.00    +0.000 C 
BRANCH   2   3
ATOM      3  C   UNL     1       9.317  10.439  19.111  0.00  0.00    +0.000 C 
BRANCH   3   5
ATOM      4  O   UNL     1      10.836  11.486  17.566  0.00  0.00    +0.000 OA
ATOM      5  C   UNL     1      10.100  11.617  18.544  0.00  0.00    +0.000 C 
ATOM      6  N   UNL     1       9.972  12.831  19.194  0.00  0.00    +0.000 N 
ATOM      7  C   UNL     1       9.099  13.118  20.342  0.00  0.00    +0.000 C 
ATOM      8  C   UNL     1       9.902  13.712  21.514  0.00  0.00    +0.000 C 
ATOM      9  N   UNL     1      10.693  14.845  21.043  0.00  0.00    +0.000 N 
ATOM     10  C   UNL     1      10.619  16.067  21.653  0.00  0.00    +0.000 A 
ATOM     11  N   UNL     1       9.760  16.226  22.678  0.00  0.00    +0.000 NA
ATOM     12  C   UNL     1       9.716  17.419  23.292  0.00  0.00    +0.000 A 
ATOM     13  C   UNL     1      10.502  18.483  22.923  0.00  0.00    +0.000 A 
ATOM     14  C   UNL     1      11.333  18.244  21.856  0.00  0.00    +0.000 A 
ATOM     15  N   UNL     1      11.406  17.062  21.212  0.00  0.00    +0.000 NA
ATOM     16  C   UNL     1      11.573  14.604  19.899  0.00  0.00    +0.000 C 
ATOM     17  C   UNL     1      10.767  13.986  18.741  0.00  0.00    +0.000 C 
ENDBRANCH   3   5
ENDBRANCH   2   3
ENDBRANCH   1   2
BRANCH   1  18
ATOM     18  O   UNL     1       7.133   8.065  17.112  0.00  0.00    +0.000 OA
BRANCH  18  19
ATOM     19  C   UNL     1       6.642   6.797  17.280  0.00  0.00    +0.000 A 
ATOM     20  C   UNL     1       7.395   5.647  17.530  0.00  0.00    +0.000 A 
ATOM     21  C   UNL     1       6.762   4.416  17.753  0.00  0.00    +0.000 A 
ATOM     22  C   UNL     1       5.368   4.322  17.733  0.00  0.00    +0.000 A 
ATOM     23  N   UNL     1       4.712   3.114  18.048  0.00  0.00    +0.000 N 
ATOM     24  C   UNL     1       3.350   3.107  18.152  0.00  0.00    +0.000 A 
ATOM     25  N   UNL     1       2.544   2.158  18.544  0.00  0.00    +0.000 NA
ATOM     26  C   UNL     1       1.311   2.756  18.426  0.00  0.00    +0.000 A 
ATOM     27  N   UNL     1       1.218   3.973  17.993  0.00  0.00    +0.000 NA
ATOM     28  C   UNL     1       2.529   4.289  17.808  0.00  0.00    +0.000 A 
ATOM     29  C   UNL     1       3.127   5.421  17.438  0.00  0.00    +0.000 A 
ATOM     30  C   UNL     1       4.604   5.483  17.439  0.00  0.00    +0.000 A 
ATOM     31  C   UNL     1       5.250   6.701  17.206  0.00  0.00    +0.000 A 
ATOM     32  H   UNL     1       5.244   2.289  18.271  0.00  0.00    +0.000 HD
BRANCH  26  33
ATOM     33  O   UNL     1       0.286   1.997  18.809  0.00  0.00    +0.000 OA
ATOM     34  H   UNL     1       0.613   1.416  19.512  0.00  0.00    +0.000 HD
ENDBRANCH  26  33
ENDBRANCH  18  19
ENDBRANCH   1  18
TORSDOF 6
ENDMDL
MODEL 4
REMARK VINA RESULT:      -7.8      2.139      3.286
REMARK  Name = 
REMARK  6 active torsions:
REMARK  status: ('A' for Active; 'I' for Inactive)
REMARK    1  A    between atoms: C_2  and  C_3
REMARK    2  A    between atoms: C_3  and  C_4
REMARK    3  A    between atoms: C_4  and  C_5
REMARK    4  A    between atoms: C_5  and  O_6
REMARK    5  A    between atoms: O_6  and  C_7
REMARK    6  A    between atoms: C_14  and  O_15
REMARK                            x       y       z     vdW  Elec       q    Type
REMARK                         _______ _______ _______ _____ _____    ______ ____
ROOT
ATOM      1  C   UNL     1       2.310   3.886  19.677  0.00  0.00    +0.000 C 
ENDROOT
BRANCH   1   2
ATOM      2  C   UNL     1       1.583   4.979  20.467  0.00  0.00    +0.000 C 
BRANCH   2   3
ATOM      3  C   UNL     1       2.398   6.262  20.658  0.00  0.00    +0.000 C 
BRANCH   3   5
ATOM      4  O   UNL     1       2.539   7.357  18.520  0.00  0.00    +0.000 OA
ATOM      5  C   UNL     1       2.072   7.366  19.659  0.00  0.00    +0.000 C 
ATOM      6  N   UNL     1       1.256   8.393  20.097  0.00  0.00    +0.000 N 
ATOM      7  C   UNL     1       0.611   8.492  21.416  0.00  0.00    +0.000 C 
ATOM      8  C   UNL     1       0.964   9.823  22.106  0.00  0.00    +0.000 C 
ATOM      9  N   UNL     1       0.690  10.934  21.200  0.00  0.00    +0.000 N 
ATOM     10  C   UNL     1      -0.099  11.984  21.580  0.00  0.00    +0.000 A 
ATOM     11  N   UNL     1      -0.667  11.956  22.803  0.00  0.00    +0.000 NA
ATOM     12  C   UNL     1      -1.414  13.005  23.181  0.00  0.00    +0.000 A 
ATOM     13  C   UNL     1      -1.629  14.101  22.382  0.00  0.00    +0.000 A 
ATOM     14  C   UNL     1      -1.036  14.040  21.146  0.00  0.00    +0.000 A 
ATOM     15  N   UNL     1      -0.279  13.006  20.726  0.00  0.00    +0.000 NA
ATOM     16  C   UNL     1       1.309  10.873  19.875  0.00  0.00    +0.000 C 
ATOM     17  C   UNL     1       0.972   9.528  19.203  0.00  0.00    +0.000 C 
ENDBRANCH   3   5
ENDBRANCH   2   3
ENDBRANCH   1   2
BRANCH   1  18
ATOM     18  O   UNL     1       3.700   3.932  20.020  0.00  0.00    +0.000 OA
BRANCH  18  19
ATOM     19  C   UNL     1       4.553   4.474  19.095  0.00  0.00    +0.000 A 
ATOM     20  C   UNL     1       5.618   5.339  19.361  0.00  0.00    +0.000 A 
ATOM     21  C   UNL     1       6.462   5.768  18.327  0.00  0.00    +0.000 A 
ATOM     22  C   UNL     1       6.255   5.331  17.016  0.00  0.00    +0.000 A 
ATOM     23  N   UNL     1       7.149   5.675  15.980  0.00  0.00    +0.000 N 
ATOM     24  C   UNL     1       6.983   5.113  14.747  0.00  0.00    +0.000 A 
ATOM     25  N   UNL     1       7.739   5.182  13.686  0.00  0.00    +0.000 NA
ATOM     26  C   UNL     1       7.042   4.415  12.781  0.00  0.00    +0.000 A 
ATOM     27  N   UNL     1       5.919   3.869  13.122  0.00  0.00    +0.000 NA
ATOM     28  C   UNL     1       5.816   4.264  14.421  0.00  0.00    +0.000 A 
ATOM     29  C   UNL     1       4.919   3.984  15.366  0.00  0.00    +0.000 A 
ATOM     30  C   UNL     1       5.149   4.484  16.739  0.00  0.00    +0.000 A 
ATOM     31  C   UNL     1       4.307   4.075  17.778  0.00  0.00    +0.000 A 
ATOM     32  H   UNL     1       7.943   6.264  16.169  0.00  0.00    +0.000 HD
BRANCH  26  33
ATOM     33  O   UNL     1       7.630   4.285  11.593  0.00  0.00    +0.000 OA
ATOM     34  H   UNL     1       7.902   3.359  11.514  0.00  0.00    +0.000 HD
ENDBRANCH  26  33
ENDBRANCH  18  19
ENDBRANCH   1  18
TORSDOF 6
ENDMDL
MODEL 5
REMARK VINA RESULT:      -7.8      4.855      7.132
REMARK  Name = 
REMARK  6 active torsions:
REMARK  status: ('A' for Active; 'I' for Inactive)
REMARK    1  A    between atoms: C_2  and  C_3
REMARK    2  A    between atoms: C_3  and  C_4
REMARK    3  A    between atoms: C_4  and  C_5
REMARK    4  A    between atoms: C_5  and  O_6
REMARK    5  A    between atoms: O_6  and  C_7
REMARK    6  A    between atoms: C_14  and  O_15
REMARK                            x       y       z     vdW  Elec       q    Type
REMARK                         _______ _______ _______ _____ _____    ______ ____
ROOT
ATOM      1  C   UNL     1       1.327   8.360  21.277  0.00  0.00    +0.000 C 
ENDROOT
BRANCH   1   2
ATOM      2  C   UNL     1       0.049   9.204  21.309  0.00  0.00    +0.000 C 
BRANCH   2   3
ATOM      3  C   UNL     1       0.073  10.417  20.375  0.00  0.00    +0.000 C 
BRANCH   3   5
ATOM      4  O   UNL     1       1.606  12.013  21.318  0.00  0.00    +0.000 OA
ATOM      5  C   UNL     1       0.437  11.729  21.060  0.00  0.00    +0.000 C 
ATOM      6  N   UNL     1      -0.604  12.571  21.405  0.00  0.00    +0.000 N 
ATOM      7  C   UNL     1      -2.030  12.358  21.114  0.00  0.00    +0.000 C 
ATOM      8  C   UNL     1      -2.874  12.427  22.401  0.00  0.00    +0.000 C 
ATOM      9  N   UNL     1      -2.568  13.659  23.123  0.00  0.00    +0.000 N 
ATOM     10  C   UNL     1      -3.556  14.525  23.503  0.00  0.00    +0.000 A 
ATOM     11  N   UNL     1      -4.828  14.246  23.156  0.00  0.00    +0.000 NA
ATOM     12  C   UNL     1      -5.796  15.085  23.559  0.00  0.00    +0.000 A 
ATOM     13  C   UNL     1      -5.551  16.211  24.305  0.00  0.00    +0.000 A 
ATOM     14  C   UNL     1      -4.227  16.434  24.596  0.00  0.00    +0.000 A 
ATOM     15  N   UNL     1      -3.226  15.619  24.210  0.00  0.00    +0.000 NA
ATOM     16  C   UNL     1      -1.159  13.911  23.429  0.00  0.00    +0.000 C 
ATOM     17  C   UNL     1      -0.320  13.815  22.141  0.00  0.00    +0.000 C 
ENDBRANCH   3   5
ENDBRANCH   2   3
ENDBRANCH   1   2
BRANCH   1  18
ATOM     18  O   UNL     1       0.961   7.000  21.017  0.00  0.00    +0.000 OA
BRANCH  18  19
ATOM     19  C   UNL     1       1.901   6.204  20.416  0.00  0.00    +0.000 A 
ATOM     20  C   UNL     1       2.207   4.885  20.760  0.00  0.00    +0.000 A 
ATOM     21  C   UNL     1       3.145   4.155  20.017  0.00  0.00    +0.000 A 
ATOM     22  C   UNL     1       3.784   4.734  18.918  0.00  0.00    +0.000 A 
ATOM     23  N   UNL     1       4.659   3.986  18.103  0.00  0.00    +0.000 N 
ATOM     24  C   UNL     1       5.150   4.554  16.962  0.00  0.00    +0.000 A 
ATOM     25  N   UNL     1       5.864   4.028  16.004  0.00  0.00    +0.000 NA
ATOM     26  C   UNL     1       6.038   5.093  15.152  0.00  0.00    +0.000 A 
ATOM     27  N   UNL     1       5.535   6.250  15.446  0.00  0.00    +0.000 NA
ATOM     28  C   UNL     1       4.909   5.974  16.624  0.00  0.00    +0.000 A 
ATOM     29  C   UNL     1       4.143   6.720  17.419  0.00  0.00    +0.000 A 
ATOM     30  C   UNL     1       3.503   6.088  18.593  0.00  0.00    +0.000 A 
ATOM     31  C   UNL     1       2.575   6.808  19.351  0.00  0.00    +0.000 A 
ATOM     32  H   UNL     1       4.855   3.022  18.317  0.00  0.00    +0.000 HD
BRANCH  26  33
ATOM     33  O   UNL     1       6.720   4.813  14.043  0.00  0.00    +0.000 OA
ATOM     34  H   UNL     1       6.722   5.617  13.503  0.00  0.00    +0.000 HD
ENDBRANCH  26  33
ENDBRANCH  18  19
ENDBRANCH   1  18
TORSDOF 6
ENDMDL
MODEL 6
REMARK VINA RESULT:      -7.7      2.288      3.541
REMARK  Name = 
REMARK  6 active torsions:
REMARK  status: ('A' for Active; 'I' for Inactive)
REMARK    1  A    between atoms: C_2  and  C_3
REMARK    2  A    between atoms: C_3  and  C_4
REMARK    3  A    between atoms: C_4  and  C_5
REMARK    4  A    between atoms: C_5  and  O_6
REMARK    5  A    between atoms: O_6  and  C_7
REMARK    6  A    between atoms: C_14  and  O_15
REMARK                            x       y       z     vdW  Elec       q    Type
REMARK                         _______ _______ _______ _____ _____    ______ ____
ROOT
ATOM      1  C   UNL     1       2.589   4.442  21.090  0.00  0.00    +0.000 C 
ENDROOT
BRANCH   1   2
ATOM      2  C   UNL     1       1.579   5.392  20.438  0.00  0.00    +0.000 C 
BRANCH   2   3
ATOM      3  C   UNL     1       1.862   6.876  20.687  0.00  0.00    +0.000 C 
BRANCH   3   5
ATOM      4  O   UNL     1       2.542   7.361  18.431  0.00  0.00    +0.000 OA
ATOM      5  C   UNL     1       1.911   7.726  19.423  0.00  0.00    +0.000 C 
ATOM      6  N   UNL     1       1.243   8.936  19.450  0.00  0.00    +0.000 N 
ATOM      7  C   UNL     1       0.428   9.458  20.558  0.00  0.00    +0.000 C 
ATOM      8  C   UNL     1       0.911  10.855  20.990  0.00  0.00    +0.000 C 
ATOM      9  N   UNL     1       0.997  11.727  19.822  0.00  0.00    +0.000 N 
ATOM     10  C   UNL     1       0.368  12.942  19.794  0.00  0.00    +0.000 A 
ATOM     11  N   UNL     1      -0.380  13.307  20.854  0.00  0.00    +0.000 NA
ATOM     12  C   UNL     1      -0.967  14.514  20.832  0.00  0.00    +0.000 A 
ATOM     13  C   UNL     1      -0.845  15.390  19.783  0.00  0.00    +0.000 A 
ATOM     14  C   UNL     1      -0.085  14.933  18.734  0.00  0.00    +0.000 A 
ATOM     15  N   UNL     1       0.521  13.728  18.715  0.00  0.00    +0.000 NA
ATOM     16  C   UNL     1       1.795  11.244  18.695  0.00  0.00    +0.000 C 
ATOM     17  C   UNL     1       1.322   9.836  18.287  0.00  0.00    +0.000 C 
ENDBRANCH   3   5
ENDBRANCH   2   3
ENDBRANCH   1   2
BRANCH   1  18
ATOM     18  O   UNL     1       3.167   3.627  20.063  0.00  0.00    +0.000 OA
BRANCH  18  19
ATOM     19  C   UNL     1       4.073   4.225  19.228  0.00  0.00    +0.000 A 
ATOM     20  C   UNL     1       5.112   5.077  19.611  0.00  0.00    +0.000 A 
ATOM     21  C   UNL     1       6.017   5.569  18.660  0.00  0.00    +0.000 A 
ATOM     22  C   UNL     1       5.897   5.211  17.315  0.00  0.00    +0.000 A 
ATOM     23  N   UNL     1       6.851   5.619  16.361  0.00  0.00    +0.000 N 
ATOM     24  C   UNL     1       6.768   5.130  15.089  0.00  0.00    +0.000 A 
ATOM     25  N   UNL     1       7.590   5.264  14.084  0.00  0.00    +0.000 NA
ATOM     26  C   UNL     1       6.957   4.550  13.093  0.00  0.00    +0.000 A 
ATOM     27  N   UNL     1       5.818   3.979  13.328  0.00  0.00    +0.000 NA
ATOM     28  C   UNL     1       5.630   4.297  14.639  0.00  0.00    +0.000 A 
ATOM     29  C   UNL     1       4.678   3.958  15.508  0.00  0.00    +0.000 A 
ATOM     30  C   UNL     1       4.816   4.377  16.919  0.00  0.00    +0.000 A 
ATOM     31  C   UNL     1       3.914   3.904  17.877  0.00  0.00    +0.000 A 
ATOM     32  H   UNL     1       7.628   6.198  16.634  0.00  0.00    +0.000 HD
BRANCH  26  33
ATOM     33  O   UNL     1       7.620   4.492  11.939  0.00  0.00    +0.000 OA
ATOM     34  H   UNL     1       8.303   5.178  11.972  0.00  0.00    +0.000 HD
ENDBRANCH  26  33
ENDBRANCH  18  19
ENDBRANCH   1  18
TORSDOF 6
ENDMDL
MODEL 7
REMARK VINA RESULT:      -7.7      6.989      9.366
REMARK  Name = 
REMARK  6 active torsions:
REMARK  status: ('A' for Active; 'I' for Inactive)
REMARK    1  A    between atoms: C_2  and  C_3
REMARK    2  A    between atoms: C_3  and  C_4
REMARK    3  A    between atoms: C_4  and  C_5
REMARK    4  A    between atoms: C_5  and  O_6
REMARK    5  A    between atoms: O_6  and  C_7
REMARK    6  A    between atoms: C_14  and  O_15
REMARK                            x       y       z     vdW  Elec       q    Type
REMARK                         _______ _______ _______ _____ _____    ______ ____
ROOT
ATOM      1  C   UNL     1       7.549   8.283  18.041  0.00  0.00    +0.000 C 
ENDROOT
BRANCH   1   2
ATOM      2  C   UNL     1       8.069   9.690  17.727  0.00  0.00    +0.000 C 
BRANCH   2   3
ATOM      3  C   UNL     1       9.479   9.971  18.257  0.00  0.00    +0.000 C 
BRANCH   3   5
ATOM      4  O   UNL     1       8.977  10.514  20.546  0.00  0.00    +0.000 OA
ATOM      5  C   UNL     1       9.518  10.857  19.496  0.00  0.00    +0.000 C 
ATOM      6  N   UNL     1      10.161  12.075  19.380  0.00  0.00    +0.000 N 
ATOM      7  C   UNL     1      10.874  12.576  18.194  0.00  0.00    +0.000 C 
ATOM      8  C   UNL     1      10.335  13.952  17.763  0.00  0.00    +0.000 C 
ATOM      9  N   UNL     1      10.329  14.858  18.908  0.00  0.00    +0.000 N 
ATOM     10  C   UNL     1      10.937  16.082  18.850  0.00  0.00    +0.000 A 
ATOM     11  N   UNL     1      11.591  16.426  17.722  0.00  0.00    +0.000 NA
ATOM     12  C   UNL     1      12.157  17.641  17.661  0.00  0.00    +0.000 A 
ATOM     13  C   UNL     1      12.106  18.547  18.691  0.00  0.00    +0.000 A 
ATOM     14  C   UNL     1      11.441  18.110  19.811  0.00  0.00    +0.000 A 
ATOM     15  N   UNL     1      10.860  16.898  19.914  0.00  0.00    +0.000 NA
ATOM     16  C   UNL     1       9.634  14.398  20.110  0.00  0.00    +0.000 C 
ATOM     17  C   UNL     1      10.162  13.009  20.519  0.00  0.00    +0.000 C 
ENDBRANCH   3   5
ENDBRANCH   2   3
ENDBRANCH   1   2
BRANCH   1  18
ATOM     18  O   UNL     1       7.812   7.444  16.910  0.00  0.00    +0.000 OA
BRANCH  18  19
ATOM     19  C   UNL     1       6.978   6.374  16.719  0.00  0.00    +0.000 A 
ATOM     20  C   UNL     1       7.292   5.194  16.040  0.00  0.00    +0.000 A 
ATOM     21  C   UNL     1       6.367   4.142  15.976  0.00  0.00    +0.000 A 
ATOM     22  C   UNL     1       5.119   4.257  16.594  0.00  0.00    +0.000 A 
ATOM     23  N   UNL     1       4.214   3.176  16.620  0.00  0.00    +0.000 N 
ATOM     24  C   UNL     1       3.068   3.289  17.354  0.00  0.00    +0.000 A 
ATOM     25  N   UNL     1       2.154   2.397  17.624  0.00  0.00    +0.000 NA
ATOM     26  C   UNL     1       1.267   3.113  18.393  0.00  0.00    +0.000 A 
ATOM     27  N   UNL     1       1.486   4.364  18.644  0.00  0.00    +0.000 NA
ATOM     28  C   UNL     1       2.674   4.557  18.008  0.00  0.00    +0.000 A 
ATOM     29  C   UNL     1       3.482   5.614  17.935  0.00  0.00    +0.000 A 
ATOM     30  C   UNL     1       4.784   5.472  17.248  0.00  0.00    +0.000 A 
ATOM     31  C   UNL     1       5.712   6.518  17.294  0.00  0.00    +0.000 A 
ATOM     32  H   UNL     1       4.447   2.306  16.171  0.00  0.00    +0.000 HD
BRANCH  26  33
ATOM     33  O   UNL     1       0.230   2.409  18.846  0.00  0.00    +0.000 OA
ATOM     34  H   UNL     1      -0.153   2.913  19.580  0.00  0.00    +0.000 HD
ENDBRANCH  26  33
ENDBRANCH  18  19
ENDBRANCH   1  18
TORSDOF 6
ENDMDL
MODEL 8
REMARK VINA RESULT:      -7.7      7.179      9.351
REMARK  Name = 
REMARK  6 active torsions:
REMARK  status: ('A' for Active; 'I' for Inactive)
REMARK    1  A    between atoms: C_2  and  C_3
REMARK    2  A    between atoms: C_3  and  C_4
REMARK    3  A    between atoms: C_4  and  C_5
REMARK    4  A    between atoms: C_5  and  O_6
REMARK    5  A    between atoms: O_6  and  C_7
REMARK    6  A    between atoms: C_14  and  O_15
REMARK                            x       y       z     vdW  Elec       q    Type
REMARK                         _______ _______ _______ _____ _____    ______ ____
ROOT
ATOM      1  C   UNL     1       8.565   9.140  18.410  0.00  0.00    +0.000 C 
ENDROOT
BRANCH   1   2
ATOM      2  C   UNL     1       8.727  10.598  17.969  0.00  0.00    +0.000 C 
BRANCH   2   3
ATOM      3  C   UNL     1      10.104  11.197  18.272  0.00  0.00    +0.000 C 
BRANCH   3   5
ATOM      4  O   UNL     1      10.716  13.036  16.845  0.00  0.00    +0.000 OA
ATOM      5  C   UNL     1      10.236  12.674  17.919  0.00  0.00    +0.000 C 
ATOM      6  N   UNL     1       9.822  13.589  18.869  0.00  0.00    +0.000 N 
ATOM      7  C   UNL     1       9.200  13.279  20.166  0.00  0.00    +0.000 C 
ATOM      8  C   UNL     1       9.974  13.936  21.323  0.00  0.00    +0.000 C 
ATOM      9  N   UNL     1      10.153  15.358  21.049  0.00  0.00    +0.000 N 
ATOM     10  C   UNL     1       9.775  16.311  21.956  0.00  0.00    +0.000 A 
ATOM     11  N   UNL     1       9.184  15.914  23.100  0.00  0.00    +0.000 NA
ATOM     12  C   UNL     1       8.845  16.852  23.999  0.00  0.00    +0.000 A 
ATOM     13  C   UNL     1       9.068  18.193  23.806  0.00  0.00    +0.000 A 
ATOM     14  C   UNL     1       9.653  18.514  22.606  0.00  0.00    +0.000 A 
ATOM     15  N   UNL     1      10.008  17.604  21.676  0.00  0.00    +0.000 NA
ATOM     16  C   UNL     1      10.766  15.712  19.768  0.00  0.00    +0.000 C 
ATOM     17  C   UNL     1      10.000  15.029  18.619  0.00  0.00    +0.000 C 
ENDBRANCH   3   5
ENDBRANCH   2   3
ENDBRANCH   1   2
BRANCH   1  18
ATOM     18  O   UNL     1       7.755   8.464  17.441  0.00  0.00    +0.000 OA
BRANCH  18  19
ATOM     19  C   UNL     1       7.277   7.226  17.780  0.00  0.00    +0.000 A 
ATOM     20  C   UNL     1       7.964   6.246  18.501  0.00  0.00    +0.000 A 
ATOM     21  C   UNL     1       7.334   5.041  18.844  0.00  0.00    +0.000 A 
ATOM     22  C   UNL     1       6.007   4.806  18.476  0.00  0.00    +0.000 A 
ATOM     23  N   UNL     1       5.327   3.643  18.893  0.00  0.00    +0.000 N 
ATOM     24  C   UNL     1       3.993   3.523  18.626  0.00  0.00    +0.000 A 
ATOM     25  N   UNL     1       3.140   2.613  19.011  0.00  0.00    +0.000 NA
ATOM     26  C   UNL     1       1.973   3.041  18.423  0.00  0.00    +0.000 A 
ATOM     27  N   UNL     1       1.967   4.111  17.692  0.00  0.00    +0.000 NA
ATOM     28  C   UNL     1       3.267   4.506  17.792  0.00  0.00    +0.000 A 
ATOM     29  C   UNL     1       3.908   5.577  17.327  0.00  0.00    +0.000 A 
ATOM     30  C   UNL     1       5.321   5.786  17.708  0.00  0.00    +0.000 A 
ATOM     31  C   UNL     1       5.967   6.977  17.362  0.00  0.00    +0.000 A 
ATOM     32  H   UNL     1       5.800   2.949  19.449  0.00  0.00    +0.000 HD
BRANCH  26  33
ATOM     33  O   UNL     1       0.906   2.291  18.693  0.00  0.00    +0.000 OA
ATOM     34  H   UNL     1       0.477   2.682  19.468  0.00  0.00    +0.000 HD
ENDBRANCH  26  33
ENDBRANCH  18  19
ENDBRANCH   1  18
TORSDOF 6
ENDMDL
MODEL 9
REMARK VINA RESULT:      -7.6      4.756      6.762
REMARK  Name = 
REMARK  6 active torsions:
REMARK  status: ('A' for Active; 'I' for Inactive)
REMARK    1  A    between atoms: C_2  and  C_3
REMARK    2  A    between atoms: C_3  and  C_4
REMARK    3  A    between atoms: C_4  and  C_5
REMARK    4  A    between atoms: C_5  and  O_6
REMARK    5  A    between atoms: O_6  and  C_7
REMARK    6  A    between atoms: C_14  and  O_15
REMARK                            x       y       z     vdW  Elec       q    Type
REMARK                         _______ _______ _______ _____ _____    ______ ____
ROOT
ATOM      1  C   UNL     1       1.351   7.932  20.436  0.00  0.00    +0.000 C 
ENDROOT
BRANCH   1   2
ATOM      2  C   UNL     1       0.437   8.684  21.409  0.00  0.00    +0.000 C 
BRANCH   2   3
ATOM      3  C   UNL     1       0.586  10.208  21.360  0.00  0.00    +0.000 C 
BRANCH   3   5
ATOM      4  O   UNL     1      -0.658  10.781  19.382  0.00  0.00    +0.000 OA
ATOM      5  C   UNL     1      -0.524  10.922  20.597  0.00  0.00    +0.000 C 
ATOM      6  N   UNL     1      -1.352  11.756  21.324  0.00  0.00    +0.000 N 
ATOM      7  C   UNL     1      -1.314  11.973  22.779  0.00  0.00    +0.000 C 
ATOM      8  C   UNL     1      -1.179  13.471  23.112  0.00  0.00    +0.000 C 
ATOM      9  N   UNL     1      -2.207  14.226  22.402  0.00  0.00    +0.000 N 
ATOM     10  C   UNL     1      -3.048  15.078  23.064  0.00  0.00    +0.000 A 
ATOM     11  N   UNL     1      -2.946  15.175  24.404  0.00  0.00    +0.000 NA
ATOM     12  C   UNL     1      -3.753  16.036  25.043  0.00  0.00    +0.000 A 
ATOM     13  C   UNL     1      -4.679  16.818  24.397  0.00  0.00    +0.000 A 
ATOM     14  C   UNL     1      -4.735  16.642  23.036  0.00  0.00    +0.000 A 
ATOM     15  N   UNL     1      -3.943  15.788  22.357  0.00  0.00    +0.000 NA
ATOM     16  C   UNL     1      -2.282  14.037  20.953  0.00  0.00    +0.000 C 
ATOM     17  C   UNL     1      -2.391  12.535  20.628  0.00  0.00    +0.000 C 
ENDBRANCH   3   5
ENDBRANCH   2   3
ENDBRANCH   1   2
BRANCH   1  18
ATOM     18  O   UNL     1       1.480   6.581  20.894  0.00  0.00    +0.000 OA
BRANCH  18  19
ATOM     19  C   UNL     1       2.337   5.766  20.202  0.00  0.00    +0.000 A 
ATOM     20  C   UNL     1       2.554   4.406  20.438  0.00  0.00    +0.000 A 
ATOM     21  C   UNL     1       3.410   3.667  19.609  0.00  0.00    +0.000 A 
ATOM     22  C   UNL     1       4.055   4.279  18.531  0.00  0.00    +0.000 A 
ATOM     23  N   UNL     1       4.844   3.533  17.632  0.00  0.00    +0.000 N 
ATOM     24  C   UNL     1       5.340   4.148  16.518  0.00  0.00    +0.000 A 
ATOM     25  N   UNL     1       5.981   3.645  15.498  0.00  0.00    +0.000 NA
ATOM     26  C   UNL     1       6.207   4.756  14.720  0.00  0.00    +0.000 A 
ATOM     27  N   UNL     1       5.803   5.921  15.116  0.00  0.00    +0.000 NA
ATOM     28  C   UNL     1       5.196   5.603  16.292  0.00  0.00    +0.000 A 
ATOM     29  C   UNL     1       4.515   6.341  17.168  0.00  0.00    +0.000 A 
ATOM     30  C   UNL     1       3.867   5.671  18.316  0.00  0.00    +0.000 A 
ATOM     31  C   UNL     1       3.020   6.398  19.159  0.00  0.00    +0.000 A 
ATOM     32  H   UNL     1       4.973   2.544  17.767  0.00  0.00    +0.000 HD
BRANCH  26  33
ATOM     33  O   UNL     1       6.830   4.511  13.568  0.00  0.00    +0.000 OA
ATOM     34  H   UNL     1       6.824   5.337  13.063  0.00  0.00    +0.000 HD
ENDBRANCH  26  33
ENDBRANCH  18  19
ENDBRANCH   1  18
TORSDOF 6
ENDMDL
