MODEL 1
REMARK VINA RESULT:      -5.5      0.000      0.000
REMARK  Name = 
REMARK  10 active torsions:
REMARK  status: ('A' for Active; 'I' for Inactive)
REMARK    1  A    between atoms: C_1  and  C_2
REMARK    2  A    between atoms: C_2  and  C_3
REMARK    3  A    between atoms: C_2  and  P_11
REMARK    4  A    between atoms: C_3  and  C_5
REMARK    5  A    between atoms: C_5  and  CA_6
REMARK    6  A    between atoms: CA_6  and  N_7
REMARK    7  A    between atoms: CA_6  and  C_8
REMARK    8  A    between atoms: C_8  and  OXT_10
REMARK    9  A    between atoms: P_11  and  O_13
REMARK   10  A    between atoms: P_11  and  O_14
REMARK                            x       y       z     vdW  Elec       q    Type
REMARK                         _______ _______ _______ _____ _____    ______ ____
ROOT
ATOM      1  C   UNL     1       3.107   4.197  17.589  0.00  0.00    +0.000 C 
ATOM      2  O   UNL     1       3.605   3.661  16.599  0.00  0.00    +0.000 OA
ENDROOT
BRANCH   1   4
ATOM      3  C   UNL     1       3.658   6.596  17.964  0.00  0.00    +0.000 C 
ATOM      4  C   UNL     1       3.900   5.167  18.445  0.00  0.00    +0.000 C 
BRANCH   4   5
ATOM      5  P   UNL     1       5.660   4.671  18.381  0.00  0.00    +0.000 P 
ATOM      6  O   UNL     1       5.983   5.486  19.639  0.00  0.00    +0.000 OA
BRANCH   5   7
ATOM      7  O   UNL     1       5.307   3.192  19.005  0.00  0.00    +0.000 OA
ATOM      8  H   UNL     1       5.566   3.150  19.944  0.00  0.00    +0.000 HD
ENDBRANCH   5   7
BRANCH   5   9
ATOM      9  O   UNL     1       7.324   4.202  18.320  0.00  0.00    +0.000 OA
ATOM     10  H   UNL     1       7.714   4.526  19.156  0.00  0.00    +0.000 HD
ENDBRANCH   5   9
ENDBRANCH   4   5
ENDBRANCH   1   4
BRANCH   1  11
ATOM     11  C   UNL     1       1.692   3.859  18.028  0.00  0.00    +0.000 C 
BRANCH  11  12
ATOM     12  CA  UNL     1       1.657   2.527  18.778  0.00  0.00    +0.000 C 
BRANCH  12  13
ATOM     13  N   UNL     1       2.723   1.598  18.287  0.00  0.00    +0.000 NA
ATOM     14  H1  UNL     1       3.354   1.380  19.063  0.00  0.00    +0.000 HD
ATOM     15  H2  UNL     1       3.306   2.107  17.613  0.00  0.00    +0.000 HD
ENDBRANCH  12  13
BRANCH  12  16
ATOM     16  C   UNL     1       1.896   2.737  20.289  0.00  0.00    +0.000 C 
ATOM     17  O   UNL     1       2.971   2.688  20.860  0.00  0.00    +0.000 OA
BRANCH  16  18
ATOM     18  OXT UNL     1       0.721   2.963  20.936  0.00  0.00    +0.000 OA
ATOM     19  HXT UNL     1       0.858   2.665  21.869  0.00  0.00    +0.000 HD
ENDBRANCH  16  18
ENDBRANCH  12  16
ENDBRANCH  11  12
ENDBRANCH   1  11
TORSDOF 9
ENDMDL
MODEL 2
REMARK VINA RESULT:      -5.2      2.283      4.603
REMARK  Name = 
REMARK  10 active torsions:
REMARK  status: ('A' for Active; 'I' for Inactive)
REMARK    1  A    between atoms: C_1  and  C_2
REMARK    2  A    between atoms: C_2  and  C_3
REMARK    3  A    between atoms: C_2  and  P_11
REMARK    4  A    between atoms: C_3  and  C_5
REMARK    5  A    between atoms: C_5  and  CA_6
REMARK    6  A    between atoms: CA_6  and  N_7
REMARK    7  A    between atoms: CA_6  and  C_8
REMARK    8  A    between atoms: C_8  and  OXT_10
REMARK    9  A    between atoms: P_11  and  O_13
REMARK   10  A    between atoms: P_11  and  O_14
REMARK                            x       y       z     vdW  Elec       q    Type
REMARK                         _______ _______ _______ _____ _____    ______ ____
ROOT
ATOM      1  C   UNL     1       3.350   2.682  17.944  0.00  0.00    +0.000 C 
ATOM      2  O   UNL     1       3.765   1.543  18.159  0.00  0.00    +0.000 OA
ENDROOT
BRANCH   1   4
ATOM      3  C   UNL     1       1.675   4.522  17.887  0.00  0.00    +0.000 C 
ATOM      4  C   UNL     1       1.994   3.138  18.448  0.00  0.00    +0.000 C 
BRANCH   4   5
ATOM      5  P   UNL     1       2.024   3.088  20.277  0.00  0.00    +0.000 P 
ATOM      6  O   UNL     1       2.768   4.428  20.347  0.00  0.00    +0.000 OA
BRANCH   5   7
ATOM      7  O   UNL     1       0.451   3.559  20.355  0.00  0.00    +0.000 OA
ATOM      8  H   UNL     1       0.390   4.493  20.631  0.00  0.00    +0.000 HD
ENDBRANCH   5   7
BRANCH   5   9
ATOM      9  O   UNL     1       2.051   3.041  22.006  0.00  0.00    +0.000 OA
ATOM     10  H   UNL     1       1.267   3.552  22.290  0.00  0.00    +0.000 HD
ENDBRANCH   5   9
ENDBRANCH   4   5
ENDBRANCH   1   4
BRANCH   1  11
ATOM     11  C   UNL     1       4.159   3.659  17.107  0.00  0.00    +0.000 C 
BRANCH  11  12
ATOM     12  CA  UNL     1       5.260   4.313  17.943  0.00  0.00    +0.000 C 
BRANCH  12  13
ATOM     13  N   UNL     1       5.588   3.490  19.149  0.00  0.00    +0.000 NA
ATOM     14  H1  UNL     1       5.237   3.971  19.983  0.00  0.00    +0.000 HD
ATOM     15  H2  UNL     1       6.608   3.481  19.264  0.00  0.00    +0.000 HD
ENDBRANCH  12  13
BRANCH  12  16
ATOM     16  C   UNL     1       6.560   4.464  17.126  0.00  0.00    +0.000 C 
ATOM     17  O   UNL     1       6.648   4.888  15.987  0.00  0.00    +0.000 OA
BRANCH  16  18
ATOM     18  OXT UNL     1       7.632   4.026  17.840  0.00  0.00    +0.000 OA
ATOM     19  HXT UNL     1       8.430   4.223  17.289  0.00  0.00    +0.000 HD
ENDBRANCH  16  18
ENDBRANCH  12  16
ENDBRANCH  11  12
ENDBRANCH   1  11
TORSDOF 9
ENDMDL
MODEL 3
REMARK VINA RESULT:      -5.2      1.439      1.492
REMARK  Name = 
REMARK  10 active torsions:
REMARK  status: ('A' for Active; 'I' for Inactive)
REMARK    1  A    between atoms: C_1  and  C_2
REMARK    2  A    between atoms: C_2  and  C_3
REMARK    3  A    between atoms: C_2  and  P_11
REMARK    4  A    between atoms: C_3  and  C_5
REMARK    5  A    between atoms: C_5  and  CA_6
REMARK    6  A    between atoms: CA_6  and  N_7
REMARK    7  A    between atoms: CA_6  and  C_8
REMARK    8  A    between atoms: C_8  and  OXT_10
REMARK    9  A    between atoms: P_11  and  O_13
REMARK   10  A    between atoms: P_11  and  O_14
REMARK                            x       y       z     vdW  Elec       q    Type
REMARK                         _______ _______ _______ _____ _____    ______ ____
ROOT
ATOM      1  C   UNL     1       3.945   4.752  18.205  0.00  0.00    +0.000 C 
ATOM      2  O   UNL     1       3.702   3.953  17.301  0.00  0.00    +0.000 OA
ENDROOT
BRANCH   1   4
ATOM      3  C   UNL     1       4.587   6.848  17.024  0.00  0.00    +0.000 C 
ATOM      4  C   UNL     1       5.021   5.811  18.058  0.00  0.00    +0.000 C 
BRANCH   4   5
ATOM      5  P   UNL     1       6.587   4.969  17.622  0.00  0.00    +0.000 P 
ATOM      6  O   UNL     1       7.405   5.956  18.464  0.00  0.00    +0.000 OA
BRANCH   5   7
ATOM      7  O   UNL     1       6.284   3.763  18.695  0.00  0.00    +0.000 OA
ATOM      8  H   UNL     1       6.894   3.823  19.454  0.00  0.00    +0.000 HD
ENDBRANCH   5   7
BRANCH   5   9
ATOM      9  O   UNL     1       8.067   4.173  17.210  0.00  0.00    +0.000 OA
ATOM     10  H   UNL     1       8.476   4.732  16.520  0.00  0.00    +0.000 HD
ENDBRANCH   5   9
ENDBRANCH   4   5
ENDBRANCH   1   4
BRANCH   1  11
ATOM     11  C   UNL     1       3.213   4.668  19.535  0.00  0.00    +0.000 C 
BRANCH  11  12
ATOM     12  CA  UNL     1       2.825   3.224  19.854  0.00  0.00    +0.000 C 
BRANCH  12  13
ATOM     13  N   UNL     1       4.035   2.373  20.082  0.00  0.00    +0.000 NA
ATOM     14  H1  UNL     1       3.866   1.770  20.892  0.00  0.00    +0.000 HD
ATOM     15  H2  UNL     1       4.807   2.985  20.370  0.00  0.00    +0.000 HD
ENDBRANCH  12  13
BRANCH  12  16
ATOM     16  C   UNL     1       1.968   3.152  21.136  0.00  0.00    +0.000 C 
ATOM     17  O   UNL     1       2.388   3.100  22.278  0.00  0.00    +0.000 OA
BRANCH  16  18
ATOM     18  OXT UNL     1       0.643   3.125  20.829  0.00  0.00    +0.000 OA
ATOM     19  HXT UNL     1       0.169   2.919  21.673  0.00  0.00    +0.000 HD
ENDBRANCH  16  18
ENDBRANCH  12  16
ENDBRANCH  11  12
ENDBRANCH   1  11
TORSDOF 9
ENDMDL
MODEL 4
REMARK VINA RESULT:      -5.1      2.868      5.265
REMARK  Name = 
REMARK  10 active torsions:
REMARK  status: ('A' for Active; 'I' for Inactive)
REMARK    1  A    between atoms: C_1  and  C_2
REMARK    2  A    between atoms: C_2  and  C_3
REMARK    3  A    between atoms: C_2  and  P_11
REMARK    4  A    between atoms: C_3  and  C_5
REMARK    5  A    between atoms: C_5  and  CA_6
REMARK    6  A    between atoms: CA_6  and  N_7
REMARK    7  A    between atoms: CA_6  and  C_8
REMARK    8  A    between atoms: C_8  and  OXT_10
REMARK    9  A    between atoms: P_11  and  O_13
REMARK   10  A    between atoms: P_11  and  O_14
REMARK                            x       y       z     vdW  Elec       q    Type
REMARK                         _______ _______ _______ _____ _____    ______ ____
ROOT
ATOM      1  C   UNL     1       5.081   4.236  18.939  0.00  0.00    +0.000 C 
ATOM      2  O   UNL     1       5.424   3.284  19.640  0.00  0.00    +0.000 OA
ENDROOT
BRANCH   1   4
ATOM      3  C   UNL     1       3.288   5.414  17.676  0.00  0.00    +0.000 C 
ATOM      4  C   UNL     1       4.018   4.086  17.867  0.00  0.00    +0.000 C 
BRANCH   4   5
ATOM      5  P   UNL     1       2.909   2.715  18.356  0.00  0.00    +0.000 P 
ATOM      6  O   UNL     1       2.039   2.914  17.109  0.00  0.00    +0.000 OA
BRANCH   5   7
ATOM      7  O   UNL     1       4.000   1.598  17.845  0.00  0.00    +0.000 OA
ATOM      8  H   UNL     1       3.602   1.020  17.167  0.00  0.00    +0.000 HD
ENDBRANCH   5   7
BRANCH   5   9
ATOM      9  O   UNL     1       1.862   1.419  18.818  0.00  0.00    +0.000 OA
ATOM     10  H   UNL     1       1.715   0.902  18.001  0.00  0.00    +0.000 HD
ENDBRANCH   5   9
ENDBRANCH   4   5
ENDBRANCH   1   4
BRANCH   1  11
ATOM     11  C   UNL     1       5.758   5.590  19.079  0.00  0.00    +0.000 C 
BRANCH  11  12
ATOM     12  CA  UNL     1       7.255   5.484  18.792  0.00  0.00    +0.000 C 
BRANCH  12  13
ATOM     13  N   UNL     1       7.566   4.277  17.963  0.00  0.00    +0.000 NA
ATOM     14  H1  UNL     1       8.286   3.726  18.439  0.00  0.00    +0.000 HD
ATOM     15  H2  UNL     1       8.012   4.592  17.093  0.00  0.00    +0.000 HD
ENDBRANCH  12  13
BRANCH  12  16
ATOM     16  C   UNL     1       7.758   6.716  18.010  0.00  0.00    +0.000 C 
ATOM     17  O   UNL     1       8.287   7.704  18.489  0.00  0.00    +0.000 OA
BRANCH  16  18
ATOM     18  OXT UNL     1       7.507   6.579  16.680  0.00  0.00    +0.000 OA
ATOM     19  HXT UNL     1       8.134   7.188  16.218  0.00  0.00    +0.000 HD
ENDBRANCH  16  18
ENDBRANCH  12  16
ENDBRANCH  11  12
ENDBRANCH   1  11
TORSDOF 9
ENDMDL
MODEL 5
REMARK VINA RESULT:      -5.1      1.836      2.248
REMARK  Name = 
REMARK  10 active torsions:
REMARK  status: ('A' for Active; 'I' for Inactive)
REMARK    1  A    between atoms: C_1  and  C_2
REMARK    2  A    between atoms: C_2  and  C_3
REMARK    3  A    between atoms: C_2  and  P_11
REMARK    4  A    between atoms: C_3  and  C_5
REMARK    5  A    between atoms: C_5  and  CA_6
REMARK    6  A    between atoms: CA_6  and  N_7
REMARK    7  A    between atoms: CA_6  and  C_8
REMARK    8  A    between atoms: C_8  and  OXT_10
REMARK    9  A    between atoms: P_11  and  O_13
REMARK   10  A    between atoms: P_11  and  O_14
REMARK                            x       y       z     vdW  Elec       q    Type
REMARK                         _______ _______ _______ _____ _____    ______ ____
ROOT
ATOM      1  C   UNL     1       4.383   5.086  18.503  0.00  0.00    +0.000 C 
ATOM      2  O   UNL     1       4.037   5.412  19.639  0.00  0.00    +0.000 OA
ENDROOT
BRANCH   1   4
ATOM      3  C   UNL     1       4.908   6.187  16.333  0.00  0.00    +0.000 C 
ATOM      4  C   UNL     1       5.425   5.878  17.736  0.00  0.00    +0.000 C 
BRANCH   4   5
ATOM      5  P   UNL     1       6.982   4.916  17.737  0.00  0.00    +0.000 P 
ATOM      6  O   UNL     1       7.802   6.156  17.362  0.00  0.00    +0.000 OA
BRANCH   5   7
ATOM      7  O   UNL     1       7.043   4.941  19.379  0.00  0.00    +0.000 OA
ATOM      8  H   UNL     1       6.158   5.117  19.749  0.00  0.00    +0.000 HD
ENDBRANCH   5   7
BRANCH   5   9
ATOM      9  O   UNL     1       8.453   4.006  17.738  0.00  0.00    +0.000 OA
ATOM     10  H   UNL     1       8.299   3.268  18.360  0.00  0.00    +0.000 HD
ENDBRANCH   5   9
ENDBRANCH   4   5
ENDBRANCH   1   4
BRANCH   1  11
ATOM     11  C   UNL     1       3.731   3.908  17.799  0.00  0.00    +0.000 C 
BRANCH  11  12
ATOM     12  CA  UNL     1       3.841   2.638  18.643  0.00  0.00    +0.000 C 
BRANCH  12  13
ATOM     13  N   UNL     1       5.008   2.706  19.578  0.00  0.00    +0.000 NA
ATOM     14  H1  UNL     1       4.666   2.615  20.539  0.00  0.00    +0.000 HD
ATOM     15  H2  UNL     1       5.402   3.653  19.530  0.00  0.00    +0.000 HD
ENDBRANCH  12  13
BRANCH  12  16
ATOM     16  C   UNL     1       2.577   2.435  19.505  0.00  0.00    +0.000 C 
ATOM     17  O   UNL     1       1.515   1.973  19.126  0.00  0.00    +0.000 OA
BRANCH  16  18
ATOM     18  OXT UNL     1       2.785   2.874  20.776  0.00  0.00    +0.000 OA
ATOM     19  HXT UNL     1       3.632   3.386  20.755  0.00  0.00    +0.000 HD
ENDBRANCH  16  18
ENDBRANCH  12  16
ENDBRANCH  11  12
ENDBRANCH   1  11
TORSDOF 9
ENDMDL
MODEL 6
REMARK VINA RESULT:      -5.1      2.184      3.103
REMARK  Name = 
REMARK  10 active torsions:
REMARK  status: ('A' for Active; 'I' for Inactive)
REMARK    1  A    between atoms: C_1  and  C_2
REMARK    2  A    between atoms: C_2  and  C_3
REMARK    3  A    between atoms: C_2  and  P_11
REMARK    4  A    between atoms: C_3  and  C_5
REMARK    5  A    between atoms: C_5  and  CA_6
REMARK    6  A    between atoms: CA_6  and  N_7
REMARK    7  A    between atoms: CA_6  and  C_8
REMARK    8  A    between atoms: C_8  and  OXT_10
REMARK    9  A    between atoms: P_11  and  O_13
REMARK   10  A    between atoms: P_11  and  O_14
REMARK                            x       y       z     vdW  Elec       q    Type
REMARK                         _______ _______ _______ _____ _____    ______ ____
ROOT
ATOM      1  C   UNL     1       5.417   5.042  18.581  0.00  0.00    +0.000 C 
ATOM      2  O   UNL     1       6.439   4.376  18.743  0.00  0.00    +0.000 OA
ENDROOT
BRANCH   1   4
ATOM      3  C   UNL     1       3.967   6.792  17.564  0.00  0.00    +0.000 C 
ATOM      4  C   UNL     1       5.367   6.183  17.582  0.00  0.00    +0.000 C 
BRANCH   4   5
ATOM      5  P   UNL     1       5.893   5.534  15.954  0.00  0.00    +0.000 P 
ATOM      6  O   UNL     1       5.299   6.747  15.227  0.00  0.00    +0.000 OA
BRANCH   5   7
ATOM      7  O   UNL     1       7.443   6.010  16.219  0.00  0.00    +0.000 OA
ATOM      8  H   UNL     1       8.016   5.234  16.363  0.00  0.00    +0.000 HD
ENDBRANCH   5   7
BRANCH   5   9
ATOM      9  O   UNL     1       6.390   4.919  14.415  0.00  0.00    +0.000 OA
ATOM     10  H   UNL     1       7.343   4.722  14.512  0.00  0.00    +0.000 HD
ENDBRANCH   5   9
ENDBRANCH   4   5
ENDBRANCH   1   4
BRANCH   1  11
ATOM     11  C   UNL     1       4.179   4.787  19.424  0.00  0.00    +0.000 C 
BRANCH  11  12
ATOM     12  CA  UNL     1       3.653   3.368  19.207  0.00  0.00    +0.000 C 
BRANCH  12  13
ATOM     13  N   UNL     1       4.214   2.766  17.956  0.00  0.00    +0.000 NA
ATOM     14  H1  UNL     1       4.207   1.746  18.049  0.00  0.00    +0.000 HD
ATOM     15  H2  UNL     1       5.208   3.015  17.898  0.00  0.00    +0.000 HD
ENDBRANCH  12  13
BRANCH  12  16
ATOM     16  C   UNL     1       4.054   2.444  20.377  0.00  0.00    +0.000 C 
ATOM     17  O   UNL     1       3.458   2.322  21.432  0.00  0.00    +0.000 OA
BRANCH  16  18
ATOM     18  OXT UNL     1       5.207   1.779  20.093  0.00  0.00    +0.000 OA
ATOM     19  HXT UNL     1       5.942   2.340  20.445  0.00  0.00    +0.000 HD
ENDBRANCH  16  18
ENDBRANCH  12  16
ENDBRANCH  11  12
ENDBRANCH   1  11
TORSDOF 9
ENDMDL
MODEL 7
REMARK VINA RESULT:      -5.1      1.560      2.085
REMARK  Name = 
REMARK  10 active torsions:
REMARK  status: ('A' for Active; 'I' for Inactive)
REMARK    1  A    between atoms: C_1  and  C_2
REMARK    2  A    between atoms: C_2  and  C_3
REMARK    3  A    between atoms: C_2  and  P_11
REMARK    4  A    between atoms: C_3  and  C_5
REMARK    5  A    between atoms: C_5  and  CA_6
REMARK    6  A    between atoms: CA_6  and  N_7
REMARK    7  A    between atoms: CA_6  and  C_8
REMARK    8  A    between atoms: C_8  and  OXT_10
REMARK    9  A    between atoms: P_11  and  O_13
REMARK   10  A    between atoms: P_11  and  O_14
REMARK                            x       y       z     vdW  Elec       q    Type
REMARK                         _______ _______ _______ _____ _____    ______ ____
ROOT
ATOM      1  C   UNL     1       3.771   4.628  17.708  0.00  0.00    +0.000 C 
ATOM      2  O   UNL     1       2.580   4.941  17.682  0.00  0.00    +0.000 OA
ENDROOT
BRANCH   1   4
ATOM      3  C   UNL     1       4.593   6.896  17.094  0.00  0.00    +0.000 C 
ATOM      4  C   UNL     1       4.855   5.661  17.952  0.00  0.00    +0.000 C 
BRANCH   4   5
ATOM      5  P   UNL     1       6.472   4.875  17.614  0.00  0.00    +0.000 P 
ATOM      6  O   UNL     1       7.110   6.228  17.274  0.00  0.00    +0.000 OA
BRANCH   5   7
ATOM      7  O   UNL     1       6.786   4.735  19.220  0.00  0.00    +0.000 OA
ATOM      8  H   UNL     1       7.283   5.512  19.537  0.00  0.00    +0.000 HD
ENDBRANCH   5   7
BRANCH   5   9
ATOM      9  O   UNL     1       8.001   4.132  17.294  0.00  0.00    +0.000 OA
ATOM     10  H   UNL     1       7.856   3.574  16.503  0.00  0.00    +0.000 HD
ENDBRANCH   5   9
ENDBRANCH   4   5
ENDBRANCH   1   4
BRANCH   1  11
ATOM     11  C   UNL     1       4.205   3.198  17.433  0.00  0.00    +0.000 C 
BRANCH  11  12
ATOM     12  CA  UNL     1       3.519   2.225  18.392  0.00  0.00    +0.000 C 
BRANCH  12  13
ATOM     13  N   UNL     1       3.945   0.813  18.132  0.00  0.00    +0.000 NA
ATOM     14  H1  UNL     1       4.335   0.756  17.186  0.00  0.00    +0.000 HD
ATOM     15  H2  UNL     1       3.105   0.225  18.103  0.00  0.00    +0.000 HD
ENDBRANCH  12  13
BRANCH  12  16
ATOM     16  C   UNL     1       3.880   2.546  19.858  0.00  0.00    +0.000 C 
ATOM     17  O   UNL     1       3.119   2.977  20.707  0.00  0.00    +0.000 OA
BRANCH  16  18
ATOM     18  OXT UNL     1       5.199   2.310  20.094  0.00  0.00    +0.000 OA
ATOM     19  HXT UNL     1       5.591   2.051  19.223  0.00  0.00    +0.000 HD
ENDBRANCH  16  18
ENDBRANCH  12  16
ENDBRANCH  11  12
ENDBRANCH   1  11
TORSDOF 9
ENDMDL
MODEL 8
REMARK VINA RESULT:      -5.0      1.894      2.511
REMARK  Name = 
REMARK  10 active torsions:
REMARK  status: ('A' for Active; 'I' for Inactive)
REMARK    1  A    between atoms: C_1  and  C_2
REMARK    2  A    between atoms: C_2  and  C_3
REMARK    3  A    between atoms: C_2  and  P_11
REMARK    4  A    between atoms: C_3  and  C_5
REMARK    5  A    between atoms: C_5  and  CA_6
REMARK    6  A    between atoms: CA_6  and  N_7
REMARK    7  A    between atoms: CA_6  and  C_8
REMARK    8  A    between atoms: C_8  and  OXT_10
REMARK    9  A    between atoms: P_11  and  O_13
REMARK   10  A    between atoms: P_11  and  O_14
REMARK                            x       y       z     vdW  Elec       q    Type
REMARK                         _______ _______ _______ _____ _____    ______ ____
ROOT
ATOM      1  C   UNL     1       4.352   4.301  19.348  0.00  0.00    +0.000 C 
ATOM      2  O   UNL     1       4.948   3.254  19.602  0.00  0.00    +0.000 OA
ENDROOT
BRANCH   1   4
ATOM      3  C   UNL     1       4.058   5.942  17.500  0.00  0.00    +0.000 C 
ATOM      4  C   UNL     1       5.015   5.420  18.568  0.00  0.00    +0.000 C 
BRANCH   4   5
ATOM      5  P   UNL     1       6.585   4.778  17.880  0.00  0.00    +0.000 P 
ATOM      6  O   UNL     1       6.843   6.088  17.126  0.00  0.00    +0.000 OA
BRANCH   5   7
ATOM      7  O   UNL     1       7.362   5.036  19.304  0.00  0.00    +0.000 OA
ATOM      8  H   UNL     1       8.300   4.779  19.231  0.00  0.00    +0.000 HD
ENDBRANCH   5   7
BRANCH   5   9
ATOM      9  O   UNL     1       8.068   4.170  17.230  0.00  0.00    +0.000 OA
ATOM     10  H   UNL     1       8.736   4.319  17.929  0.00  0.00    +0.000 HD
ENDBRANCH   5   9
ENDBRANCH   4   5
ENDBRANCH   1   4
BRANCH   1  11
ATOM     11  C   UNL     1       2.941   4.537  19.863  0.00  0.00    +0.000 C 
BRANCH  11  12
ATOM     12  CA  UNL     1       2.077   3.289  19.683  0.00  0.00    +0.000 C 
BRANCH  12  13
ATOM     13  N   UNL     1       0.757   3.436  20.372  0.00  0.00    +0.000 NA
ATOM     14  H1  UNL     1       0.732   2.802  21.176  0.00  0.00    +0.000 HD
ATOM     15  H2  UNL     1       0.026   3.088  19.742  0.00  0.00    +0.000 HD
ENDBRANCH  12  13
BRANCH  12  16
ATOM     16  C   UNL     1       1.785   3.029  18.189  0.00  0.00    +0.000 C 
ATOM     17  O   UNL     1       1.209   3.785  17.428  0.00  0.00    +0.000 OA
BRANCH  16  18
ATOM     18  OXT UNL     1       2.238   1.801  17.816  0.00  0.00    +0.000 OA
ATOM     19  HXT UNL     1       2.745   1.448  18.590  0.00  0.00    +0.000 HD
ENDBRANCH  16  18
ENDBRANCH  12  16
ENDBRANCH  11  12
ENDBRANCH   1  11
TORSDOF 9
ENDMDL
MODEL 9
REMARK VINA RESULT:      -5.0      1.384      1.674
REMARK  Name = 
REMARK  10 active torsions:
REMARK  status: ('A' for Active; 'I' for Inactive)
REMARK    1  A    between atoms: C_1  and  C_2
REMARK    2  A    between atoms: C_2  and  C_3
REMARK    3  A    between atoms: C_2  and  P_11
REMARK    4  A    between atoms: C_3  and  C_5
REMARK    5  A    between atoms: C_5  and  CA_6
REMARK    6  A    between atoms: CA_6  and  N_7
REMARK    7  A    between atoms: CA_6  and  C_8
REMARK    8  A    between atoms: C_8  and  OXT_10
REMARK    9  A    between atoms: P_11  and  O_13
REMARK   10  A    between atoms: P_11  and  O_14
REMARK                            x       y       z     vdW  Elec       q    Type
REMARK                         _______ _______ _______ _____ _____    ______ ____
ROOT
ATOM      1  C   UNL     1       2.130   4.145  18.158  0.00  0.00    +0.000 C 
ATOM      2  O   UNL     1       1.828   3.635  17.079  0.00  0.00    +0.000 OA
ENDROOT
BRANCH   1   4
ATOM      3  C   UNL     1       3.157   6.404  17.967  0.00  0.00    +0.000 C 
ATOM      4  C   UNL     1       3.409   4.942  18.326  0.00  0.00    +0.000 C 
BRANCH   4   5
ATOM      5  P   UNL     1       4.704   4.158  17.298  0.00  0.00    +0.000 P 
ATOM      6  O   UNL     1       5.449   5.489  17.141  0.00  0.00    +0.000 OA
BRANCH   5   7
ATOM      7  O   UNL     1       5.423   3.511  18.626  0.00  0.00    +0.000 OA
ATOM      8  H   UNL     1       5.651   2.576  18.466  0.00  0.00    +0.000 HD
ENDBRANCH   5   7
BRANCH   5   9
ATOM      9  O   UNL     1       5.928   3.417  16.326  0.00  0.00    +0.000 OA
ATOM     10  H   UNL     1       6.202   2.619  16.821  0.00  0.00    +0.000 HD
ENDBRANCH   5   9
ENDBRANCH   4   5
ENDBRANCH   1   4
BRANCH   1  11
ATOM     11  C   UNL     1       1.256   3.941  19.385  0.00  0.00    +0.000 C 
BRANCH  11  12
ATOM     12  CA  UNL     1       1.520   2.577  20.023  0.00  0.00    +0.000 C 
BRANCH  12  13
ATOM     13  N   UNL     1       2.054   1.602  19.020  0.00  0.00    +0.000 NA
ATOM     14  H1  UNL     1       2.026   2.035  18.092  0.00  0.00    +0.000 HD
ATOM     15  H2  UNL     1       1.398   0.814  18.959  0.00  0.00    +0.000 HD
ENDBRANCH  12  13
BRANCH  12  16
ATOM     16  C   UNL     1       2.566   2.687  21.153  0.00  0.00    +0.000 C 
ATOM     17  O   UNL     1       2.354   3.054  22.295  0.00  0.00    +0.000 OA
BRANCH  16  18
ATOM     18  OXT UNL     1       3.802   2.341  20.701  0.00  0.00    +0.000 OA
ATOM     19  HXT UNL     1       4.070   3.049  20.063  0.00  0.00    +0.000 HD
ENDBRANCH  16  18
ENDBRANCH  12  16
ENDBRANCH  11  12
ENDBRANCH   1  11
TORSDOF 9
ENDMDL
