MODEL 1
REMARK VINA RESULT:      -6.2      0.000      0.000
REMARK  Name = 
REMARK  6 active torsions:
REMARK  status: ('A' for Active; 'I' for Inactive)
REMARK    1  A    between atoms: C_1  and  C_2
REMARK    2  A    between atoms: C_2  and  O_3
REMARK    3  A    between atoms: C_2  and  C_4
REMARK    4  A    between atoms: C_5  and  C_6
REMARK    5  A    between atoms: C_13  and  C_14
REMARK    6  A    between atoms: N_19  and  C_20
REMARK                            x       y       z     vdW  Elec       q    Type
REMARK                         _______ _______ _______ _____ _____    ______ ____
ROOT
ATOM      1  C   UNL     1       2.403   6.637  18.850  0.00  0.00    +0.000 A 
ATOM      2  C   UNL     1       2.353   7.965  18.463  0.00  0.00    +0.000 A 
ATOM      3 CL   UNL     1       2.960   8.591  16.992  0.00  0.00    +0.000 Cl
ATOM      4  C   UNL     1       1.730   8.716  19.501  0.00  0.00    +0.000 A 
ATOM      5  C   UNL     1       1.394  10.053  19.752  0.00  0.00    +0.000 A 
ATOM      6 CL   UNL     1       1.745  11.233  18.573  0.00  0.00    +0.000 Cl
ATOM      7  C   UNL     1       0.781  10.417  20.938  0.00  0.00    +0.000 A 
ATOM      8  C   UNL     1       0.524   9.415  21.852  0.00  0.00    +0.000 A 
ATOM      9  N   UNL     1       0.804   8.092  21.688  0.00  0.00    +0.000 NA
ATOM     10  C   UNL     1       1.403   7.794  20.503  0.00  0.00    +0.000 A 
ATOM     11  N   UNL     1       1.763   6.525  20.077  0.00  0.00    +0.000 N 
ENDROOT
BRANCH  11  12
ATOM     12  C   UNL     1       1.527   5.276  20.833  0.00  0.00    +0.000 C 
ATOM     13  C   UNL     1       0.809   4.217  19.975  0.00  0.00    +0.000 C 
ATOM     14  C   UNL     1       0.710   2.866  20.685  0.00  0.00    +0.000 C 
ATOM     15  C   UNL     1       2.063   2.378  21.189  0.00  0.00    +0.000 C 
ATOM     16  N   UNL     1       2.619   3.362  22.117  0.00  0.00    +0.000 NA
ATOM     17  C   UNL     1       2.822   4.647  21.420  0.00  0.00    +0.000 C 
ATOM     18  H   UNL     1       3.525   3.019  22.450  0.00  0.00    +0.000 HD
ENDBRANCH  11  12
BRANCH   8  19
ATOM     19  C   UNL     1      -0.150   9.828  23.132  0.00  0.00    +0.000 C 
ATOM     20  N   UNL     1      -1.286  10.565  23.026  0.00  0.00    +0.000 N 
ATOM     21  O   UNL     1       0.297   9.521  24.234  0.00  0.00    +0.000 OA
ATOM     22  H   UNL     1      -1.660  10.814  22.115  0.00  0.00    +0.000 HD
ATOM     23  H   UNL     1      -1.761  10.857  23.869  0.00  0.00    +0.000 HD
ENDBRANCH   8  19
BRANCH   1  25
ATOM     24  C   UNL     1       3.632   4.662  17.425  0.00  0.00    +0.000 C 
ATOM     25  C   UNL     1       3.021   5.603  18.091  0.00  0.00    +0.000 C 
BRANCH  24  27
ATOM     26  C   UNL     1       5.680   4.070  16.127  0.00  0.00    +0.000 C 
ATOM     27  C   UNL     1       4.344   3.567  16.649  0.00  0.00    +0.000 C 
BRANCH  27  28
ATOM     28  O   UNL     1       4.559   2.454  17.507  0.00  0.00    +0.000 OA
ATOM     29  H   UNL     1       4.016   1.721  17.166  0.00  0.00    +0.000 HD
ENDBRANCH  27  28
ENDBRANCH  24  27
ENDBRANCH   1  25
TORSDOF 5
ENDMDL
MODEL 2
REMARK VINA RESULT:      -5.9      2.431      6.354
REMARK  Name = 
REMARK  6 active torsions:
REMARK  status: ('A' for Active; 'I' for Inactive)
REMARK    1  A    between atoms: C_1  and  C_2
REMARK    2  A    between atoms: C_2  and  O_3
REMARK    3  A    between atoms: C_2  and  C_4
REMARK    4  A    between atoms: C_5  and  C_6
REMARK    5  A    between atoms: C_13  and  C_14
REMARK    6  A    between atoms: N_19  and  C_20
REMARK                            x       y       z     vdW  Elec       q    Type
REMARK                         _______ _______ _______ _____ _____    ______ ____
ROOT
ATOM      1  C   UNL     1       2.092   8.053  19.125  0.00  0.00    +0.000 A 
ATOM      2  C   UNL     1       2.827   7.249  18.270  0.00  0.00    +0.000 A 
ATOM      3 CL   UNL     1       3.461   7.733  16.757  0.00  0.00    +0.000 Cl
ATOM      4  C   UNL     1       2.945   5.955  18.854  0.00  0.00    +0.000 A 
ATOM      5  C   UNL     1       3.521   4.721  18.526  0.00  0.00    +0.000 A 
ATOM      6 CL   UNL     1       4.370   4.565  17.056  0.00  0.00    +0.000 Cl
ATOM      7  C   UNL     1       3.408   3.639  19.382  0.00  0.00    +0.000 A 
ATOM      8  C   UNL     1       2.709   3.830  20.555  0.00  0.00    +0.000 A 
ATOM      9  N   UNL     1       2.128   4.994  20.961  0.00  0.00    +0.000 NA
ATOM     10  C   UNL     1       2.274   6.022  20.081  0.00  0.00    +0.000 A 
ATOM     11  N   UNL     1       1.807   7.313  20.266  0.00  0.00    +0.000 N 
ENDROOT
BRANCH  11  12
ATOM     12  C   UNL     1       1.095   7.797  21.469  0.00  0.00    +0.000 C 
ATOM     13  C   UNL     1       1.736   9.079  22.034  0.00  0.00    +0.000 C 
ATOM     14  C   UNL     1       0.914   9.684  23.173  0.00  0.00    +0.000 C 
ATOM     15  C   UNL     1      -0.545   9.893  22.785  0.00  0.00    +0.000 C 
ATOM     16  N   UNL     1      -1.135   8.609  22.403  0.00  0.00    +0.000 NA
ATOM     17  C   UNL     1      -0.419   8.058  21.236  0.00  0.00    +0.000 C 
ATOM     18  H   UNL     1      -2.114   8.765  22.150  0.00  0.00    +0.000 HD
ENDBRANCH  11  12
BRANCH   8  19
ATOM     19  C   UNL     1       2.604   2.645  21.477  0.00  0.00    +0.000 C 
ATOM     20  N   UNL     1       1.394   2.408  22.049  0.00  0.00    +0.000 N 
ATOM     21  O   UNL     1       3.562   1.915  21.716  0.00  0.00    +0.000 OA
ATOM     22  H   UNL     1       0.599   3.007  21.847  0.00  0.00    +0.000 HD
ATOM     23  H   UNL     1       1.293   1.620  22.672  0.00  0.00    +0.000 HD
ENDBRANCH   8  19
BRANCH   1  25
ATOM     24  C   UNL     1       1.399  10.641  18.614  0.00  0.00    +0.000 C 
ATOM     25  C   UNL     1       1.713   9.395  18.838  0.00  0.00    +0.000 C 
BRANCH  24  27
ATOM     26  C   UNL     1       0.929  12.855  19.666  0.00  0.00    +0.000 C 
ATOM     27  C   UNL     1       1.031  12.092  18.354  0.00  0.00    +0.000 C 
BRANCH  27  28
ATOM     28  O   UNL     1       2.032  12.685  17.537  0.00  0.00    +0.000 OA
ATOM     29  H   UNL     1       2.545  13.287  18.105  0.00  0.00    +0.000 HD
ENDBRANCH  27  28
ENDBRANCH  24  27
ENDBRANCH   1  25
TORSDOF 5
ENDMDL
MODEL 3
REMARK VINA RESULT:      -5.8      6.710     10.466
REMARK  Name = 
REMARK  6 active torsions:
REMARK  status: ('A' for Active; 'I' for Inactive)
REMARK    1  A    between atoms: C_1  and  C_2
REMARK    2  A    between atoms: C_2  and  O_3
REMARK    3  A    between atoms: C_2  and  C_4
REMARK    4  A    between atoms: C_5  and  C_6
REMARK    5  A    between atoms: C_13  and  C_14
REMARK    6  A    between atoms: N_19  and  C_20
REMARK                            x       y       z     vdW  Elec       q    Type
REMARK                         _______ _______ _______ _____ _____    ______ ____
ROOT
ATOM      1  C   UNL     1      -2.656  12.704  21.451  0.00  0.00    +0.000 A 
ATOM      2  C   UNL     1      -1.541  11.958  21.109  0.00  0.00    +0.000 A 
ATOM      3 CL   UNL     1      -0.194  11.670  22.122  0.00  0.00    +0.000 Cl
ATOM      4  C   UNL     1      -1.699  11.495  19.772  0.00  0.00    +0.000 A 
ATOM      5  C   UNL     1      -0.970  10.737  18.846  0.00  0.00    +0.000 A 
ATOM      6 CL   UNL     1       0.546  10.104  19.302  0.00  0.00    +0.000 Cl
ATOM      7  C   UNL     1      -1.470  10.498  17.577  0.00  0.00    +0.000 A 
ATOM      8  C   UNL     1      -2.701  11.038  17.270  0.00  0.00    +0.000 A 
ATOM      9  N   UNL     1      -3.484  11.774  18.108  0.00  0.00    +0.000 NA
ATOM     10  C   UNL     1      -2.943  11.974  19.341  0.00  0.00    +0.000 A 
ATOM     11  N   UNL     1      -3.544  12.659  20.384  0.00  0.00    +0.000 N 
ENDROOT
BRANCH  11  12
ATOM     12  C   UNL     1      -4.892  13.266  20.339  0.00  0.00    +0.000 C 
ATOM     13  C   UNL     1      -5.867  12.560  21.301  0.00  0.00    +0.000 C 
ATOM     14  C   UNL     1      -7.214  13.279  21.391  0.00  0.00    +0.000 C 
ATOM     15  C   UNL     1      -7.057  14.761  21.713  0.00  0.00    +0.000 C 
ATOM     16  N   UNL     1      -6.246  15.400  20.677  0.00  0.00    +0.000 NA
ATOM     17  C   UNL     1      -4.903  14.789  20.647  0.00  0.00    +0.000 C 
ATOM     18  H   UNL     1      -6.153  16.394  20.905  0.00  0.00    +0.000 HD
ENDBRANCH  11  12
BRANCH   8  19
ATOM     19  C   UNL     1      -3.232  10.762  15.890  0.00  0.00    +0.000 C 
ATOM     20  N   UNL     1      -4.576  10.860  15.710  0.00  0.00    +0.000 N 
ATOM     21  O   UNL     1      -2.497  10.457  14.955  0.00  0.00    +0.000 OA
ATOM     22  H   UNL     1      -5.185  11.118  16.480  0.00  0.00    +0.000 HD
ATOM     23  H   UNL     1      -4.962  10.680  14.794  0.00  0.00    +0.000 HD
ENDBRANCH   8  19
BRANCH   1  25
ATOM     24  C   UNL     1      -2.922  13.981  23.847  0.00  0.00    +0.000 C 
ATOM     25  C   UNL     1      -2.817  13.385  22.692  0.00  0.00    +0.000 C 
BRANCH  24  27
ATOM     26  C   UNL     1      -1.756  15.408  25.531  0.00  0.00    +0.000 C 
ATOM     27  C   UNL     1      -3.045  14.674  25.193  0.00  0.00    +0.000 C 
BRANCH  27  28
ATOM     28  O   UNL     1      -4.119  15.603  25.141  0.00  0.00    +0.000 OA
ATOM     29  H   UNL     1      -4.678  15.352  24.384  0.00  0.00    +0.000 HD
ENDBRANCH  27  28
ENDBRANCH  24  27
ENDBRANCH   1  25
TORSDOF 5
ENDMDL
MODEL 4
REMARK VINA RESULT:      -5.7      7.141     10.112
REMARK  Name = 
REMARK  6 active torsions:
REMARK  status: ('A' for Active; 'I' for Inactive)
REMARK    1  A    between atoms: C_1  and  C_2
REMARK    2  A    between atoms: C_2  and  O_3
REMARK    3  A    between atoms: C_2  and  C_4
REMARK    4  A    between atoms: C_5  and  C_6
REMARK    5  A    between atoms: C_13  and  C_14
REMARK    6  A    between atoms: N_19  and  C_20
REMARK                            x       y       z     vdW  Elec       q    Type
REMARK                         _______ _______ _______ _____ _____    ______ ____
ROOT
ATOM      1  C   UNL     1      -3.591  13.095  21.166  0.00  0.00    +0.000 A 
ATOM      2  C   UNL     1      -4.846  12.880  20.622  0.00  0.00    +0.000 A 
ATOM      3 CL   UNL     1      -6.332  13.248  21.385  0.00  0.00    +0.000 Cl
ATOM      4  C   UNL     1      -4.687  12.286  19.337  0.00  0.00    +0.000 A 
ATOM      5  C   UNL     1      -5.510  11.819  18.305  0.00  0.00    +0.000 A 
ATOM      6 CL   UNL     1      -7.202  11.940  18.472  0.00  0.00    +0.000 Cl
ATOM      7  C   UNL     1      -4.963  11.267  17.159  0.00  0.00    +0.000 A 
ATOM      8  C   UNL     1      -3.587  11.197  17.085  0.00  0.00    +0.000 A 
ATOM      9  N   UNL     1      -2.711  11.637  18.031  0.00  0.00    +0.000 NA
ATOM     10  C   UNL     1      -3.307  12.171  19.133  0.00  0.00    +0.000 A 
ATOM     11  N   UNL     1      -2.646  12.715  20.222  0.00  0.00    +0.000 N 
ENDROOT
BRANCH  11  12
ATOM     12  C   UNL     1      -1.177  12.832  20.355  0.00  0.00    +0.000 C 
ATOM     13  C   UNL     1      -0.502  11.450  20.453  0.00  0.00    +0.000 C 
ATOM     14  C   UNL     1       1.024  11.547  20.421  0.00  0.00    +0.000 C 
ATOM     15  C   UNL     1       1.526  12.352  19.227  0.00  0.00    +0.000 C 
ATOM     16  N   UNL     1       0.966  13.701  19.281  0.00  0.00    +0.000 NA
ATOM     17  C   UNL     1      -0.507  13.634  19.205  0.00  0.00    +0.000 C 
ATOM     18  H   UNL     1       1.315  14.230  18.476  0.00  0.00    +0.000 HD
ENDBRANCH  11  12
BRANCH   8  19
ATOM     19  C   UNL     1      -3.010  10.602  15.829  0.00  0.00    +0.000 C 
ATOM     20  N   UNL     1      -1.974   9.735  15.972  0.00  0.00    +0.000 N 
ATOM     21  O   UNL     1      -3.444  10.881  14.714  0.00  0.00    +0.000 OA
ATOM     22  H   UNL     1      -1.618   9.499  16.894  0.00  0.00    +0.000 HD
ATOM     23  H   UNL     1      -1.565   9.319  15.147  0.00  0.00    +0.000 HD
ENDBRANCH   8  19
BRANCH   1  25
ATOM     24  C   UNL     1      -3.202  14.085  23.678  0.00  0.00    +0.000 C 
ATOM     25  C   UNL     1      -3.360  13.611  22.473  0.00  0.00    +0.000 C 
BRANCH  24  27
ATOM     26  C   UNL     1      -1.629  15.234  25.238  0.00  0.00    +0.000 C 
ATOM     27  C   UNL     1      -3.019  14.637  25.081  0.00  0.00    +0.000 C 
BRANCH  27  28
ATOM     28  O   UNL     1      -3.995  15.643  25.317  0.00  0.00    +0.000 OA
ATOM     29  H   UNL     1      -4.824  15.338  24.907  0.00  0.00    +0.000 HD
ENDBRANCH  27  28
ENDBRANCH  24  27
ENDBRANCH   1  25
TORSDOF 5
ENDMDL
MODEL 5
REMARK VINA RESULT:      -5.7      6.790      8.379
REMARK  Name = 
REMARK  6 active torsions:
REMARK  status: ('A' for Active; 'I' for Inactive)
REMARK    1  A    between atoms: C_1  and  C_2
REMARK    2  A    between atoms: C_2  and  O_3
REMARK    3  A    between atoms: C_2  and  C_4
REMARK    4  A    between atoms: C_5  and  C_6
REMARK    5  A    between atoms: C_13  and  C_14
REMARK    6  A    between atoms: N_19  and  C_20
REMARK                            x       y       z     vdW  Elec       q    Type
REMARK                         _______ _______ _______ _____ _____    ______ ____
ROOT
ATOM      1  C   UNL     1      -4.070  11.563  18.087  0.00  0.00    +0.000 A 
ATOM      2  C   UNL     1      -5.285  11.749  18.725  0.00  0.00    +0.000 A 
ATOM      3 CL   UNL     1      -6.821  11.441  18.040  0.00  0.00    +0.000 Cl
ATOM      4  C   UNL     1      -5.036  12.257  20.033  0.00  0.00    +0.000 A 
ATOM      5  C   UNL     1      -5.784  12.661  21.145  0.00  0.00    +0.000 A 
ATOM      6 CL   UNL     1      -7.485  12.561  21.083  0.00  0.00    +0.000 Cl
ATOM      7  C   UNL     1      -5.157  13.134  22.286  0.00  0.00    +0.000 A 
ATOM      8  C   UNL     1      -3.779  13.191  22.273  0.00  0.00    +0.000 A 
ATOM      9  N   UNL     1      -2.972  12.808  21.244  0.00  0.00    +0.000 NA
ATOM     10  C   UNL     1      -3.643  12.351  20.152  0.00  0.00    +0.000 A 
ATOM     11  N   UNL     1      -3.061  11.875  18.989  0.00  0.00    +0.000 N 
ENDROOT
BRANCH  11  12
ATOM     12  C   UNL     1      -1.606  11.758  18.751  0.00  0.00    +0.000 C 
ATOM     13  C   UNL     1      -0.909  13.132  18.796  0.00  0.00    +0.000 C 
ATOM     14  C   UNL     1       0.614  13.011  18.721  0.00  0.00    +0.000 C 
ATOM     15  C   UNL     1       1.169  12.048  19.764  0.00  0.00    +0.000 C 
ATOM     16  N   UNL     1       0.578  10.725  19.567  0.00  0.00    +0.000 NA
ATOM     17  C   UNL     1      -0.886  10.801  19.741  0.00  0.00    +0.000 C 
ATOM     18  H   UNL     1       0.964  10.089  20.272  0.00  0.00    +0.000 HD
ENDBRANCH  11  12
BRANCH   8  19
ATOM     19  C   UNL     1      -3.114  13.699  23.523  0.00  0.00    +0.000 C 
ATOM     20  N   UNL     1      -3.878  13.777  24.645  0.00  0.00    +0.000 N 
ATOM     21  O   UNL     1      -1.934  14.036  23.546  0.00  0.00    +0.000 OA
ATOM     22  H   UNL     1      -4.853  13.493  24.630  0.00  0.00    +0.000 HD
ATOM     23  H   UNL     1      -3.459  14.115  25.500  0.00  0.00    +0.000 HD
ENDBRANCH   8  19
BRANCH   1  25
ATOM     24  C   UNL     1      -3.848  10.765  15.487  0.00  0.00    +0.000 C 
ATOM     25  C   UNL     1      -3.932  11.131  16.737  0.00  0.00    +0.000 C 
BRANCH  24  27
ATOM     26  C   UNL     1      -2.530   9.458  13.819  0.00  0.00    +0.000 C 
ATOM     27  C   UNL     1      -3.752  10.337  14.033  0.00  0.00    +0.000 C 
BRANCH  27  28
ATOM     28  O   UNL     1      -4.924   9.612  13.683  0.00  0.00    +0.000 OA
ATOM     29  H   UNL     1      -4.636   8.730  13.387  0.00  0.00    +0.000 HD
ENDBRANCH  27  28
ENDBRANCH  24  27
ENDBRANCH   1  25
TORSDOF 5
ENDMDL
MODEL 6
REMARK VINA RESULT:      -5.6      7.871     10.434
REMARK  Name = 
REMARK  6 active torsions:
REMARK  status: ('A' for Active; 'I' for Inactive)
REMARK    1  A    between atoms: C_1  and  C_2
REMARK    2  A    between atoms: C_2  and  O_3
REMARK    3  A    between atoms: C_2  and  C_4
REMARK    4  A    between atoms: C_5  and  C_6
REMARK    5  A    between atoms: C_13  and  C_14
REMARK    6  A    between atoms: N_19  and  C_20
REMARK                            x       y       z     vdW  Elec       q    Type
REMARK                         _______ _______ _______ _____ _____    ______ ____
ROOT
ATOM      1  C   UNL     1      -3.645  13.119  21.345  0.00  0.00    +0.000 A 
ATOM      2  C   UNL     1      -4.879  12.684  20.890  0.00  0.00    +0.000 A 
ATOM      3 CL   UNL     1      -6.348  12.787  21.759  0.00  0.00    +0.000 Cl
ATOM      4  C   UNL     1      -4.710  12.123  19.591  0.00  0.00    +0.000 A 
ATOM      5  C   UNL     1      -5.509  11.514  18.616  0.00  0.00    +0.000 A 
ATOM      6 CL   UNL     1      -7.180  11.335  18.904  0.00  0.00    +0.000 Cl
ATOM      7  C   UNL     1      -4.957  11.063  17.429  0.00  0.00    +0.000 A 
ATOM      8  C   UNL     1      -3.599  11.236  17.257  0.00  0.00    +0.000 A 
ATOM      9  N   UNL     1      -2.749  11.827  18.143  0.00  0.00    +0.000 NA
ATOM     10  C   UNL     1      -3.349  12.252  19.288  0.00  0.00    +0.000 A 
ATOM     11  N   UNL     1      -2.718  12.908  20.333  0.00  0.00    +0.000 N 
ENDROOT
BRANCH  11  12
ATOM     12  C   UNL     1      -1.287  13.283  20.363  0.00  0.00    +0.000 C 
ATOM     13  C   UNL     1      -1.100  14.809  20.465  0.00  0.00    +0.000 C 
ATOM     14  C   UNL     1       0.365  15.200  20.666  0.00  0.00    +0.000 C 
ATOM     15  C   UNL     1       1.004  14.461  21.836  0.00  0.00    +0.000 C 
ATOM     16  N   UNL     1       0.926  13.020  21.601  0.00  0.00    +0.000 NA
ATOM     17  C   UNL     1      -0.487  12.605  21.509  0.00  0.00    +0.000 C 
ATOM     18  H   UNL     1       1.363  12.538  22.393  0.00  0.00    +0.000 HD
ENDBRANCH  11  12
BRANCH   8  19
ATOM     19  C   UNL     1      -3.017  10.748  15.958  0.00  0.00    +0.000 C 
ATOM     20  N   UNL     1      -2.002   9.847  16.031  0.00  0.00    +0.000 N 
ATOM     21  O   UNL     1      -3.428  11.139  14.869  0.00  0.00    +0.000 OA
ATOM     22  H   UNL     1      -1.665   9.517  16.932  0.00  0.00    +0.000 HD
ATOM     23  H   UNL     1      -1.592   9.501  15.176  0.00  0.00    +0.000 HD
ENDBRANCH   8  19
BRANCH   1  25
ATOM     24  C   UNL     1      -3.238  14.222  23.807  0.00  0.00    +0.000 C 
ATOM     25  C   UNL     1      -3.417  13.672  22.637  0.00  0.00    +0.000 C 
BRANCH  24  27
ATOM     26  C   UNL     1      -1.603  15.375  25.299  0.00  0.00    +0.000 C 
ATOM     27  C   UNL     1      -3.029  14.862  25.168  0.00  0.00    +0.000 C 
BRANCH  27  28
ATOM     28  O   UNL     1      -3.938  15.944  25.318  0.00  0.00    +0.000 OA
ATOM     29  H   UNL     1      -4.033  16.107  26.273  0.00  0.00    +0.000 HD
ENDBRANCH  27  28
ENDBRANCH  24  27
ENDBRANCH   1  25
TORSDOF 5
ENDMDL
MODEL 7
REMARK VINA RESULT:      -5.5      9.436     11.918
REMARK  Name = 
REMARK  6 active torsions:
REMARK  status: ('A' for Active; 'I' for Inactive)
REMARK    1  A    between atoms: C_1  and  C_2
REMARK    2  A    between atoms: C_2  and  O_3
REMARK    3  A    between atoms: C_2  and  C_4
REMARK    4  A    between atoms: C_5  and  C_6
REMARK    5  A    between atoms: C_13  and  C_14
REMARK    6  A    between atoms: N_19  and  C_20
REMARK                            x       y       z     vdW  Elec       q    Type
REMARK                         _______ _______ _______ _____ _____    ______ ____
ROOT
ATOM      1  C   UNL     1       8.315  12.947  21.513  0.00  0.00    +0.000 A 
ATOM      2  C   UNL     1       9.074  12.211  20.620  0.00  0.00    +0.000 A 
ATOM      3 CL   UNL     1       9.437  10.546  20.766  0.00  0.00    +0.000 Cl
ATOM      4  C   UNL     1       9.513  13.077  19.578  0.00  0.00    +0.000 A 
ATOM      5  C   UNL     1      10.293  12.987  18.417  0.00  0.00    +0.000 A 
ATOM      6 CL   UNL     1      10.963  11.481  17.982  0.00  0.00    +0.000 Cl
ATOM      7  C   UNL     1      10.519  14.102  17.629  0.00  0.00    +0.000 A 
ATOM      8  C   UNL     1       9.950  15.291  18.036  0.00  0.00    +0.000 A 
ATOM      9  N   UNL     1       9.169  15.469  19.139  0.00  0.00    +0.000 NA
ATOM     10  C   UNL     1       8.981  14.338  19.873  0.00  0.00    +0.000 A 
ATOM     11  N   UNL     1       8.208  14.240  21.018  0.00  0.00    +0.000 N 
ENDROOT
BRANCH  11  12
ATOM     12  C   UNL     1       7.433  15.348  21.619  0.00  0.00    +0.000 C 
ATOM     13  C   UNL     1       8.352  16.464  22.151  0.00  0.00    +0.000 C 
ATOM     14  C   UNL     1       7.565  17.688  22.620  0.00  0.00    +0.000 C 
ATOM     15  C   UNL     1       6.598  18.196  21.557  0.00  0.00    +0.000 C 
ATOM     16  N   UNL     1       5.657  17.132  21.208  0.00  0.00    +0.000 NA
ATOM     17  C   UNL     1       6.391  15.978  20.653  0.00  0.00    +0.000 C 
ATOM     18  H   UNL     1       5.012  17.489  20.497  0.00  0.00    +0.000 HD
ENDBRANCH  11  12
BRANCH   8  19
ATOM     19  C   UNL     1      10.199  16.491  17.162  0.00  0.00    +0.000 C 
ATOM     20  N   UNL     1      10.644  16.258  15.900  0.00  0.00    +0.000 N 
ATOM     21  O   UNL     1      10.015  17.638  17.560  0.00  0.00    +0.000 OA
ATOM     22  H   UNL     1      10.790  15.309  15.568  0.00  0.00    +0.000 HD
ATOM     23  H   UNL     1      10.820  17.044  15.290  0.00  0.00    +0.000 HD
ENDBRANCH   8  19
BRANCH   1  25
ATOM     24  C   UNL     1       7.312  11.956  23.848  0.00  0.00    +0.000 C 
ATOM     25  C   UNL     1       7.766  12.426  22.720  0.00  0.00    +0.000 C 
BRANCH  24  27
ATOM     26  C   UNL     1       7.067  12.381  26.295  0.00  0.00    +0.000 C 
ATOM     27  C   UNL     1       6.783  11.407  25.162  0.00  0.00    +0.000 C 
BRANCH  27  28
ATOM     28  O   UNL     1       5.380  11.205  25.051  0.00  0.00    +0.000 OA
ATOM     29  H   UNL     1       5.227  10.711  24.226  0.00  0.00    +0.000 HD
ENDBRANCH  27  28
ENDBRANCH  24  27
ENDBRANCH   1  25
TORSDOF 5
ENDMDL
MODEL 8
REMARK VINA RESULT:      -5.5      9.589     11.873
REMARK  Name = 
REMARK  6 active torsions:
REMARK  status: ('A' for Active; 'I' for Inactive)
REMARK    1  A    between atoms: C_1  and  C_2
REMARK    2  A    between atoms: C_2  and  O_3
REMARK    3  A    between atoms: C_2  and  C_4
REMARK    4  A    between atoms: C_5  and  C_6
REMARK    5  A    between atoms: C_13  and  C_14
REMARK    6  A    between atoms: N_19  and  C_20
REMARK                            x       y       z     vdW  Elec       q    Type
REMARK                         _______ _______ _______ _____ _____    ______ ____
ROOT
ATOM      1  C   UNL     1       8.662  12.959  21.547  0.00  0.00    +0.000 A 
ATOM      2  C   UNL     1       9.209  12.164  20.554  0.00  0.00    +0.000 A 
ATOM      3 CL   UNL     1       9.341  10.460  20.611  0.00  0.00    +0.000 Cl
ATOM      4  C   UNL     1       9.656  13.005  19.496  0.00  0.00    +0.000 A 
ATOM      5  C   UNL     1      10.289  12.859  18.254  0.00  0.00    +0.000 A 
ATOM      6 CL   UNL     1      10.685  11.294  17.704  0.00  0.00    +0.000 Cl
ATOM      7  C   UNL     1      10.589  13.965  17.479  0.00  0.00    +0.000 A 
ATOM      8  C   UNL     1      10.244  15.203  17.980  0.00  0.00    +0.000 A 
ATOM      9  N   UNL     1       9.618  15.439  19.167  0.00  0.00    +0.000 NA
ATOM     10  C   UNL     1       9.346  14.315  19.884  0.00  0.00    +0.000 A 
ATOM     11  N   UNL     1       8.691  14.275  21.105  0.00  0.00    +0.000 N 
ENDROOT
BRANCH  11  12
ATOM     12  C   UNL     1       8.151  15.453  21.819  0.00  0.00    +0.000 C 
ATOM     13  C   UNL     1       6.640  15.313  22.088  0.00  0.00    +0.000 C 
ATOM     14  C   UNL     1       6.103  16.440  22.971  0.00  0.00    +0.000 C 
ATOM     15  C   UNL     1       6.905  16.599  24.258  0.00  0.00    +0.000 C 
ATOM     16  N   UNL     1       8.302  16.880  23.927  0.00  0.00    +0.000 NA
ATOM     17  C   UNL     1       8.871  15.752  23.163  0.00  0.00    +0.000 C 
ATOM     18  H   UNL     1       8.827  16.988  24.800  0.00  0.00    +0.000 HD
ENDBRANCH  11  12
BRANCH   8  19
ATOM     19  C   UNL     1      10.570  16.393  17.120  0.00  0.00    +0.000 C 
ATOM     20  N   UNL     1      10.605  16.198  15.776  0.00  0.00    +0.000 N 
ATOM     21  O   UNL     1      10.801  17.501  17.597  0.00  0.00    +0.000 OA
ATOM     22  H   UNL     1      10.409  15.283  15.379  0.00  0.00    +0.000 HD
ATOM     23  H   UNL     1      10.822  16.978  15.172  0.00  0.00    +0.000 HD
ENDBRANCH   8  19
BRANCH   1  25
ATOM     24  C   UNL     1       7.699  12.062  23.937  0.00  0.00    +0.000 C 
ATOM     25  C   UNL     1       8.173  12.467  22.791  0.00  0.00    +0.000 C 
BRANCH  24  27
ATOM     26  C   UNL     1       6.719  12.780  26.117  0.00  0.00    +0.000 C 
ATOM     27  C   UNL     1       7.147  11.591  25.271  0.00  0.00    +0.000 C 
BRANCH  27  28
ATOM     28  O   UNL     1       6.026  10.748  25.039  0.00  0.00    +0.000 OA
ATOM     29  H   UNL     1       6.126  10.380  24.142  0.00  0.00    +0.000 HD
ENDBRANCH  27  28
ENDBRANCH  24  27
ENDBRANCH   1  25
TORSDOF 5
ENDMDL
MODEL 9
REMARK VINA RESULT:      -5.5      6.426      9.096
REMARK  Name = 
REMARK  6 active torsions:
REMARK  status: ('A' for Active; 'I' for Inactive)
REMARK    1  A    between atoms: C_1  and  C_2
REMARK    2  A    between atoms: C_2  and  O_3
REMARK    3  A    between atoms: C_2  and  C_4
REMARK    4  A    between atoms: C_5  and  C_6
REMARK    5  A    between atoms: C_13  and  C_14
REMARK    6  A    between atoms: N_19  and  C_20
REMARK                            x       y       z     vdW  Elec       q    Type
REMARK                         _______ _______ _______ _____ _____    ______ ____
ROOT
ATOM      1  C   UNL     1      -2.849  13.642  21.680  0.00  0.00    +0.000 A 
ATOM      2  C   UNL     1      -3.668  14.702  22.031  0.00  0.00    +0.000 A 
ATOM      3 CL   UNL     1      -5.067  15.196  21.181  0.00  0.00    +0.000 Cl
ATOM      4  C   UNL     1      -3.137  15.316  23.202  0.00  0.00    +0.000 A 
ATOM      5  C   UNL     1      -3.451  16.396  24.036  0.00  0.00    +0.000 A 
ATOM      6 CL   UNL     1      -4.838  17.329  23.701  0.00  0.00    +0.000 Cl
ATOM      7  C   UNL     1      -2.650  16.707  25.122  0.00  0.00    +0.000 A 
ATOM      8  C   UNL     1      -1.542  15.915  25.338  0.00  0.00    +0.000 A 
ATOM      9  N   UNL     1      -1.168  14.840  24.589  0.00  0.00    +0.000 NA
ATOM     10  C   UNL     1      -1.993  14.582  23.538  0.00  0.00    +0.000 A 
ATOM     11  N   UNL     1      -1.855  13.533  22.644  0.00  0.00    +0.000 N 
ENDROOT
BRANCH  11  12
ATOM     12  C   UNL     1      -0.799  12.499  22.701  0.00  0.00    +0.000 C 
ATOM     13  C   UNL     1      -1.380  11.108  23.021  0.00  0.00    +0.000 C 
ATOM     14  C   UNL     1      -0.327  10.003  22.917  0.00  0.00    +0.000 C 
ATOM     15  C   UNL     1       0.406  10.028  21.581  0.00  0.00    +0.000 C 
ATOM     16  N   UNL     1       1.061  11.324  21.410  0.00  0.00    +0.000 NA
ATOM     17  C   UNL     1       0.048  12.398  21.402  0.00  0.00    +0.000 C 
ATOM     18  H   UNL     1       1.552  11.324  20.512  0.00  0.00    +0.000 HD
ENDBRANCH  11  12
BRANCH   8  19
ATOM     19  C   UNL     1      -0.688  16.262  26.527  0.00  0.00    +0.000 C 
ATOM     20  N   UNL     1      -0.734  17.545  26.972  0.00  0.00    +0.000 N 
ATOM     21  O   UNL     1       0.028  15.433  27.083  0.00  0.00    +0.000 OA
ATOM     22  H   UNL     1      -1.330  18.231  26.517  0.00  0.00    +0.000 HD
ATOM     23  H   UNL     1      -0.171  17.809  27.769  0.00  0.00    +0.000 HD
ENDBRANCH   8  19
BRANCH   1  25
ATOM     24  C   UNL     1      -3.247  12.122  19.450  0.00  0.00    +0.000 C 
ATOM     25  C   UNL     1      -3.031  12.838  20.518  0.00  0.00    +0.000 C 
BRANCH  24  27
ATOM     26  C   UNL     1      -4.989  11.213  17.911  0.00  0.00    +0.000 C 
ATOM     27  C   UNL     1      -3.499  11.287  18.206  0.00  0.00    +0.000 C 
BRANCH  27  28
ATOM     28  O   UNL     1      -2.827  11.881  17.104  0.00  0.00    +0.000 OA
ATOM     29  H   UNL     1      -3.081  11.378  16.309  0.00  0.00    +0.000 HD
ENDBRANCH  27  28
ENDBRANCH  24  27
ENDBRANCH   1  25
TORSDOF 5
ENDMDL
