MODEL 1
REMARK VINA RESULT:      -8.3      0.000      0.000
REMARK  Name = 
REMARK  5 active torsions:
REMARK  status: ('A' for Active; 'I' for Inactive)
REMARK    1  A    between atoms: C_1  and  C_2
REMARK    2  A    between atoms: C_2  and  C_8
REMARK    3  A    between atoms: N_3  and  N_4
REMARK    4  A    between atoms: C_11  and  N_12
REMARK    5  A    between atoms: C_15  and  C_16
REMARK                            x       y       z     vdW  Elec       q    Type
REMARK                         _______ _______ _______ _____ _____    ______ ____
ROOT
ATOM      1  C   UNL     1       2.720   5.970  18.581  0.00  0.00    +0.000 A 
ATOM      2  C   UNL     1       2.682   7.316  18.196  0.00  0.00    +0.000 A 
ATOM      3  C   UNL     1       2.125   8.286  19.039  0.00  0.00    +0.000 A 
ATOM      4  C   UNL     1       1.578   7.942  20.282  0.00  0.00    +0.000 A 
ATOM      5  C   UNL     1       1.675   6.602  20.679  0.00  0.00    +0.000 A 
ATOM      6  C   UNL     1       2.226   5.625  19.841  0.00  0.00    +0.000 A 
ENDROOT
BRANCH   4   7
ATOM      7  N   UNL     1       0.927   8.939  21.038  0.00  0.00    +0.000 N 
ATOM      8  C   UNL     1       0.035   9.839  20.554  0.00  0.00    +0.000 A 
ATOM      9  N   UNL     1      -0.677   9.719  19.459  0.00  0.00    +0.000 NA
ATOM     10  C   UNL     1      -1.438  10.844  19.214  0.00  0.00    +0.000 A 
ATOM     11  C   UNL     1      -1.271  11.853  20.139  0.00  0.00    +0.000 A 
ATOM     12  S   UNL     1      -0.207  11.335  21.382  0.00  0.00    +0.000 S 
ATOM     13  H   UNL     1       1.420   9.211  21.878  0.00  0.00    +0.000 HD
BRANCH  10  14
ATOM     14  C   UNL     1      -2.321  10.890  18.057  0.00  0.00    +0.000 A 
ATOM     15  C   UNL     1      -3.532  11.592  18.078  0.00  0.00    +0.000 A 
ATOM     16  C   UNL     1      -4.391  11.558  16.976  0.00  0.00    +0.000 A 
ATOM     17  C   UNL     1      -4.048  10.823  15.842  0.00  0.00    +0.000 A 
ATOM     18  C   UNL     1      -2.842  10.128  15.802  0.00  0.00    +0.000 A 
ATOM     19  C   UNL     1      -1.984  10.161  16.903  0.00  0.00    +0.000 A 
ENDBRANCH  10  14
ENDBRANCH   4   7
BRANCH   1  21
ATOM     20  C   UNL     1       2.409   3.640  17.537  0.00  0.00    +0.000 C 
ATOM     21  C   UNL     1       3.257   4.890  17.674  0.00  0.00    +0.000 C 
ATOM     22  N   UNL     1       4.404   5.092  17.088  0.00  0.00    +0.000 NA
BRANCH  22  23
ATOM     23  N   UNL     1       4.932   4.129  16.281  0.00  0.00    +0.000 N 
ATOM     24  C   UNL     1       5.757   4.410  15.225  0.00  0.00    +0.000 C 
ATOM     25  N   UNL     1       5.965   5.730  14.997  0.00  0.00    +0.000 N 
ATOM     26  O   UNL     1       6.269   3.538  14.532  0.00  0.00    +0.000 OA
ATOM     27  H   UNL     1       4.788   3.144  16.454  0.00  0.00    +0.000 HD
ATOM     28  H   UNL     1       5.755   6.338  15.777  0.00  0.00    +0.000 HD
ATOM     29  H   UNL     1       6.695   5.975  14.347  0.00  0.00    +0.000 HD
ENDBRANCH  22  23
ENDBRANCH   1  21
TORSDOF 4
ENDMDL
MODEL 2
REMARK VINA RESULT:      -8.2      0.926      1.332
REMARK  Name = 
REMARK  5 active torsions:
REMARK  status: ('A' for Active; 'I' for Inactive)
REMARK    1  A    between atoms: C_1  and  C_2
REMARK    2  A    between atoms: C_2  and  C_8
REMARK    3  A    between atoms: N_3  and  N_4
REMARK    4  A    between atoms: C_11  and  N_12
REMARK    5  A    between atoms: C_15  and  C_16
REMARK                            x       y       z     vdW  Elec       q    Type
REMARK                         _______ _______ _______ _____ _____    ______ ____
ROOT
ATOM      1  C   UNL     1       2.966   6.303  18.726  0.00  0.00    +0.000 A 
ATOM      2  C   UNL     1       2.413   5.996  19.976  0.00  0.00    +0.000 A 
ATOM      3  C   UNL     1       1.665   6.949  20.680  0.00  0.00    +0.000 A 
ATOM      4  C   UNL     1       1.459   8.236  20.167  0.00  0.00    +0.000 A 
ATOM      5  C   UNL     1       1.968   8.509  18.891  0.00  0.00    +0.000 A 
ATOM      6  C   UNL     1       2.721   7.565  18.182  0.00  0.00    +0.000 A 
ENDROOT
BRANCH   4   7
ATOM      7  N   UNL     1       0.798   9.190  20.969  0.00  0.00    +0.000 N 
ATOM      8  C   UNL     1      -0.123  10.084  20.531  0.00  0.00    +0.000 A 
ATOM      9  N   UNL     1      -0.852   9.985  19.445  0.00  0.00    +0.000 NA
ATOM     10  C   UNL     1      -1.643  11.099  19.253  0.00  0.00    +0.000 A 
ATOM     11  C   UNL     1      -1.484  12.080  20.210  0.00  0.00    +0.000 A 
ATOM     12  S   UNL     1      -0.386  11.544  21.416  0.00  0.00    +0.000 S 
ATOM     13  H   UNL     1       1.299   9.445  21.809  0.00  0.00    +0.000 HD
BRANCH  10  14
ATOM     14  C   UNL     1      -2.547  11.164  18.113  0.00  0.00    +0.000 A 
ATOM     15  C   UNL     1      -3.869  11.608  18.242  0.00  0.00    +0.000 A 
ATOM     16  C   UNL     1      -4.734  11.590  17.144  0.00  0.00    +0.000 A 
ATOM     17  C   UNL     1      -4.285  11.131  15.905  0.00  0.00    +0.000 A 
ATOM     18  C   UNL     1      -2.970  10.697  15.760  0.00  0.00    +0.000 A 
ATOM     19  C   UNL     1      -2.107  10.713  16.857  0.00  0.00    +0.000 A 
ENDBRANCH  10  14
ENDBRANCH   4   7
BRANCH   1  21
ATOM     20  C   UNL     1       3.217   3.963  17.689  0.00  0.00    +0.000 C 
ATOM     21  C   UNL     1       3.827   5.323  17.967  0.00  0.00    +0.000 C 
ATOM     22  N   UNL     1       5.026   5.698  17.616  0.00  0.00    +0.000 NA
BRANCH  22  23
ATOM     23  N   UNL     1       5.841   4.832  16.951  0.00  0.00    +0.000 N 
ATOM     24  C   UNL     1       7.084   5.177  16.495  0.00  0.00    +0.000 C 
ATOM     25  N   UNL     1       7.428   6.472  16.700  0.00  0.00    +0.000 N 
ATOM     26  O   UNL     1       7.833   4.381  15.940  0.00  0.00    +0.000 OA
ATOM     27  H   UNL     1       5.592   3.863  16.806  0.00  0.00    +0.000 HD
ATOM     28  H   UNL     1       6.891   6.952  17.408  0.00  0.00    +0.000 HD
ATOM     29  H   UNL     1       8.392   6.723  16.539  0.00  0.00    +0.000 HD
ENDBRANCH  22  23
ENDBRANCH   1  21
TORSDOF 4
ENDMDL
MODEL 3
REMARK VINA RESULT:      -8.2      0.872      1.647
REMARK  Name = 
REMARK  5 active torsions:
REMARK  status: ('A' for Active; 'I' for Inactive)
REMARK    1  A    between atoms: C_1  and  C_2
REMARK    2  A    between atoms: C_2  and  C_8
REMARK    3  A    between atoms: N_3  and  N_4
REMARK    4  A    between atoms: C_11  and  N_12
REMARK    5  A    between atoms: C_15  and  C_16
REMARK                            x       y       z     vdW  Elec       q    Type
REMARK                         _______ _______ _______ _____ _____    ______ ____
ROOT
ATOM      1  C   UNL     1       3.325   6.291  18.529  0.00  0.00    +0.000 A 
ATOM      2  C   UNL     1       2.768   5.943  19.766  0.00  0.00    +0.000 A 
ATOM      3  C   UNL     1       1.952   6.843  20.462  0.00  0.00    +0.000 A 
ATOM      4  C   UNL     1       1.680   8.120  19.954  0.00  0.00    +0.000 A 
ATOM      5  C   UNL     1       2.196   8.433  18.690  0.00  0.00    +0.000 A 
ATOM      6  C   UNL     1       3.016   7.541  17.989  0.00  0.00    +0.000 A 
ENDROOT
BRANCH   4   7
ATOM      7  N   UNL     1       0.949   9.027  20.750  0.00  0.00    +0.000 N 
ATOM      8  C   UNL     1      -0.024   9.860  20.304  0.00  0.00    +0.000 A 
ATOM      9  N   UNL     1      -0.732   9.717  19.209  0.00  0.00    +0.000 NA
ATOM     10  C   UNL     1      -1.592  10.777  19.010  0.00  0.00    +0.000 A 
ATOM     11  C   UNL     1      -1.508  11.764  19.971  0.00  0.00    +0.000 A 
ATOM     12  S   UNL     1      -0.391  11.298  21.188  0.00  0.00    +0.000 S 
ATOM     13  H   UNL     1       1.423   9.312  21.597  0.00  0.00    +0.000 HD
BRANCH  10  14
ATOM     14  C   UNL     1      -2.485  10.786  17.860  0.00  0.00    +0.000 A 
ATOM     15  C   UNL     1      -2.161  10.130  16.666  0.00  0.00    +0.000 A 
ATOM     16  C   UNL     1      -3.007  10.218  15.556  0.00  0.00    +0.000 A 
ATOM     17  C   UNL     1      -4.184  10.961  15.629  0.00  0.00    +0.000 A 
ATOM     18  C   UNL     1      -4.525  11.610  16.813  0.00  0.00    +0.000 A 
ATOM     19  C   UNL     1      -3.680  11.524  17.921  0.00  0.00    +0.000 A 
ENDBRANCH  10  14
ENDBRANCH   4   7
BRANCH   1  21
ATOM     20  C   UNL     1       4.572   4.043  18.443  0.00  0.00    +0.000 C 
ATOM     21  C   UNL     1       4.256   5.370  17.779  0.00  0.00    +0.000 C 
ATOM     22  N   UNL     1       4.732   5.773  16.634  0.00  0.00    +0.000 NA
BRANCH  22  23
ATOM     23  N   UNL     1       5.595   4.979  15.940  0.00  0.00    +0.000 N 
ATOM     24  C   UNL     1       6.930   5.253  15.820  0.00  0.00    +0.000 C 
ATOM     25  N   UNL     1       7.329   6.415  16.393  0.00  0.00    +0.000 N 
ATOM     26  O   UNL     1       7.711   4.509  15.236  0.00  0.00    +0.000 OA
ATOM     27  H   UNL     1       5.303   4.107  15.520  0.00  0.00    +0.000 HD
ATOM     28  H   UNL     1       6.696   6.790  17.085  0.00  0.00    +0.000 HD
ATOM     29  H   UNL     1       8.321   6.568  16.479  0.00  0.00    +0.000 HD
ENDBRANCH  22  23
ENDBRANCH   1  21
TORSDOF 4
ENDMDL
MODEL 4
REMARK VINA RESULT:      -8.0      0.618      1.230
REMARK  Name = 
REMARK  5 active torsions:
REMARK  status: ('A' for Active; 'I' for Inactive)
REMARK    1  A    between atoms: C_1  and  C_2
REMARK    2  A    between atoms: C_2  and  C_8
REMARK    3  A    between atoms: N_3  and  N_4
REMARK    4  A    between atoms: C_11  and  N_12
REMARK    5  A    between atoms: C_15  and  C_16
REMARK                            x       y       z     vdW  Elec       q    Type
REMARK                         _______ _______ _______ _____ _____    ______ ____
ROOT
ATOM      1  C   UNL     1       3.184   6.189  18.896  0.00  0.00    +0.000 A 
ATOM      2  C   UNL     1       2.539   5.889  20.103  0.00  0.00    +0.000 A 
ATOM      3  C   UNL     1       1.719   6.836  20.731  0.00  0.00    +0.000 A 
ATOM      4  C   UNL     1       1.532   8.112  20.184  0.00  0.00    +0.000 A 
ATOM      5  C   UNL     1       2.136   8.378  18.948  0.00  0.00    +0.000 A 
ATOM      6  C   UNL     1       2.960   7.439  18.316  0.00  0.00    +0.000 A 
ENDROOT
BRANCH   4   7
ATOM      7  N   UNL     1       0.792   9.064  20.916  0.00  0.00    +0.000 N 
ATOM      8  C   UNL     1      -0.127   9.916  20.398  0.00  0.00    +0.000 A 
ATOM      9  N   UNL     1      -0.782   9.766  19.271  0.00  0.00    +0.000 NA
ATOM     10  C   UNL     1      -1.593  10.848  18.999  0.00  0.00    +0.000 A 
ATOM     11  C   UNL     1      -1.526  11.858  19.937  0.00  0.00    +0.000 A 
ATOM     12  S   UNL     1      -0.490  11.389  21.224  0.00  0.00    +0.000 S 
ATOM     13  H   UNL     1       1.230   9.357  21.779  0.00  0.00    +0.000 HD
BRANCH  10  14
ATOM     14  C   UNL     1      -2.425  10.855  17.804  0.00  0.00    +0.000 A 
ATOM     15  C   UNL     1      -3.648  11.536  17.757  0.00  0.00    +0.000 A 
ATOM     16  C   UNL     1      -4.457  11.463  16.620  0.00  0.00    +0.000 A 
ATOM     17  C   UNL     1      -4.052  10.711  15.517  0.00  0.00    +0.000 A 
ATOM     18  C   UNL     1      -2.834  10.037  15.545  0.00  0.00    +0.000 A 
ATOM     19  C   UNL     1      -2.026  10.108  16.682  0.00  0.00    +0.000 A 
ENDBRANCH  10  14
ENDBRANCH   4   7
BRANCH   1  21
ATOM     20  C   UNL     1       5.219   4.628  19.087  0.00  0.00    +0.000 C 
ATOM     21  C   UNL     1       4.120   5.216  18.223  0.00  0.00    +0.000 C 
ATOM     22  N   UNL     1       3.935   4.958  16.958  0.00  0.00    +0.000 NA
BRANCH  22  23
ATOM     23  N   UNL     1       4.775   4.102  16.310  0.00  0.00    +0.000 N 
ATOM     24  C   UNL     1       5.706   4.519  15.397  0.00  0.00    +0.000 C 
ATOM     25  N   UNL     1       5.693   5.848  15.134  0.00  0.00    +0.000 N 
ATOM     26  O   UNL     1       6.493   3.751  14.854  0.00  0.00    +0.000 OA
ATOM     27  H   UNL     1       4.795   3.112  16.512  0.00  0.00    +0.000 HD
ATOM     28  H   UNL     1       5.233   6.419  15.829  0.00  0.00    +0.000 HD
ATOM     29  H   UNL     1       6.467   6.220  14.606  0.00  0.00    +0.000 HD
ENDBRANCH  22  23
ENDBRANCH   1  21
TORSDOF 4
ENDMDL
MODEL 5
REMARK VINA RESULT:      -7.8      3.956      8.844
REMARK  Name = 
REMARK  5 active torsions:
REMARK  status: ('A' for Active; 'I' for Inactive)
REMARK    1  A    between atoms: C_1  and  C_2
REMARK    2  A    between atoms: C_2  and  C_8
REMARK    3  A    between atoms: N_3  and  N_4
REMARK    4  A    between atoms: C_11  and  N_12
REMARK    5  A    between atoms: C_15  and  C_16
REMARK                            x       y       z     vdW  Elec       q    Type
REMARK                         _______ _______ _______ _____ _____    ______ ____
ROOT
ATOM      1  C   UNL     1       0.892   9.708  19.225  0.00  0.00    +0.000 A 
ATOM      2  C   UNL     1       0.737   9.281  20.550  0.00  0.00    +0.000 A 
ATOM      3  C   UNL     1       1.304   8.076  20.985  0.00  0.00    +0.000 A 
ATOM      4  C   UNL     1       2.026   7.255  20.110  0.00  0.00    +0.000 A 
ATOM      5  C   UNL     1       2.222   7.722  18.804  0.00  0.00    +0.000 A 
ATOM      6  C   UNL     1       1.657   8.923  18.360  0.00  0.00    +0.000 A 
ENDROOT
BRANCH   4   7
ATOM      7  N   UNL     1       2.474   5.999  20.570  0.00  0.00    +0.000 N 
ATOM      8  C   UNL     1       3.197   5.107  19.847  0.00  0.00    +0.000 A 
ATOM      9  N   UNL     1       3.938   5.372  18.797  0.00  0.00    +0.000 NA
ATOM     10  C   UNL     1       4.488   4.230  18.254  0.00  0.00    +0.000 A 
ATOM     11  C   UNL     1       4.126   3.064  18.898  0.00  0.00    +0.000 A 
ATOM     12  S   UNL     1       3.152   3.431  20.262  0.00  0.00    +0.000 S 
ATOM     13  H   UNL     1       1.926   5.614  21.327  0.00  0.00    +0.000 HD
BRANCH  10  14
ATOM     14  C   UNL     1       5.368   4.322  17.097  0.00  0.00    +0.000 A 
ATOM     15  C   UNL     1       6.725   4.643  17.223  0.00  0.00    +0.000 A 
ATOM     16  C   UNL     1       7.526   4.796  16.088  0.00  0.00    +0.000 A 
ATOM     17  C   UNL     1       6.981   4.627  14.816  0.00  0.00    +0.000 A 
ATOM     18  C   UNL     1       5.636   4.297  14.676  0.00  0.00    +0.000 A 
ATOM     19  C   UNL     1       4.834   4.147  15.809  0.00  0.00    +0.000 A 
ENDBRANCH  10  14
ENDBRANCH   4   7
BRANCH   1  21
ATOM     20  C   UNL     1      -1.175  10.840  18.195  0.00  0.00    +0.000 C 
ATOM     21  C   UNL     1       0.247  10.970  18.707  0.00  0.00    +0.000 C 
ATOM     22  N   UNL     1       0.947  12.070  18.720  0.00  0.00    +0.000 NA
BRANCH  22  23
ATOM     23  N   UNL     1       0.406  13.224  18.237  0.00  0.00    +0.000 N 
ATOM     24  C   UNL     1       0.175  14.323  19.019  0.00  0.00    +0.000 C 
ATOM     25  N   UNL     1       0.467  14.163  20.333  0.00  0.00    +0.000 N 
ATOM     26  O   UNL     1      -0.267  15.376  18.571  0.00  0.00    +0.000 OA
ATOM     27  H   UNL     1       0.197  13.351  17.257  0.00  0.00    +0.000 HD
ATOM     28  H   UNL     1       1.087  13.393  20.543  0.00  0.00    +0.000 HD
ATOM     29  H   UNL     1       0.477  14.991  20.906  0.00  0.00    +0.000 HD
ENDBRANCH  22  23
ENDBRANCH   1  21
TORSDOF 4
ENDMDL
MODEL 6
REMARK VINA RESULT:      -7.7      1.093      1.898
REMARK  Name = 
REMARK  5 active torsions:
REMARK  status: ('A' for Active; 'I' for Inactive)
REMARK    1  A    between atoms: C_1  and  C_2
REMARK    2  A    between atoms: C_2  and  C_8
REMARK    3  A    between atoms: N_3  and  N_4
REMARK    4  A    between atoms: C_11  and  N_12
REMARK    5  A    between atoms: C_15  and  C_16
REMARK                            x       y       z     vdW  Elec       q    Type
REMARK                         _______ _______ _______ _____ _____    ______ ____
ROOT
ATOM      1  C   UNL     1       2.326   6.897  18.619  0.00  0.00    +0.000 A 
ATOM      2  C   UNL     1       2.004   6.859  19.982  0.00  0.00    +0.000 A 
ATOM      3  C   UNL     1       1.526   8.002  20.636  0.00  0.00    +0.000 A 
ATOM      4  C   UNL     1       1.370   9.217  19.957  0.00  0.00    +0.000 A 
ATOM      5  C   UNL     1       1.641   9.225  18.582  0.00  0.00    +0.000 A 
ATOM      6  C   UNL     1       2.122   8.088  17.921  0.00  0.00    +0.000 A 
ENDROOT
BRANCH   4   7
ATOM      7  N   UNL     1       0.998  10.363  20.690  0.00  0.00    +0.000 N 
ATOM      8  C   UNL     1      -0.041  11.184  20.395  0.00  0.00    +0.000 A 
ATOM      9  N   UNL     1      -1.094  10.881  19.674  0.00  0.00    +0.000 NA
ATOM     10  C   UNL     1      -1.933  11.963  19.508  0.00  0.00    +0.000 A 
ATOM     11  C   UNL     1      -1.482  13.126  20.099  0.00  0.00    +0.000 A 
ATOM     12  S   UNL     1      -0.024  12.819  20.951  0.00  0.00    +0.000 S 
ATOM     13  H   UNL     1       1.749  10.774  21.227  0.00  0.00    +0.000 HD
BRANCH  10  14
ATOM     14  C   UNL     1      -3.174  11.817  18.760  0.00  0.00    +0.000 A 
ATOM     15  C   UNL     1      -3.191  11.351  17.439  0.00  0.00    +0.000 A 
ATOM     16  C   UNL     1      -4.390  11.292  16.724  0.00  0.00    +0.000 A 
ATOM     17  C   UNL     1      -5.584  11.694  17.321  0.00  0.00    +0.000 A 
ATOM     18  C   UNL     1      -5.584  12.149  18.637  0.00  0.00    +0.000 A 
ATOM     19  C   UNL     1      -4.386  12.211  19.351  0.00  0.00    +0.000 A 
ENDBRANCH  10  14
ENDBRANCH   4   7
BRANCH   1  21
ATOM     20  C   UNL     1       2.047   4.447  17.887  0.00  0.00    +0.000 C 
ATOM     21  C   UNL     1       2.898   5.702  17.895  0.00  0.00    +0.000 C 
ATOM     22  N   UNL     1       4.075   5.820  17.345  0.00  0.00    +0.000 NA
BRANCH  22  23
ATOM     23  N   UNL     1       4.634   4.756  16.705  0.00  0.00    +0.000 N 
ATOM     24  C   UNL     1       5.483   4.888  15.639  0.00  0.00    +0.000 C 
ATOM     25  N   UNL     1       5.684   6.162  15.223  0.00  0.00    +0.000 N 
ATOM     26  O   UNL     1       6.023   3.929  15.097  0.00  0.00    +0.000 OA
ATOM     27  H   UNL     1       4.495   3.805  17.019  0.00  0.00    +0.000 HD
ATOM     28  H   UNL     1       5.447   6.876  15.897  0.00  0.00    +0.000 HD
ATOM     29  H   UNL     1       6.429   6.318  14.562  0.00  0.00    +0.000 HD
ENDBRANCH  22  23
ENDBRANCH   1  21
TORSDOF 4
ENDMDL
MODEL 7
REMARK VINA RESULT:      -7.7      4.067      8.651
REMARK  Name = 
REMARK  5 active torsions:
REMARK  status: ('A' for Active; 'I' for Inactive)
REMARK    1  A    between atoms: C_1  and  C_2
REMARK    2  A    between atoms: C_2  and  C_8
REMARK    3  A    between atoms: N_3  and  N_4
REMARK    4  A    between atoms: C_11  and  N_12
REMARK    5  A    between atoms: C_15  and  C_16
REMARK                            x       y       z     vdW  Elec       q    Type
REMARK                         _______ _______ _______ _____ _____    ______ ____
ROOT
ATOM      1  C   UNL     1       0.005  10.794  19.514  0.00  0.00    +0.000 A 
ATOM      2  C   UNL     1      -0.344  10.302  20.778  0.00  0.00    +0.000 A 
ATOM      3  C   UNL     1       0.230   9.122  21.270  0.00  0.00    +0.000 A 
ATOM      4  C   UNL     1       1.154   8.392  20.512  0.00  0.00    +0.000 A 
ATOM      5  C   UNL     1       1.537   8.927  19.274  0.00  0.00    +0.000 A 
ATOM      6  C   UNL     1       0.966  10.103  18.774  0.00  0.00    +0.000 A 
ENDROOT
BRANCH   4   7
ATOM      7  N   UNL     1       1.611   7.152  21.005  0.00  0.00    +0.000 N 
ATOM      8  C   UNL     1       2.241   6.198  20.276  0.00  0.00    +0.000 A 
ATOM      9  N   UNL     1       2.887   6.376  19.149  0.00  0.00    +0.000 NA
ATOM     10  C   UNL     1       3.354   5.187  18.629  0.00  0.00    +0.000 A 
ATOM     11  C   UNL     1       3.025   4.074  19.375  0.00  0.00    +0.000 A 
ATOM     12  S   UNL     1       2.192   4.551  20.798  0.00  0.00    +0.000 S 
ATOM     13  H   UNL     1       1.127   6.831  21.832  0.00  0.00    +0.000 HD
BRANCH  10  14
ATOM     14  C   UNL     1       4.124   5.183  17.393  0.00  0.00    +0.000 A 
ATOM     15  C   UNL     1       4.549   3.993  16.790  0.00  0.00    +0.000 A 
ATOM     16  C   UNL     1       5.348   4.025  15.643  0.00  0.00    +0.000 A 
ATOM     17  C   UNL     1       5.728   5.245  15.087  0.00  0.00    +0.000 A 
ATOM     18  C   UNL     1       5.304   6.437  15.669  0.00  0.00    +0.000 A 
ATOM     19  C   UNL     1       4.508   6.406  16.816  0.00  0.00    +0.000 A 
ENDBRANCH  10  14
ENDBRANCH   4   7
BRANCH   1  21
ATOM     20  C   UNL     1      -1.874  11.808  18.080  0.00  0.00    +0.000 C 
ATOM     21  C   UNL     1      -0.636  12.029  18.928  0.00  0.00    +0.000 C 
ATOM     22  N   UNL     1      -0.085  13.185  19.174  0.00  0.00    +0.000 NA
BRANCH  22  23
ATOM     23  N   UNL     1      -0.622  14.319  18.642  0.00  0.00    +0.000 N 
ATOM     24  C   UNL     1      -0.058  15.556  18.797  0.00  0.00    +0.000 C 
ATOM     25  N   UNL     1       1.051  15.584  19.576  0.00  0.00    +0.000 N 
ATOM     26  O   UNL     1      -0.517  16.566  18.275  0.00  0.00    +0.000 OA
ATOM     27  H   UNL     1      -1.443  14.300  18.052  0.00  0.00    +0.000 HD
ATOM     28  H   UNL     1       1.508  14.693  19.704  0.00  0.00    +0.000 HD
ATOM     29  H   UNL     1       1.593  16.435  19.574  0.00  0.00    +0.000 HD
ENDBRANCH  22  23
ENDBRANCH   1  21
TORSDOF 4
ENDMDL
MODEL 8
REMARK VINA RESULT:      -7.6      4.077      8.555
REMARK  Name = 
REMARK  5 active torsions:
REMARK  status: ('A' for Active; 'I' for Inactive)
REMARK    1  A    between atoms: C_1  and  C_2
REMARK    2  A    between atoms: C_2  and  C_8
REMARK    3  A    between atoms: N_3  and  N_4
REMARK    4  A    between atoms: C_11  and  N_12
REMARK    5  A    between atoms: C_15  and  C_16
REMARK                            x       y       z     vdW  Elec       q    Type
REMARK                         _______ _______ _______ _____ _____    ______ ____
ROOT
ATOM      1  C   UNL     1       1.209   9.856  19.423  0.00  0.00    +0.000 A 
ATOM      2  C   UNL     1       1.850   8.910  18.613  0.00  0.00    +0.000 A 
ATOM      3  C   UNL     1       2.105   7.616  19.087  0.00  0.00    +0.000 A 
ATOM      4  C   UNL     1       1.742   7.234  20.385  0.00  0.00    +0.000 A 
ATOM      5  C   UNL     1       1.050   8.171  21.163  0.00  0.00    +0.000 A 
ATOM      6  C   UNL     1       0.795   9.467  20.698  0.00  0.00    +0.000 A 
ENDROOT
BRANCH   4   7
ATOM      7  N   UNL     1       2.127   5.959  20.850  0.00  0.00    +0.000 N 
ATOM      8  C   UNL     1       2.876   5.062  20.162  0.00  0.00    +0.000 A 
ATOM      9  N   UNL     1       3.694   5.326  19.171  0.00  0.00    +0.000 NA
ATOM     10  C   UNL     1       4.252   4.180  18.645  0.00  0.00    +0.000 A 
ATOM     11  C   UNL     1       3.818   3.013  19.240  0.00  0.00    +0.000 A 
ATOM     12  S   UNL     1       2.761   3.381  20.542  0.00  0.00    +0.000 S 
ATOM     13  H   UNL     1       1.518   5.575  21.561  0.00  0.00    +0.000 HD
BRANCH  10  14
ATOM     14  C   UNL     1       5.211   4.270  17.553  0.00  0.00    +0.000 A 
ATOM     15  C   UNL     1       6.550   4.620  17.771  0.00  0.00    +0.000 A 
ATOM     16  C   UNL     1       7.428   4.769  16.694  0.00  0.00    +0.000 A 
ATOM     17  C   UNL     1       6.979   4.567  15.390  0.00  0.00    +0.000 A 
ATOM     18  C   UNL     1       5.654   4.208  15.158  0.00  0.00    +0.000 A 
ATOM     19  C   UNL     1       4.776   4.061  16.233  0.00  0.00    +0.000 A 
ENDBRANCH  10  14
ENDBRANCH   4   7
BRANCH   1  21
ATOM     20  C   UNL     1      -0.435  11.814  19.144  0.00  0.00    +0.000 C 
ATOM     21  C   UNL     1       0.971  11.275  18.967  0.00  0.00    +0.000 C 
ATOM     22  N   UNL     1       1.971  11.930  18.445  0.00  0.00    +0.000 NA
BRANCH  22  23
ATOM     23  N   UNL     1       1.788  13.205  18.000  0.00  0.00    +0.000 N 
ATOM     24  C   UNL     1       2.407  14.288  18.562  0.00  0.00    +0.000 C 
ATOM     25  N   UNL     1       3.176  14.009  19.643  0.00  0.00    +0.000 N 
ATOM     26  O   UNL     1       2.279  15.427  18.127  0.00  0.00    +0.000 OA
ATOM     27  H   UNL     1       1.225  13.415  17.188  0.00  0.00    +0.000 HD
ATOM     28  H   UNL     1       3.452  13.041  19.735  0.00  0.00    +0.000 HD
ATOM     29  H   UNL     1       3.782  14.742  19.978  0.00  0.00    +0.000 HD
ENDBRANCH  22  23
ENDBRANCH   1  21
TORSDOF 4
ENDMDL
MODEL 9
REMARK VINA RESULT:      -7.6      3.204      4.115
REMARK  Name = 
REMARK  5 active torsions:
REMARK  status: ('A' for Active; 'I' for Inactive)
REMARK    1  A    between atoms: C_1  and  C_2
REMARK    2  A    between atoms: C_2  and  C_8
REMARK    3  A    between atoms: N_3  and  N_4
REMARK    4  A    between atoms: C_11  and  N_12
REMARK    5  A    between atoms: C_15  and  C_16
REMARK                            x       y       z     vdW  Elec       q    Type
REMARK                         _______ _______ _______ _____ _____    ______ ____
ROOT
ATOM      1  C   UNL     1       2.857   7.063  18.487  0.00  0.00    +0.000 A 
ATOM      2  C   UNL     1       2.438   8.188  17.764  0.00  0.00    +0.000 A 
ATOM      3  C   UNL     1       1.608   9.149  18.354  0.00  0.00    +0.000 A 
ATOM      4  C   UNL     1       1.159   9.011  19.674  0.00  0.00    +0.000 A 
ATOM      5  C   UNL     1       1.632   7.912  20.403  0.00  0.00    +0.000 A 
ATOM      6  C   UNL     1       2.459   6.944  19.820  0.00  0.00    +0.000 A 
ENDROOT
BRANCH   4   7
ATOM      7  N   UNL     1       0.232   9.946  20.179  0.00  0.00    +0.000 N 
ATOM      8  C   UNL     1       0.416  11.289  20.228  0.00  0.00    +0.000 A 
ATOM      9  N   UNL     1       1.245  11.991  19.493  0.00  0.00    +0.000 NA
ATOM     10  C   UNL     1       1.238  13.326  19.840  0.00  0.00    +0.000 A 
ATOM     11  C   UNL     1       0.397  13.634  20.890  0.00  0.00    +0.000 A 
ATOM     12  S   UNL     1      -0.461  12.231  21.381  0.00  0.00    +0.000 S 
ATOM     13  H   UNL     1      -0.422   9.564  20.848  0.00  0.00    +0.000 HD
BRANCH  10  14
ATOM     14  C   UNL     1       2.073  14.273  19.115  0.00  0.00    +0.000 A 
ATOM     15  C   UNL     1       1.672  15.596  18.895  0.00  0.00    +0.000 A 
ATOM     16  C   UNL     1       2.463  16.461  18.133  0.00  0.00    +0.000 A 
ATOM     17  C   UNL     1       3.665  16.012  17.586  0.00  0.00    +0.000 A 
ATOM     18  C   UNL     1       4.082  14.702  17.805  0.00  0.00    +0.000 A 
ATOM     19  C   UNL     1       3.291  13.838  18.565  0.00  0.00    +0.000 A 
ENDBRANCH  10  14
ENDBRANCH   4   7
BRANCH   1  21
ATOM     20  C   UNL     1       3.008   4.659  17.586  0.00  0.00    +0.000 C 
ATOM     21  C   UNL     1       3.703   5.978  17.866  0.00  0.00    +0.000 C 
ATOM     22  N   UNL     1       4.958   6.236  17.627  0.00  0.00    +0.000 NA
BRANCH  22  23
ATOM     23  N   UNL     1       5.758   5.273  17.089  0.00  0.00    +0.000 N 
ATOM     24  C   UNL     1       7.041   5.513  16.676  0.00  0.00    +0.000 C 
ATOM     25  N   UNL     1       7.444   6.803  16.784  0.00  0.00    +0.000 N 
ATOM     26  O   UNL     1       7.774   4.633  16.239  0.00  0.00    +0.000 OA
ATOM     27  H   UNL     1       5.465   4.309  17.017  0.00  0.00    +0.000 HD
ATOM     28  H   UNL     1       6.898   7.371  17.415  0.00  0.00    +0.000 HD
ATOM     29  H   UNL     1       8.427   6.990  16.658  0.00  0.00    +0.000 HD
ENDBRANCH  22  23
ENDBRANCH   1  21
TORSDOF 4
ENDMDL
