MODEL 1
REMARK VINA RESULT:      -7.1      0.000      0.000
REMARK  Name = 
REMARK  6 active torsions:
REMARK  status: ('A' for Active; 'I' for Inactive)
REMARK    1  A    between atoms: C_1  and  N_2
REMARK    2  A    between atoms: C_4  and  C_5
REMARK    3  A    between atoms: C_5  and  N_6
REMARK    4  A    between atoms: C_9  and  O_10
REMARK    5  A    between atoms: C_11  and  C_12
REMARK    6  A    between atoms: C_12  and  C_13
REMARK                            x       y       z     vdW  Elec       q    Type
REMARK                         _______ _______ _______ _____ _____    ______ ____
ROOT
ATOM      1  N   UNL     1       4.089   3.898  18.830  0.00  0.00    +0.000 NA
ATOM      2  C   UNL     1       3.789   2.540  19.310  0.00  0.00    +0.000 C 
ATOM      3  C   UNL     1       2.369   2.621  19.823  0.00  0.00    +0.000 C 
ATOM      4  C   UNL     1       2.349   3.976  20.493  0.00  0.00    +0.000 C 
ATOM      5  C   UNL     1       3.214   4.863  19.562  0.00  0.00    +0.000 C 
ENDROOT
BRANCH   4   6
ATOM      6  O   UNL     1       1.022   4.372  20.767  0.00  0.00    +0.000 OA
ATOM      7  H   UNL     1       0.493   3.585  20.982  0.00  0.00    +0.000 HD
ENDBRANCH   4   6
BRANCH   1   8
ATOM      8  C   UNL     1       5.513   4.228  18.927  0.00  0.00    +0.000 C 
BRANCH   8  12
ATOM      9  C   UNL     1       6.445   4.050  13.986  0.00  0.00    +0.000 C 
ATOM     10  N   UNL     1       6.529   4.295  15.406  0.00  0.00    +0.000 N 
ATOM     11  C   UNL     1       5.535   4.154  16.332  0.00  0.00    +0.000 A 
ATOM     12  C   UNL     1       6.118   4.366  17.569  0.00  0.00    +0.000 A 
ATOM     13  C   UNL     1       7.462   4.682  17.252  0.00  0.00    +0.000 A 
ATOM     14  N   UNL     1       7.711   4.641  15.943  0.00  0.00    +0.000 NA
ENDBRANCH   8  12
ENDBRANCH   1   8
BRANCH   5  15
ATOM     15  C   UNL     1       2.465   5.691  18.486  0.00  0.00    +0.000 C 
BRANCH  15  16
ATOM     16  C   UNL     1       2.121   7.134  18.789  0.00  0.00    +0.000 A 
ATOM     17  C   UNL     1       1.751   7.578  20.065  0.00  0.00    +0.000 A 
ATOM     18  C   UNL     1       1.349   8.901  20.266  0.00  0.00    +0.000 A 
ATOM     19  C   UNL     1       1.346   9.805  19.206  0.00  0.00    +0.000 A 
ATOM     20  C   UNL     1       1.769   9.393  17.945  0.00  0.00    +0.000 A 
ATOM     21  C   UNL     1       2.163   8.070  17.741  0.00  0.00    +0.000 A 
ENDBRANCH  15  16
ENDBRANCH   5  15
TORSDOF 5
ENDMDL
MODEL 2
REMARK VINA RESULT:      -6.9      2.555      5.495
REMARK  Name = 
REMARK  6 active torsions:
REMARK  status: ('A' for Active; 'I' for Inactive)
REMARK    1  A    between atoms: C_1  and  N_2
REMARK    2  A    between atoms: C_4  and  C_5
REMARK    3  A    between atoms: C_5  and  N_6
REMARK    4  A    between atoms: C_9  and  O_10
REMARK    5  A    between atoms: C_11  and  C_12
REMARK    6  A    between atoms: C_12  and  C_13
REMARK                            x       y       z     vdW  Elec       q    Type
REMARK                         _______ _______ _______ _____ _____    ______ ____
ROOT
ATOM      1  N   UNL     1       2.706   4.211  18.745  0.00  0.00    +0.000 NA
ATOM      2  C   UNL     1       1.604   3.288  19.058  0.00  0.00    +0.000 C 
ATOM      3  C   UNL     1       2.274   1.948  19.260  0.00  0.00    +0.000 C 
ATOM      4  C   UNL     1       3.334   1.956  18.182  0.00  0.00    +0.000 C 
ATOM      5  C   UNL     1       3.834   3.423  18.165  0.00  0.00    +0.000 C 
ENDROOT
BRANCH   4   6
ATOM      6  O   UNL     1       4.270   0.923  18.401  0.00  0.00    +0.000 OA
ATOM      7  H   UNL     1       4.922   1.219  19.060  0.00  0.00    +0.000 HD
ENDBRANCH   4   6
BRANCH   1   8
ATOM      8  C   UNL     1       2.284   5.323  17.889  0.00  0.00    +0.000 C 
BRANCH   8  12
ATOM      9  C   UNL     1       1.348   8.691  21.508  0.00  0.00    +0.000 C 
ATOM     10  N   UNL     1       1.726   8.055  20.269  0.00  0.00    +0.000 N 
ATOM     11  C   UNL     1       1.914   6.720  20.046  0.00  0.00    +0.000 A 
ATOM     12  C   UNL     1       2.130   6.576  18.687  0.00  0.00    +0.000 A 
ATOM     13  C   UNL     1       2.104   7.908  18.204  0.00  0.00    +0.000 A 
ATOM     14  N   UNL     1       1.861   8.803  19.161  0.00  0.00    +0.000 NA
ENDBRANCH   8  12
ENDBRANCH   1   8
BRANCH   5  15
ATOM     15  C   UNL     1       5.090   3.747  19.015  0.00  0.00    +0.000 C 
BRANCH  15  16
ATOM     16  C   UNL     1       6.018   4.849  18.549  0.00  0.00    +0.000 A 
ATOM     17  C   UNL     1       7.096   5.311  19.313  0.00  0.00    +0.000 A 
ATOM     18  C   UNL     1       7.860   6.397  18.877  0.00  0.00    +0.000 A 
ATOM     19  C   UNL     1       7.579   7.011  17.658  0.00  0.00    +0.000 A 
ATOM     20  C   UNL     1       6.549   6.523  16.860  0.00  0.00    +0.000 A 
ATOM     21  C   UNL     1       5.780   5.444  17.298  0.00  0.00    +0.000 A 
ENDBRANCH  15  16
ENDBRANCH   5  15
TORSDOF 5
ENDMDL
MODEL 3
REMARK VINA RESULT:      -6.8      2.753      5.714
REMARK  Name = 
REMARK  6 active torsions:
REMARK  status: ('A' for Active; 'I' for Inactive)
REMARK    1  A    between atoms: C_1  and  N_2
REMARK    2  A    between atoms: C_4  and  C_5
REMARK    3  A    between atoms: C_5  and  N_6
REMARK    4  A    between atoms: C_9  and  O_10
REMARK    5  A    between atoms: C_11  and  C_12
REMARK    6  A    between atoms: C_12  and  C_13
REMARK                            x       y       z     vdW  Elec       q    Type
REMARK                         _______ _______ _______ _____ _____    ______ ____
ROOT
ATOM      1  N   UNL     1       4.467   5.760  16.904  0.00  0.00    +0.000 NA
ATOM      2  C   UNL     1       5.184   6.268  15.724  0.00  0.00    +0.000 C 
ATOM      3  C   UNL     1       5.529   5.031  14.926  0.00  0.00    +0.000 C 
ATOM      4  C   UNL     1       5.902   4.045  16.010  0.00  0.00    +0.000 C 
ATOM      5  C   UNL     1       4.897   4.350  17.149  0.00  0.00    +0.000 C 
ENDROOT
BRANCH   4   6
ATOM      6  O   UNL     1       5.959   2.735  15.489  0.00  0.00    +0.000 OA
ATOM      7  H   UNL     1       5.931   2.099  16.225  0.00  0.00    +0.000 HD
ENDBRANCH   4   6
BRANCH   1   8
ATOM      8  C   UNL     1       4.632   6.622  18.078  0.00  0.00    +0.000 C 
BRANCH   8  12
ATOM      9  C   UNL     1       0.752   9.817  18.311  0.00  0.00    +0.000 C 
ATOM     10  N   UNL     1       1.646   8.702  18.516  0.00  0.00    +0.000 N 
ATOM     11  C   UNL     1       2.725   8.354  17.754  0.00  0.00    +0.000 A 
ATOM     12  C   UNL     1       3.350   7.310  18.413  0.00  0.00    +0.000 A 
ATOM     13  C   UNL     1       2.518   7.081  19.537  0.00  0.00    +0.000 A 
ATOM     14  N   UNL     1       1.486   7.923  19.599  0.00  0.00    +0.000 NA
ENDBRANCH   8  12
ENDBRANCH   1   8
BRANCH   5  15
ATOM     15  C   UNL     1       3.606   3.492  17.196  0.00  0.00    +0.000 C 
BRANCH  15  16
ATOM     16  C   UNL     1       2.850   3.389  18.504  0.00  0.00    +0.000 A 
ATOM     17  C   UNL     1       3.478   3.147  19.732  0.00  0.00    +0.000 A 
ATOM     18  C   UNL     1       2.721   2.964  20.891  0.00  0.00    +0.000 A 
ATOM     19  C   UNL     1       1.332   3.055  20.847  0.00  0.00    +0.000 A 
ATOM     20  C   UNL     1       0.697   3.355  19.646  0.00  0.00    +0.000 A 
ATOM     21  C   UNL     1       1.451   3.530  18.484  0.00  0.00    +0.000 A 
ENDBRANCH  15  16
ENDBRANCH   5  15
TORSDOF 5
ENDMDL
MODEL 4
REMARK VINA RESULT:      -6.8      2.745      5.761
REMARK  Name = 
REMARK  6 active torsions:
REMARK  status: ('A' for Active; 'I' for Inactive)
REMARK    1  A    between atoms: C_1  and  N_2
REMARK    2  A    between atoms: C_4  and  C_5
REMARK    3  A    between atoms: C_5  and  N_6
REMARK    4  A    between atoms: C_9  and  O_10
REMARK    5  A    between atoms: C_11  and  C_12
REMARK    6  A    between atoms: C_12  and  C_13
REMARK                            x       y       z     vdW  Elec       q    Type
REMARK                         _______ _______ _______ _____ _____    ______ ____
ROOT
ATOM      1  N   UNL     1       4.410   5.668  17.178  0.00  0.00    +0.000 NA
ATOM      2  C   UNL     1       5.065   6.332  16.040  0.00  0.00    +0.000 C 
ATOM      3  C   UNL     1       5.511   5.200  15.143  0.00  0.00    +0.000 C 
ATOM      4  C   UNL     1       5.984   4.168  16.142  0.00  0.00    +0.000 C 
ATOM      5  C   UNL     1       4.968   4.288  17.306  0.00  0.00    +0.000 C 
ENDROOT
BRANCH   4   6
ATOM      6  O   UNL     1       6.153   2.915  15.516  0.00  0.00    +0.000 OA
ATOM      7  H   UNL     1       6.276   3.050  14.561  0.00  0.00    +0.000 HD
ENDBRANCH   4   6
BRANCH   1   8
ATOM      8  C   UNL     1       4.509   6.444  18.417  0.00  0.00    +0.000 C 
BRANCH   8  12
ATOM      9  C   UNL     1       0.804   9.844  18.246  0.00  0.00    +0.000 C 
ATOM     10  N   UNL     1       1.632   8.709  18.579  0.00  0.00    +0.000 N 
ATOM     11  C   UNL     1       2.706   8.233  17.882  0.00  0.00    +0.000 A 
ATOM     12  C   UNL     1       3.259   7.227  18.652  0.00  0.00    +0.000 A 
ATOM     13  C   UNL     1       2.393   7.150  19.771  0.00  0.00    +0.000 A 
ATOM     14  N   UNL     1       1.407   8.046  19.727  0.00  0.00    +0.000 NA
ENDBRANCH   8  12
ENDBRANCH   1   8
BRANCH   5  15
ATOM     15  C   UNL     1       3.760   3.315  17.288  0.00  0.00    +0.000 C 
BRANCH  15  16
ATOM     16  C   UNL     1       2.872   3.237  18.512  0.00  0.00    +0.000 A 
ATOM     17  C   UNL     1       1.506   3.544  18.483  0.00  0.00    +0.000 A 
ATOM     18  C   UNL     1       0.756   3.550  19.662  0.00  0.00    +0.000 A 
ATOM     19  C   UNL     1       1.351   3.216  20.877  0.00  0.00    +0.000 A 
ATOM     20  C   UNL     1       2.694   2.850  20.911  0.00  0.00    +0.000 A 
ATOM     21  C   UNL     1       3.446   2.851  19.736  0.00  0.00    +0.000 A 
ENDBRANCH  15  16
ENDBRANCH   5  15
TORSDOF 5
ENDMDL
MODEL 5
REMARK VINA RESULT:      -6.8      0.414      1.153
REMARK  Name = 
REMARK  6 active torsions:
REMARK  status: ('A' for Active; 'I' for Inactive)
REMARK    1  A    between atoms: C_1  and  N_2
REMARK    2  A    between atoms: C_4  and  C_5
REMARK    3  A    between atoms: C_5  and  N_6
REMARK    4  A    between atoms: C_9  and  O_10
REMARK    5  A    between atoms: C_11  and  C_12
REMARK    6  A    between atoms: C_12  and  C_13
REMARK                            x       y       z     vdW  Elec       q    Type
REMARK                         _______ _______ _______ _____ _____    ______ ____
ROOT
ATOM      1  N   UNL     1       4.245   4.042  18.740  0.00  0.00    +0.000 NA
ATOM      2  C   UNL     1       4.093   2.666  19.241  0.00  0.00    +0.000 C 
ATOM      3  C   UNL     1       2.698   2.624  19.822  0.00  0.00    +0.000 C 
ATOM      4  C   UNL     1       2.588   3.978  20.486  0.00  0.00    +0.000 C 
ATOM      5  C   UNL     1       3.323   4.930  19.509  0.00  0.00    +0.000 C 
ENDROOT
BRANCH   4   6
ATOM      6  O   UNL     1       1.246   4.256  20.822  0.00  0.00    +0.000 OA
ATOM      7  H   UNL     1       0.663   3.649  20.333  0.00  0.00    +0.000 HD
ENDBRANCH   4   6
BRANCH   1   8
ATOM      8  C   UNL     1       5.637   4.500  18.766  0.00  0.00    +0.000 C 
BRANCH   8  12
ATOM      9  C   UNL     1       6.650   4.273  13.843  0.00  0.00    +0.000 C 
ATOM     10  N   UNL     1       6.574   4.676  15.227  0.00  0.00    +0.000 N 
ATOM     11  C   UNL     1       5.750   4.173  16.193  0.00  0.00    +0.000 A 
ATOM     12  C   UNL     1       6.131   4.768  17.382  0.00  0.00    +0.000 A 
ATOM     13  C   UNL     1       7.164   5.656  16.993  0.00  0.00    +0.000 A 
ATOM     14  N   UNL     1       7.432   5.602  15.688  0.00  0.00    +0.000 NA
ENDBRANCH   8  12
ENDBRANCH   1   8
BRANCH   5  15
ATOM     15  C   UNL     1       2.451   5.678  18.467  0.00  0.00    +0.000 C 
BRANCH  15  16
ATOM     16  C   UNL     1       2.051   7.111  18.748  0.00  0.00    +0.000 A 
ATOM     17  C   UNL     1       2.006   8.098  17.756  0.00  0.00    +0.000 A 
ATOM     18  C   UNL     1       1.726   9.426  18.090  0.00  0.00    +0.000 A 
ATOM     19  C   UNL     1       1.454   9.777  19.410  0.00  0.00    +0.000 A 
ATOM     20  C   UNL     1       1.435   8.796  20.397  0.00  0.00    +0.000 A 
ATOM     21  C   UNL     1       1.723   7.471  20.066  0.00  0.00    +0.000 A 
ENDBRANCH  15  16
ENDBRANCH   5  15
TORSDOF 5
ENDMDL
MODEL 6
REMARK VINA RESULT:      -6.8      1.282      1.772
REMARK  Name = 
REMARK  6 active torsions:
REMARK  status: ('A' for Active; 'I' for Inactive)
REMARK    1  A    between atoms: C_1  and  N_2
REMARK    2  A    between atoms: C_4  and  C_5
REMARK    3  A    between atoms: C_5  and  N_6
REMARK    4  A    between atoms: C_9  and  O_10
REMARK    5  A    between atoms: C_11  and  C_12
REMARK    6  A    between atoms: C_12  and  C_13
REMARK                            x       y       z     vdW  Elec       q    Type
REMARK                         _______ _______ _______ _____ _____    ______ ____
ROOT
ATOM      1  N   UNL     1       3.925   3.502  18.678  0.00  0.00    +0.000 NA
ATOM      2  C   UNL     1       3.508   2.096  18.799  0.00  0.00    +0.000 C 
ATOM      3  C   UNL     1       2.017   2.159  19.040  0.00  0.00    +0.000 C 
ATOM      4  C   UNL     1       1.893   3.351  19.961  0.00  0.00    +0.000 C 
ATOM      5  C   UNL     1       2.942   4.352  19.416  0.00  0.00    +0.000 C 
ENDROOT
BRANCH   4   6
ATOM      6  O   UNL     1       0.547   3.764  20.056  0.00  0.00    +0.000 OA
ATOM      7  H   UNL     1       0.076   3.176  20.672  0.00  0.00    +0.000 HD
ENDBRANCH   4   6
BRANCH   1   8
ATOM      8  C   UNL     1       5.308   3.719  19.109  0.00  0.00    +0.000 C 
BRANCH   8  12
ATOM      9  C   UNL     1       7.712   7.850  17.536  0.00  0.00    +0.000 C 
ATOM     10  N   UNL     1       7.013   6.588  17.593  0.00  0.00    +0.000 N 
ATOM     11  C   UNL     1       6.775   5.822  18.698  0.00  0.00    +0.000 A 
ATOM     12  C   UNL     1       5.957   4.784  18.287  0.00  0.00    +0.000 A 
ATOM     13  C   UNL     1       5.818   5.004  16.895  0.00  0.00    +0.000 A 
ATOM     14  N   UNL     1       6.458   6.094  16.474  0.00  0.00    +0.000 NA
ENDBRANCH   8  12
ENDBRANCH   1   8
BRANCH   5  15
ATOM     15  C   UNL     1       2.437   5.423  18.414  0.00  0.00    +0.000 C 
BRANCH  15  16
ATOM     16  C   UNL     1       2.097   6.803  18.936  0.00  0.00    +0.000 A 
ATOM     17  C   UNL     1       1.784   7.054  20.278  0.00  0.00    +0.000 A 
ATOM     18  C   UNL     1       1.382   8.329  20.684  0.00  0.00    +0.000 A 
ATOM     19  C   UNL     1       1.320   9.374  19.766  0.00  0.00    +0.000 A 
ATOM     20  C   UNL     1       1.685   9.153  18.441  0.00  0.00    +0.000 A 
ATOM     21  C   UNL     1       2.080   7.879  18.032  0.00  0.00    +0.000 A 
ENDBRANCH  15  16
ENDBRANCH   5  15
TORSDOF 5
ENDMDL
MODEL 7
REMARK VINA RESULT:      -6.7      1.481      2.227
REMARK  Name = 
REMARK  6 active torsions:
REMARK  status: ('A' for Active; 'I' for Inactive)
REMARK    1  A    between atoms: C_1  and  N_2
REMARK    2  A    between atoms: C_4  and  C_5
REMARK    3  A    between atoms: C_5  and  N_6
REMARK    4  A    between atoms: C_9  and  O_10
REMARK    5  A    between atoms: C_11  and  C_12
REMARK    6  A    between atoms: C_12  and  C_13
REMARK                            x       y       z     vdW  Elec       q    Type
REMARK                         _______ _______ _______ _____ _____    ______ ____
ROOT
ATOM      1  N   UNL     1       4.320   3.736  18.071  0.00  0.00    +0.000 NA
ATOM      2  C   UNL     1       3.924   2.326  17.926  0.00  0.00    +0.000 C 
ATOM      3  C   UNL     1       2.413   2.347  17.972  0.00  0.00    +0.000 C 
ATOM      4  C   UNL     1       2.141   3.387  19.035  0.00  0.00    +0.000 C 
ATOM      5  C   UNL     1       3.229   4.462  18.788  0.00  0.00    +0.000 C 
ENDROOT
BRANCH   4   6
ATOM      6  O   UNL     1       0.784   3.778  19.009  0.00  0.00    +0.000 OA
ATOM      7  H   UNL     1       0.239   3.055  19.364  0.00  0.00    +0.000 HD
ENDBRANCH   4   6
BRANCH   1   8
ATOM      8  C   UNL     1       5.629   3.891  18.711  0.00  0.00    +0.000 C 
BRANCH   8  12
ATOM      9  C   UNL     1       7.953   8.224  17.645  0.00  0.00    +0.000 C 
ATOM     10  N   UNL     1       7.433   6.878  17.591  0.00  0.00    +0.000 N 
ATOM     11  C   UNL     1       6.891   6.157  18.617  0.00  0.00    +0.000 A 
ATOM     12  C   UNL     1       6.409   4.985  18.061  0.00  0.00    +0.000 A 
ATOM     13  C   UNL     1       6.772   5.092  16.696  0.00  0.00    +0.000 A 
ATOM     14  N   UNL     1       7.392   6.237  16.411  0.00  0.00    +0.000 NA
ENDBRANCH   8  12
ENDBRANCH   1   8
BRANCH   5  15
ATOM     15  C   UNL     1       2.836   5.669  17.898  0.00  0.00    +0.000 C 
BRANCH  15  16
ATOM     16  C   UNL     1       2.264   6.905  18.560  0.00  0.00    +0.000 A 
ATOM     17  C   UNL     1       1.954   8.074  17.854  0.00  0.00    +0.000 A 
ATOM     18  C   UNL     1       1.522   9.217  18.531  0.00  0.00    +0.000 A 
ATOM     19  C   UNL     1       1.359   9.197  19.915  0.00  0.00    +0.000 A 
ATOM     20  C   UNL     1       1.605   8.024  20.622  0.00  0.00    +0.000 A 
ATOM     21  C   UNL     1       2.045   6.883  19.948  0.00  0.00    +0.000 A 
ENDBRANCH  15  16
ENDBRANCH   5  15
TORSDOF 5
ENDMDL
MODEL 8
REMARK VINA RESULT:      -6.7      3.117      6.636
REMARK  Name = 
REMARK  6 active torsions:
REMARK  status: ('A' for Active; 'I' for Inactive)
REMARK    1  A    between atoms: C_1  and  N_2
REMARK    2  A    between atoms: C_4  and  C_5
REMARK    3  A    between atoms: C_5  and  N_6
REMARK    4  A    between atoms: C_9  and  O_10
REMARK    5  A    between atoms: C_11  and  C_12
REMARK    6  A    between atoms: C_12  and  C_13
REMARK                            x       y       z     vdW  Elec       q    Type
REMARK                         _______ _______ _______ _____ _____    ______ ____
ROOT
ATOM      1  N   UNL     1       4.829   5.740  17.708  0.00  0.00    +0.000 NA
ATOM      2  C   UNL     1       5.327   5.772  19.092  0.00  0.00    +0.000 C 
ATOM      3  C   UNL     1       6.798   5.441  18.977  0.00  0.00    +0.000 C 
ATOM      4  C   UNL     1       6.801   4.373  17.907  0.00  0.00    +0.000 C 
ATOM      5  C   UNL     1       5.719   4.848  16.905  0.00  0.00    +0.000 C 
ENDROOT
BRANCH   4   6
ATOM      6  O   UNL     1       8.113   4.151  17.434  0.00  0.00    +0.000 OA
ATOM      7  H   UNL     1       8.468   3.346  17.848  0.00  0.00    +0.000 HD
ENDBRANCH   4   6
BRANCH   1   8
ATOM      8  C   UNL     1       3.415   5.365  17.625  0.00  0.00    +0.000 C 
BRANCH   8  12
ATOM      9  C   UNL     1       2.020   2.793  21.719  0.00  0.00    +0.000 C 
ATOM     10  N   UNL     1       2.481   3.161  20.401  0.00  0.00    +0.000 N 
ATOM     11  C   UNL     1       2.407   4.390  19.810  0.00  0.00    +0.000 A 
ATOM     12  C   UNL     1       3.094   4.292  18.614  0.00  0.00    +0.000 A 
ATOM     13  C   UNL     1       3.491   2.933  18.569  0.00  0.00    +0.000 A 
ATOM     14  N   UNL     1       3.119   2.247  19.650  0.00  0.00    +0.000 NA
ENDBRANCH   8  12
ENDBRANCH   1   8
BRANCH   5  15
ATOM     15  C   UNL     1       6.204   5.679  15.688  0.00  0.00    +0.000 C 
BRANCH  15  16
ATOM     16  C   UNL     1       6.448   4.967  14.374  0.00  0.00    +0.000 A 
ATOM     17  C   UNL     1       7.541   5.250  13.546  0.00  0.00    +0.000 A 
ATOM     18  C   UNL     1       7.662   4.633  12.298  0.00  0.00    +0.000 A 
ATOM     19  C   UNL     1       6.716   3.702  11.877  0.00  0.00    +0.000 A 
ATOM     20  C   UNL     1       5.657   3.366  12.716  0.00  0.00    +0.000 A 
ATOM     21  C   UNL     1       5.529   3.987  13.959  0.00  0.00    +0.000 A 
ENDBRANCH  15  16
ENDBRANCH   5  15
TORSDOF 5
ENDMDL
MODEL 9
REMARK VINA RESULT:      -6.7      2.579      5.542
REMARK  Name = 
REMARK  6 active torsions:
REMARK  status: ('A' for Active; 'I' for Inactive)
REMARK    1  A    between atoms: C_1  and  N_2
REMARK    2  A    between atoms: C_4  and  C_5
REMARK    3  A    between atoms: C_5  and  N_6
REMARK    4  A    between atoms: C_9  and  O_10
REMARK    5  A    between atoms: C_11  and  C_12
REMARK    6  A    between atoms: C_12  and  C_13
REMARK                            x       y       z     vdW  Elec       q    Type
REMARK                         _______ _______ _______ _____ _____    ______ ____
ROOT
ATOM      1  N   UNL     1       2.699   4.394  18.882  0.00  0.00    +0.000 NA
ATOM      2  C   UNL     1       1.640   3.445  19.264  0.00  0.00    +0.000 C 
ATOM      3  C   UNL     1       2.368   2.146  19.523  0.00  0.00    +0.000 C 
ATOM      4  C   UNL     1       3.408   2.138  18.425  0.00  0.00    +0.000 C 
ATOM      5  C   UNL     1       3.848   3.620  18.322  0.00  0.00    +0.000 C 
ENDROOT
BRANCH   4   6
ATOM      6  O   UNL     1       4.389   1.156  18.680  0.00  0.00    +0.000 OA
ATOM      7  H   UNL     1       3.967   0.279  18.688  0.00  0.00    +0.000 HD
ENDBRANCH   4   6
BRANCH   1   8
ATOM      8  C   UNL     1       2.217   5.441  17.977  0.00  0.00    +0.000 C 
BRANCH   8  12
ATOM      9  C   UNL     1       1.267   9.015  21.389  0.00  0.00    +0.000 C 
ATOM     10  N   UNL     1       1.657   8.306  20.193  0.00  0.00    +0.000 N 
ATOM     11  C   UNL     1       1.832   6.960  20.047  0.00  0.00    +0.000 A 
ATOM     12  C   UNL     1       2.067   6.738  18.702  0.00  0.00    +0.000 A 
ATOM     13  C   UNL     1       2.064   8.041  18.146  0.00  0.00    +0.000 A 
ATOM     14  N   UNL     1       1.817   8.991  19.048  0.00  0.00    +0.000 NA
ENDBRANCH   8  12
ENDBRANCH   1   8
BRANCH   5  15
ATOM     15  C   UNL     1       5.104   4.039  19.130  0.00  0.00    +0.000 C 
BRANCH  15  16
ATOM     16  C   UNL     1       5.939   5.197  18.626  0.00  0.00    +0.000 A 
ATOM     17  C   UNL     1       5.586   5.961  17.508  0.00  0.00    +0.000 A 
ATOM     18  C   UNL     1       6.445   6.954  17.029  0.00  0.00    +0.000 A 
ATOM     19  C   UNL     1       7.647   7.220  17.680  0.00  0.00    +0.000 A 
ATOM     20  C   UNL     1       7.983   6.509  18.829  0.00  0.00    +0.000 A 
ATOM     21  C   UNL     1       7.130   5.511  19.304  0.00  0.00    +0.000 A 
ENDBRANCH  15  16
ENDBRANCH   5  15
TORSDOF 5
ENDMDL
