MODEL 1
REMARK VINA RESULT:      -8.5      0.000      0.000
REMARK  Name = 
REMARK  9 active torsions:
REMARK  status: ('A' for Active; 'I' for Inactive)
REMARK    1  A    between atoms: C_1  and  O_2
REMARK    2  A    between atoms: O_2  and  C_3
REMARK    3  A    between atoms: C_8  and  C_9
REMARK    4  A    between atoms: C_9  and  C_10
REMARK    5  A    between atoms: C_10  and  N_11
REMARK    6  A    between atoms: C_17  and  C_18
REMARK    7  A    between atoms: C_22  and  C_23
REMARK    8  A    between atoms: C_23  and  N_24
REMARK    9  A    between atoms: C_25  and  C_26
REMARK                            x       y       z     vdW  Elec       q    Type
REMARK                         _______ _______ _______ _____ _____    ______ ____
ROOT
ATOM      1  N   UNL     1       4.488   4.199  16.572  0.00  0.00    +0.000 NA
ATOM      2  C   UNL     1       5.332   4.884  17.284  0.00  0.00    +0.000 C 
ATOM      3  N   UNL     1       5.498   4.750  18.640  0.00  0.00    +0.000 N 
ATOM      4  N   UNL     1       6.086   5.881  16.724  0.00  0.00    +0.000 N 
ATOM      5  C   UNL     1       6.994   6.691  17.306  0.00  0.00    +0.000 A 
ATOM      6  N   UNL     1       7.294   7.950  17.053  0.00  0.00    +0.000 NA
ATOM      7  C   UNL     1       8.167   8.303  18.070  0.00  0.00    +0.000 A 
ATOM      8  C   UNL     1       8.450   7.194  18.828  0.00  0.00    +0.000 A 
ATOM      9  O   UNL     1       7.712   6.161  18.352  0.00  0.00    +0.000 OA
ATOM     10  H   UNL     1       5.206   3.879  19.056  0.00  0.00    +0.000 HD
ATOM     11  H   UNL     1       6.408   5.033  18.985  0.00  0.00    +0.000 HD
ATOM     12  H   UNL     1       5.750   6.159  15.811  0.00  0.00    +0.000 HD
ENDROOT
BRANCH   7  13
ATOM     13  C   UNL     1       8.616   9.660  18.350  0.00  0.00    +0.000 A 
ATOM     14  C   UNL     1       9.484   9.947  19.416  0.00  0.00    +0.000 A 
ATOM     15  C   UNL     1       9.824  11.267  19.726  0.00  0.00    +0.000 A 
ATOM     16  C   UNL     1       9.295  12.317  18.980  0.00  0.00    +0.000 A 
ATOM     17  C   UNL     1       8.420  12.058  17.919  0.00  0.00    +0.000 A 
ATOM     18  C   UNL     1       8.108  10.726  17.594  0.00  0.00    +0.000 A 
BRANCH  17  19
ATOM     19  C   UNL     1       7.810  13.192  17.140  0.00  0.00    +0.000 C 
BRANCH  19  20
ATOM     20  N   UNL     1       8.401  14.459  17.488  0.00  0.00    +0.000 N 
ATOM     21  C   UNL     1       7.618  15.465  18.000  0.00  0.00    +0.000 C 
ATOM     22  C   UNL     1       8.344  16.753  18.272  0.00  0.00    +0.000 C 
ATOM     23  O   UNL     1       6.419  15.337  18.225  0.00  0.00    +0.000 OA
ATOM     24  H   UNL     1       9.366  14.634  17.239  0.00  0.00    +0.000 HD
ENDBRANCH  19  20
ENDBRANCH  17  19
ENDBRANCH   7  13
BRANCH   1  25
ATOM     25  C   UNL     1       3.670   3.237  17.344  0.00  0.00    +0.000 C 
BRANCH  25  26
ATOM     26  C   UNL     1       2.196   3.628  17.459  0.00  0.00    +0.000 C 
BRANCH  26  32
ATOM     27  C   UNL     1       1.565   4.403  19.833  0.00  0.00    +0.000 A 
ATOM     28  C   UNL     1       1.523   5.409  20.809  0.00  0.00    +0.000 A 
ATOM     29  C   UNL     1       1.841   6.725  20.481  0.00  0.00    +0.000 A 
ATOM     30  C   UNL     1       2.233   7.039  19.186  0.00  0.00    +0.000 A 
ATOM     31  C   UNL     1       2.335   6.033  18.221  0.00  0.00    +0.000 A 
ATOM     32  C   UNL     1       2.014   4.700  18.530  0.00  0.00    +0.000 A 
BRANCH  27  34
ATOM     33  C   UNL     1       1.513   2.644  21.411  0.00  0.00    +0.000 C 
ATOM     34  O   UNL     1       1.207   3.104  20.097  0.00  0.00    +0.000 OA
ENDBRANCH  27  34
ENDBRANCH  26  32
ENDBRANCH  25  26
ENDBRANCH   1  25
TORSDOF 7
ENDMDL
MODEL 2
REMARK VINA RESULT:      -8.4      2.074      3.002
REMARK  Name = 
REMARK  9 active torsions:
REMARK  status: ('A' for Active; 'I' for Inactive)
REMARK    1  A    between atoms: C_1  and  O_2
REMARK    2  A    between atoms: O_2  and  C_3
REMARK    3  A    between atoms: C_8  and  C_9
REMARK    4  A    between atoms: C_9  and  C_10
REMARK    5  A    between atoms: C_10  and  N_11
REMARK    6  A    between atoms: C_17  and  C_18
REMARK    7  A    between atoms: C_22  and  C_23
REMARK    8  A    between atoms: C_23  and  N_24
REMARK    9  A    between atoms: C_25  and  C_26
REMARK                            x       y       z     vdW  Elec       q    Type
REMARK                         _______ _______ _______ _____ _____    ______ ____
ROOT
ATOM      1  N   UNL     1       5.201   4.424  16.287  0.00  0.00    +0.000 NA
ATOM      2  C   UNL     1       5.886   5.177  17.094  0.00  0.00    +0.000 C 
ATOM      3  N   UNL     1       5.858   5.083  18.463  0.00  0.00    +0.000 N 
ATOM      4  N   UNL     1       6.652   6.210  16.621  0.00  0.00    +0.000 N 
ATOM      5  C   UNL     1       7.413   7.089  17.304  0.00  0.00    +0.000 A 
ATOM      6  N   UNL     1       7.670   8.359  17.060  0.00  0.00    +0.000 NA
ATOM      7  C   UNL     1       8.359   8.789  18.183  0.00  0.00    +0.000 A 
ATOM      8  C   UNL     1       8.594   7.717  19.008  0.00  0.00    +0.000 A 
ATOM      9  O   UNL     1       7.999   6.628  18.460  0.00  0.00    +0.000 OA
ATOM     10  H   UNL     1       5.561   4.203  18.858  0.00  0.00    +0.000 HD
ATOM     11  H   UNL     1       6.688   5.431  18.929  0.00  0.00    +0.000 HD
ATOM     12  H   UNL     1       6.439   6.447  15.661  0.00  0.00    +0.000 HD
ENDROOT
BRANCH   7  13
ATOM     13  C   UNL     1       8.677  10.178  18.485  0.00  0.00    +0.000 A 
ATOM     14  C   UNL     1       8.555  11.192  17.521  0.00  0.00    +0.000 A 
ATOM     15  C   UNL     1       8.959  12.500  17.804  0.00  0.00    +0.000 A 
ATOM     16  C   UNL     1       9.497  12.810  19.051  0.00  0.00    +0.000 A 
ATOM     17  C   UNL     1       9.638  11.815  20.025  0.00  0.00    +0.000 A 
ATOM     18  C   UNL     1       9.201  10.509  19.743  0.00  0.00    +0.000 A 
BRANCH  17  19
ATOM     19  C   UNL     1      10.262  12.136  21.356  0.00  0.00    +0.000 C 
BRANCH  19  20
ATOM     20  N   UNL     1       9.276  12.217  22.404  0.00  0.00    +0.000 N 
ATOM     21  C   UNL     1       8.828  13.442  22.833  0.00  0.00    +0.000 C 
ATOM     22  C   UNL     1       7.841  13.392  23.966  0.00  0.00    +0.000 C 
ATOM     23  O   UNL     1       9.194  14.504  22.339  0.00  0.00    +0.000 OA
ATOM     24  H   UNL     1       9.013  11.372  22.895  0.00  0.00    +0.000 HD
ENDBRANCH  19  20
ENDBRANCH  17  19
ENDBRANCH   7  13
BRANCH   1  25
ATOM     25  C   UNL     1       4.338   3.427  16.960  0.00  0.00    +0.000 C 
BRANCH  25  26
ATOM     26  C   UNL     1       2.868   3.842  17.053  0.00  0.00    +0.000 C 
BRANCH  26  32
ATOM     27  C   UNL     1       2.353   4.825  19.378  0.00  0.00    +0.000 A 
ATOM     28  C   UNL     1       1.786   4.688  20.654  0.00  0.00    +0.000 A 
ATOM     29  C   UNL     1       1.318   3.451  21.090  0.00  0.00    +0.000 A 
ATOM     30  C   UNL     1       1.384   2.350  20.246  0.00  0.00    +0.000 A 
ATOM     31  C   UNL     1       1.894   2.489  18.951  0.00  0.00    +0.000 A 
ATOM     32  C   UNL     1       2.376   3.727  18.493  0.00  0.00    +0.000 A 
BRANCH  27  34
ATOM     33  C   UNL     1       2.451   7.172  19.635  0.00  0.00    +0.000 C 
ATOM     34  O   UNL     1       2.876   6.010  18.926  0.00  0.00    +0.000 OA
ENDBRANCH  27  34
ENDBRANCH  26  32
ENDBRANCH  25  26
ENDBRANCH   1  25
TORSDOF 7
ENDMDL
MODEL 3
REMARK VINA RESULT:      -8.4      1.105      1.859
REMARK  Name = 
REMARK  9 active torsions:
REMARK  status: ('A' for Active; 'I' for Inactive)
REMARK    1  A    between atoms: C_1  and  O_2
REMARK    2  A    between atoms: O_2  and  C_3
REMARK    3  A    between atoms: C_8  and  C_9
REMARK    4  A    between atoms: C_9  and  C_10
REMARK    5  A    between atoms: C_10  and  N_11
REMARK    6  A    between atoms: C_17  and  C_18
REMARK    7  A    between atoms: C_22  and  C_23
REMARK    8  A    between atoms: C_23  and  N_24
REMARK    9  A    between atoms: C_25  and  C_26
REMARK                            x       y       z     vdW  Elec       q    Type
REMARK                         _______ _______ _______ _____ _____    ______ ____
ROOT
ATOM      1  N   UNL     1       4.919   4.541  16.215  0.00  0.00    +0.000 NA
ATOM      2  C   UNL     1       5.671   5.219  17.029  0.00  0.00    +0.000 C 
ATOM      3  N   UNL     1       5.691   5.054  18.392  0.00  0.00    +0.000 N 
ATOM      4  N   UNL     1       6.466   6.239  16.578  0.00  0.00    +0.000 N 
ATOM      5  C   UNL     1       7.294   7.046  17.272  0.00  0.00    +0.000 A 
ATOM      6  N   UNL     1       7.600   8.314  17.082  0.00  0.00    +0.000 NA
ATOM      7  C   UNL     1       8.352   8.653  18.196  0.00  0.00    +0.000 A 
ATOM      8  C   UNL     1       8.568   7.529  18.955  0.00  0.00    +0.000 A 
ATOM      9  O   UNL     1       7.902   6.499  18.378  0.00  0.00    +0.000 OA
ATOM     10  H   UNL     1       5.368   4.170  18.754  0.00  0.00    +0.000 HD
ATOM     11  H   UNL     1       6.555   5.340  18.840  0.00  0.00    +0.000 HD
ATOM     12  H   UNL     1       6.227   6.535  15.640  0.00  0.00    +0.000 HD
ENDROOT
BRANCH   7  13
ATOM     13  C   UNL     1       8.748  10.009  18.554  0.00  0.00    +0.000 A 
ATOM     14  C   UNL     1       9.482  10.281  19.720  0.00  0.00    +0.000 A 
ATOM     15  C   UNL     1       9.766  11.597  20.095  0.00  0.00    +0.000 A 
ATOM     16  C   UNL     1       9.315  12.658  19.313  0.00  0.00    +0.000 A 
ATOM     17  C   UNL     1       8.574  12.413  18.151  0.00  0.00    +0.000 A 
ATOM     18  C   UNL     1       8.319  11.085  17.766  0.00  0.00    +0.000 A 
BRANCH  17  19
ATOM     19  C   UNL     1       8.045  13.557  17.329  0.00  0.00    +0.000 C 
BRANCH  19  20
ATOM     20  N   UNL     1       7.387  14.544  18.146  0.00  0.00    +0.000 N 
ATOM     21  C   UNL     1       7.873  15.827  18.200  0.00  0.00    +0.000 C 
ATOM     22  C   UNL     1       7.130  16.746  19.129  0.00  0.00    +0.000 C 
ATOM     23  O   UNL     1       8.837  16.210  17.544  0.00  0.00    +0.000 OA
ATOM     24  H   UNL     1       6.644  14.249  18.767  0.00  0.00    +0.000 HD
ENDBRANCH  19  20
ENDBRANCH  17  19
ENDBRANCH   7  13
BRANCH   1  25
ATOM     25  C   UNL     1       4.037   3.550  16.872  0.00  0.00    +0.000 C 
BRANCH  25  26
ATOM     26  C   UNL     1       2.632   4.075  17.172  0.00  0.00    +0.000 C 
BRANCH  26  32
ATOM     27  C   UNL     1       2.431   4.892  19.606  0.00  0.00    +0.000 A 
ATOM     28  C   UNL     1       1.999   4.682  20.924  0.00  0.00    +0.000 A 
ATOM     29  C   UNL     1       1.509   3.439  21.317  0.00  0.00    +0.000 A 
ATOM     30  C   UNL     1       1.418   2.407  20.391  0.00  0.00    +0.000 A 
ATOM     31  C   UNL     1       1.791   2.624  19.062  0.00  0.00    +0.000 A 
ATOM     32  C   UNL     1       2.292   3.869  18.645  0.00  0.00    +0.000 A 
BRANCH  27  34
ATOM     33  C   UNL     1       2.293   7.251  19.642  0.00  0.00    +0.000 C 
ATOM     34  O   UNL     1       2.971   6.082  19.188  0.00  0.00    +0.000 OA
ENDBRANCH  27  34
ENDBRANCH  26  32
ENDBRANCH  25  26
ENDBRANCH   1  25
TORSDOF 7
ENDMDL
MODEL 4
REMARK VINA RESULT:      -8.4      6.103      9.824
REMARK  Name = 
REMARK  9 active torsions:
REMARK  status: ('A' for Active; 'I' for Inactive)
REMARK    1  A    between atoms: C_1  and  O_2
REMARK    2  A    between atoms: O_2  and  C_3
REMARK    3  A    between atoms: C_8  and  C_9
REMARK    4  A    between atoms: C_9  and  C_10
REMARK    5  A    between atoms: C_10  and  N_11
REMARK    6  A    between atoms: C_17  and  C_18
REMARK    7  A    between atoms: C_22  and  C_23
REMARK    8  A    between atoms: C_23  and  N_24
REMARK    9  A    between atoms: C_25  and  C_26
REMARK                            x       y       z     vdW  Elec       q    Type
REMARK                         _______ _______ _______ _____ _____    ______ ____
ROOT
ATOM      1  N   UNL     1      -0.044   9.964  23.101  0.00  0.00    +0.000 NA
ATOM      2  C   UNL     1       0.258   9.556  21.905  0.00  0.00    +0.000 C 
ATOM      3  N   UNL     1      -0.481   9.820  20.780  0.00  0.00    +0.000 N 
ATOM      4  N   UNL     1       1.334   8.736  21.687  0.00  0.00    +0.000 N 
ATOM      5  C   UNL     1       1.786   8.213  20.529  0.00  0.00    +0.000 A 
ATOM      6  N   UNL     1       2.359   7.050  20.289  0.00  0.00    +0.000 NA
ATOM      7  C   UNL     1       2.445   6.991  18.907  0.00  0.00    +0.000 A 
ATOM      8  C   UNL     1       2.024   8.185  18.377  0.00  0.00    +0.000 A 
ATOM      9  O   UNL     1       1.603   8.973  19.398  0.00  0.00    +0.000 OA
ATOM     10  H   UNL     1      -1.095  10.621  20.808  0.00  0.00    +0.000 HD
ATOM     11  H   UNL     1       0.043   9.791  19.912  0.00  0.00    +0.000 HD
ATOM     12  H   UNL     1       1.688   8.321  22.540  0.00  0.00    +0.000 HD
ENDROOT
BRANCH   7  13
ATOM     13  C   UNL     1       2.814   5.806  18.144  0.00  0.00    +0.000 A 
ATOM     14  C   UNL     1       1.983   4.676  18.084  0.00  0.00    +0.000 A 
ATOM     15  C   UNL     1       2.400   3.515  17.427  0.00  0.00    +0.000 A 
ATOM     16  C   UNL     1       3.657   3.466  16.828  0.00  0.00    +0.000 A 
ATOM     17  C   UNL     1       4.508   4.577  16.883  0.00  0.00    +0.000 A 
ATOM     18  C   UNL     1       4.067   5.750  17.519  0.00  0.00    +0.000 A 
BRANCH  17  19
ATOM     19  C   UNL     1       5.884   4.512  16.277  0.00  0.00    +0.000 C 
BRANCH  19  20
ATOM     20  N   UNL     1       5.862   3.933  14.958  0.00  0.00    +0.000 N 
ATOM     21  C   UNL     1       6.718   4.395  13.989  0.00  0.00    +0.000 C 
ATOM     22  C   UNL     1       6.559   3.746  12.643  0.00  0.00    +0.000 C 
ATOM     23  O   UNL     1       7.556   5.269  14.192  0.00  0.00    +0.000 OA
ATOM     24  H   UNL     1       5.131   3.272  14.726  0.00  0.00    +0.000 HD
ENDBRANCH  19  20
ENDBRANCH  17  19
ENDBRANCH   7  13
BRANCH   1  25
ATOM     25  C   UNL     1      -1.296  10.750  23.184  0.00  0.00    +0.000 C 
BRANCH  25  26
ATOM     26  C   UNL     1      -1.097  12.255  22.991  0.00  0.00    +0.000 C 
BRANCH  26  32
ATOM     27  C   UNL     1      -2.526  14.395  23.114  0.00  0.00    +0.000 A 
ATOM     28  C   UNL     1      -3.767  15.013  23.323  0.00  0.00    +0.000 A 
ATOM     29  C   UNL     1      -4.848  14.282  23.811  0.00  0.00    +0.000 A 
ATOM     30  C   UNL     1      -4.706  12.924  24.063  0.00  0.00    +0.000 A 
ATOM     31  C   UNL     1      -3.490  12.286  23.802  0.00  0.00    +0.000 A 
ATOM     32  C   UNL     1      -2.385  13.006  23.315  0.00  0.00    +0.000 A 
BRANCH  27  34
ATOM     33  C   UNL     1      -0.724  15.807  23.702  0.00  0.00    +0.000 C 
ATOM     34  O   UNL     1      -1.420  15.085  22.688  0.00  0.00    +0.000 OA
ENDBRANCH  27  34
ENDBRANCH  26  32
ENDBRANCH  25  26
ENDBRANCH   1  25
TORSDOF 7
ENDMDL
MODEL 5
REMARK VINA RESULT:      -8.2      5.233      8.398
REMARK  Name = 
REMARK  9 active torsions:
REMARK  status: ('A' for Active; 'I' for Inactive)
REMARK    1  A    between atoms: C_1  and  O_2
REMARK    2  A    between atoms: O_2  and  C_3
REMARK    3  A    between atoms: C_8  and  C_9
REMARK    4  A    between atoms: C_9  and  C_10
REMARK    5  A    between atoms: C_10  and  N_11
REMARK    6  A    between atoms: C_17  and  C_18
REMARK    7  A    between atoms: C_22  and  C_23
REMARK    8  A    between atoms: C_23  and  N_24
REMARK    9  A    between atoms: C_25  and  C_26
REMARK                            x       y       z     vdW  Elec       q    Type
REMARK                         _______ _______ _______ _____ _____    ______ ____
ROOT
ATOM      1  N   UNL     1       3.038   5.521  18.789  0.00  0.00    +0.000 NA
ATOM      2  C   UNL     1       2.443   6.221  19.708  0.00  0.00    +0.000 C 
ATOM      3  N   UNL     1       1.915   5.703  20.864  0.00  0.00    +0.000 N 
ATOM      4  N   UNL     1       2.222   7.563  19.545  0.00  0.00    +0.000 N 
ATOM      5  C   UNL     1       1.619   8.435  20.379  0.00  0.00    +0.000 A 
ATOM      6  N   UNL     1       0.873   9.489  20.111  0.00  0.00    +0.000 NA
ATOM      7  C   UNL     1       0.391   9.888  21.348  0.00  0.00    +0.000 A 
ATOM      8  C   UNL     1       0.971   9.121  22.328  0.00  0.00    +0.000 A 
ATOM      9  O   UNL     1       1.756   8.194  21.726  0.00  0.00    +0.000 OA
ATOM     10  H   UNL     1       2.277   4.815  21.179  0.00  0.00    +0.000 HD
ATOM     11  H   UNL     1       1.845   6.363  21.630  0.00  0.00    +0.000 HD
ATOM     12  H   UNL     1       2.350   7.867  18.589  0.00  0.00    +0.000 HD
ENDROOT
BRANCH   7  13
ATOM     13  C   UNL     1      -0.651  10.885  21.555  0.00  0.00    +0.000 A 
ATOM     14  C   UNL     1      -1.002  11.332  22.839  0.00  0.00    +0.000 A 
ATOM     15  C   UNL     1      -2.069  12.215  23.022  0.00  0.00    +0.000 A 
ATOM     16  C   UNL     1      -2.804  12.658  21.924  0.00  0.00    +0.000 A 
ATOM     17  C   UNL     1      -2.479  12.220  20.635  0.00  0.00    +0.000 A 
ATOM     18  C   UNL     1      -1.385  11.356  20.458  0.00  0.00    +0.000 A 
BRANCH  17  19
ATOM     19  C   UNL     1      -3.299  12.659  19.452  0.00  0.00    +0.000 C 
BRANCH  19  20
ATOM     20  N   UNL     1      -2.784  12.127  18.216  0.00  0.00    +0.000 N 
ATOM     21  C   UNL     1      -3.615  11.445  17.362  0.00  0.00    +0.000 C 
ATOM     22  C   UNL     1      -2.944  10.894  16.134  0.00  0.00    +0.000 C 
ATOM     23  O   UNL     1      -4.815  11.291  17.569  0.00  0.00    +0.000 OA
ATOM     24  H   UNL     1      -1.786  12.157  18.049  0.00  0.00    +0.000 HD
ENDBRANCH  19  20
ENDBRANCH  17  19
ENDBRANCH   7  13
BRANCH   1  25
ATOM     25  C   UNL     1       3.101   4.069  19.066  0.00  0.00    +0.000 C 
BRANCH  25  26
ATOM     26  C   UNL     1       4.513   3.485  18.998  0.00  0.00    +0.000 C 
BRANCH  26  32
ATOM     27  C   UNL     1       6.414   4.894  17.978  0.00  0.00    +0.000 A 
ATOM     28  C   UNL     1       7.141   5.318  16.857  0.00  0.00    +0.000 A 
ATOM     29  C   UNL     1       6.699   5.012  15.571  0.00  0.00    +0.000 A 
ATOM     30  C   UNL     1       5.548   4.254  15.398  0.00  0.00    +0.000 A 
ATOM     31  C   UNL     1       4.850   3.776  16.511  0.00  0.00    +0.000 A 
ATOM     32  C   UNL     1       5.275   4.078  17.816  0.00  0.00    +0.000 A 
BRANCH  27  34
ATOM     33  C   UNL     1       8.065   5.821  19.392  0.00  0.00    +0.000 C 
ATOM     34  O   UNL     1       6.780   5.218  19.260  0.00  0.00    +0.000 OA
ENDBRANCH  27  34
ENDBRANCH  26  32
ENDBRANCH  25  26
ENDBRANCH   1  25
TORSDOF 7
ENDMDL
MODEL 6
REMARK VINA RESULT:      -8.1      6.480     10.049
REMARK  Name = 
REMARK  9 active torsions:
REMARK  status: ('A' for Active; 'I' for Inactive)
REMARK    1  A    between atoms: C_1  and  O_2
REMARK    2  A    between atoms: O_2  and  C_3
REMARK    3  A    between atoms: C_8  and  C_9
REMARK    4  A    between atoms: C_9  and  C_10
REMARK    5  A    between atoms: C_10  and  N_11
REMARK    6  A    between atoms: C_17  and  C_18
REMARK    7  A    between atoms: C_22  and  C_23
REMARK    8  A    between atoms: C_23  and  N_24
REMARK    9  A    between atoms: C_25  and  C_26
REMARK                            x       y       z     vdW  Elec       q    Type
REMARK                         _______ _______ _______ _____ _____    ______ ____
ROOT
ATOM      1  N   UNL     1      -1.395  11.074  19.972  0.00  0.00    +0.000 NA
ATOM      2  C   UNL     1      -0.483  10.570  19.195  0.00  0.00    +0.000 C 
ATOM      3  N   UNL     1      -0.399  10.791  17.844  0.00  0.00    +0.000 N 
ATOM      4  N   UNL     1       0.447   9.685  19.675  0.00  0.00    +0.000 N 
ATOM      5  C   UNL     1       1.448   9.063  19.021  0.00  0.00    +0.000 A 
ATOM      6  N   UNL     1       1.959   7.860  19.197  0.00  0.00    +0.000 NA
ATOM      7  C   UNL     1       2.833   7.702  18.132  0.00  0.00    +0.000 A 
ATOM      8  C   UNL     1       2.899   8.876  17.423  0.00  0.00    +0.000 A 
ATOM      9  O   UNL     1       2.024   9.751  17.979  0.00  0.00    +0.000 OA
ATOM     10  H   UNL     1      -0.847  11.620  17.484  0.00  0.00    +0.000 HD
ATOM     11  H   UNL     1       0.529  10.677  17.452  0.00  0.00    +0.000 HD
ATOM     12  H   UNL     1       0.201   9.314  20.584  0.00  0.00    +0.000 HD
ENDROOT
BRANCH   7  13
ATOM     13  C   UNL     1       3.483   6.451  17.766  0.00  0.00    +0.000 A 
ATOM     14  C   UNL     1       4.620   6.422  16.942  0.00  0.00    +0.000 A 
ATOM     15  C   UNL     1       5.170   5.207  16.524  0.00  0.00    +0.000 A 
ATOM     16  C   UNL     1       4.585   4.005  16.917  0.00  0.00    +0.000 A 
ATOM     17  C   UNL     1       3.446   4.008  17.730  0.00  0.00    +0.000 A 
ATOM     18  C   UNL     1       2.919   5.233  18.171  0.00  0.00    +0.000 A 
BRANCH  17  19
ATOM     19  C   UNL     1       2.785   2.713  18.119  0.00  0.00    +0.000 C 
BRANCH  19  20
ATOM     20  N   UNL     1       2.726   2.550  19.549  0.00  0.00    +0.000 N 
ATOM     21  C   UNL     1       1.533   2.708  20.211  0.00  0.00    +0.000 C 
ATOM     22  C   UNL     1       1.615   2.565  21.705  0.00  0.00    +0.000 C 
ATOM     23  O   UNL     1       0.472   2.944  19.640  0.00  0.00    +0.000 OA
ATOM     24  H   UNL     1       3.590   2.440  20.065  0.00  0.00    +0.000 HD
ENDBRANCH  19  20
ENDBRANCH  17  19
ENDBRANCH   7  13
BRANCH   1  25
ATOM     25  C   UNL     1      -2.391  11.923  19.280  0.00  0.00    +0.000 C 
BRANCH  25  26
ATOM     26  C   UNL     1      -3.270  12.742  20.226  0.00  0.00    +0.000 C 
BRANCH  26  32
ATOM     27  C   UNL     1      -5.678  12.319  21.038  0.00  0.00    +0.000 A 
ATOM     28  C   UNL     1      -7.039  12.139  20.753  0.00  0.00    +0.000 A 
ATOM     29  C   UNL     1      -7.471  11.980  19.438  0.00  0.00    +0.000 A 
ATOM     30  C   UNL     1      -6.552  12.031  18.398  0.00  0.00    +0.000 A 
ATOM     31  C   UNL     1      -5.201  12.269  18.667  0.00  0.00    +0.000 A 
ATOM     32  C   UNL     1      -4.744  12.427  19.987  0.00  0.00    +0.000 A 
BRANCH  27  34
ATOM     33  C   UNL     1      -5.880  13.367  23.146  0.00  0.00    +0.000 C 
ATOM     34  O   UNL     1      -5.200  12.425  22.320  0.00  0.00    +0.000 OA
ENDBRANCH  27  34
ENDBRANCH  26  32
ENDBRANCH  25  26
ENDBRANCH   1  25
TORSDOF 7
ENDMDL
MODEL 7
REMARK VINA RESULT:      -8.1      7.779     10.973
REMARK  Name = 
REMARK  9 active torsions:
REMARK  status: ('A' for Active; 'I' for Inactive)
REMARK    1  A    between atoms: C_1  and  O_2
REMARK    2  A    between atoms: O_2  and  C_3
REMARK    3  A    between atoms: C_8  and  C_9
REMARK    4  A    between atoms: C_9  and  C_10
REMARK    5  A    between atoms: C_10  and  N_11
REMARK    6  A    between atoms: C_17  and  C_18
REMARK    7  A    between atoms: C_22  and  C_23
REMARK    8  A    between atoms: C_23  and  N_24
REMARK    9  A    between atoms: C_25  and  C_26
REMARK                            x       y       z     vdW  Elec       q    Type
REMARK                         _______ _______ _______ _____ _____    ______ ____
ROOT
ATOM      1  N   UNL     1       1.645   8.970  17.592  0.00  0.00    +0.000 NA
ATOM      2  C   UNL     1       0.661   9.547  18.214  0.00  0.00    +0.000 C 
ATOM      3  N   UNL     1       0.422   9.445  19.561  0.00  0.00    +0.000 N 
ATOM      4  N   UNL     1      -0.289  10.259  17.530  0.00  0.00    +0.000 N 
ATOM      5  C   UNL     1      -1.372  10.909  18.003  0.00  0.00    +0.000 A 
ATOM      6  N   UNL     1      -2.562  11.081  17.463  0.00  0.00    +0.000 NA
ATOM      7  C   UNL     1      -3.312  11.668  18.470  0.00  0.00    +0.000 A 
ATOM      8  C   UNL     1      -2.498  11.934  19.543  0.00  0.00    +0.000 A 
ATOM      9  O   UNL     1      -1.260  11.458  19.259  0.00  0.00    +0.000 OA
ATOM     10  H   UNL     1       1.201   9.192  20.150  0.00  0.00    +0.000 HD
ATOM     11  H   UNL     1      -0.102  10.217  19.958  0.00  0.00    +0.000 HD
ATOM     12  H   UNL     1      -0.265  10.086  16.533  0.00  0.00    +0.000 HD
ENDROOT
BRANCH   7  13
ATOM     13  C   UNL     1      -4.755  11.861  18.431  0.00  0.00    +0.000 A 
ATOM     14  C   UNL     1      -5.407  12.338  17.283  0.00  0.00    +0.000 A 
ATOM     15  C   UNL     1      -6.778  12.609  17.299  0.00  0.00    +0.000 A 
ATOM     16  C   UNL     1      -7.514  12.413  18.465  0.00  0.00    +0.000 A 
ATOM     17  C   UNL     1      -6.886  11.947  19.626  0.00  0.00    +0.000 A 
ATOM     18  C   UNL     1      -5.512  11.648  19.592  0.00  0.00    +0.000 A 
BRANCH  17  19
ATOM     19  C   UNL     1      -7.668  11.778  20.900  0.00  0.00    +0.000 C 
BRANCH  19  20
ATOM     20  N   UNL     1      -6.816  11.830  22.062  0.00  0.00    +0.000 N 
ATOM     21  C   UNL     1      -6.826  12.937  22.873  0.00  0.00    +0.000 C 
ATOM     22  C   UNL     1      -5.855  12.889  24.019  0.00  0.00    +0.000 C 
ATOM     23  O   UNL     1      -7.567  13.899  22.692  0.00  0.00    +0.000 OA
ATOM     24  H   UNL     1      -6.131  11.097  22.198  0.00  0.00    +0.000 HD
ENDBRANCH  19  20
ENDBRANCH  17  19
ENDBRANCH   7  13
BRANCH   1  25
ATOM     25  C   UNL     1       2.521   8.148  18.457  0.00  0.00    +0.000 C 
BRANCH  25  26
ATOM     26  C   UNL     1       3.647   7.438  17.702  0.00  0.00    +0.000 C 
BRANCH  26  32
ATOM     27  C   UNL     1       4.303   5.014  17.126  0.00  0.00    +0.000 A 
ATOM     28  C   UNL     1       4.014   3.642  17.148  0.00  0.00    +0.000 A 
ATOM     29  C   UNL     1       2.757   3.191  17.545  0.00  0.00    +0.000 A 
ATOM     30  C   UNL     1       1.792   4.103  17.953  0.00  0.00    +0.000 A 
ATOM     31  C   UNL     1       2.090   5.468  17.990  0.00  0.00    +0.000 A 
ATOM     32  C   UNL     1       3.350   5.945  17.589  0.00  0.00    +0.000 A 
BRANCH  27  34
ATOM     33  C   UNL     1       6.590   4.581  16.718  0.00  0.00    +0.000 C 
ATOM     34  O   UNL     1       5.507   5.508  16.690  0.00  0.00    +0.000 OA
ENDBRANCH  27  34
ENDBRANCH  26  32
ENDBRANCH  25  26
ENDBRANCH   1  25
TORSDOF 7
ENDMDL
MODEL 8
REMARK VINA RESULT:      -8.0      6.646      9.929
REMARK  Name = 
REMARK  9 active torsions:
REMARK  status: ('A' for Active; 'I' for Inactive)
REMARK    1  A    between atoms: C_1  and  O_2
REMARK    2  A    between atoms: O_2  and  C_3
REMARK    3  A    between atoms: C_8  and  C_9
REMARK    4  A    between atoms: C_9  and  C_10
REMARK    5  A    between atoms: C_10  and  N_11
REMARK    6  A    between atoms: C_17  and  C_18
REMARK    7  A    between atoms: C_22  and  C_23
REMARK    8  A    between atoms: C_23  and  N_24
REMARK    9  A    between atoms: C_25  and  C_26
REMARK                            x       y       z     vdW  Elec       q    Type
REMARK                         _______ _______ _______ _____ _____    ______ ____
ROOT
ATOM      1  N   UNL     1      -0.577  11.285  21.615  0.00  0.00    +0.000 NA
ATOM      2  C   UNL     1      -0.051  10.692  20.585  0.00  0.00    +0.000 C 
ATOM      3  N   UNL     1      -0.426  10.910  19.283  0.00  0.00    +0.000 N 
ATOM      4  N   UNL     1       0.894   9.712  20.738  0.00  0.00    +0.000 N 
ATOM      5  C   UNL     1       1.534   8.991  19.795  0.00  0.00    +0.000 A 
ATOM      6  N   UNL     1       1.950   7.740  19.819  0.00  0.00    +0.000 NA
ATOM      7  C   UNL     1       2.374   7.496  18.522  0.00  0.00    +0.000 A 
ATOM      8  C   UNL     1       2.304   8.660  17.798  0.00  0.00    +0.000 A 
ATOM      9  O   UNL     1       1.773   9.620  18.596  0.00  0.00    +0.000 OA
ATOM     10  H   UNL     1      -0.886  11.784  19.076  0.00  0.00    +0.000 HD
ATOM     11  H   UNL     1       0.289  10.701  18.596  0.00  0.00    +0.000 HD
ATOM     12  H   UNL     1       0.947   9.364  21.687  0.00  0.00    +0.000 HD
ENDROOT
BRANCH   7  13
ATOM     13  C   UNL     1       2.725   6.185  17.992  0.00  0.00    +0.000 A 
ATOM     14  C   UNL     1       1.852   5.090  18.089  0.00  0.00    +0.000 A 
ATOM     15  C   UNL     1       2.249   3.820  17.661  0.00  0.00    +0.000 A 
ATOM     16  C   UNL     1       3.525   3.627  17.138  0.00  0.00    +0.000 A 
ATOM     17  C   UNL     1       4.417   4.701  17.040  0.00  0.00    +0.000 A 
ATOM     18  C   UNL     1       3.999   5.981  17.444  0.00  0.00    +0.000 A 
BRANCH  17  19
ATOM     19  C   UNL     1       5.813   4.487  16.519  0.00  0.00    +0.000 C 
BRANCH  19  20
ATOM     20  N   UNL     1       5.809   3.926  15.192  0.00  0.00    +0.000 N 
ATOM     21  C   UNL     1       6.648   4.429  14.230  0.00  0.00    +0.000 C 
ATOM     22  C   UNL     1       6.509   3.793  12.875  0.00  0.00    +0.000 C 
ATOM     23  O   UNL     1       7.457   5.327  14.444  0.00  0.00    +0.000 OA
ATOM     24  H   UNL     1       5.099   3.245  14.952  0.00  0.00    +0.000 HD
ENDBRANCH  19  20
ENDBRANCH  17  19
ENDBRANCH   7  13
BRANCH   1  25
ATOM     25  C   UNL     1      -1.662  12.238  21.288  0.00  0.00    +0.000 C 
BRANCH  25  26
ATOM     26  C   UNL     1      -2.800  12.254  22.310  0.00  0.00    +0.000 C 
BRANCH  26  32
ATOM     27  C   UNL     1      -3.738  14.029  23.923  0.00  0.00    +0.000 A 
ATOM     28  C   UNL     1      -3.524  15.042  24.870  0.00  0.00    +0.000 A 
ATOM     29  C   UNL     1      -2.241  15.532  25.101  0.00  0.00    +0.000 A 
ATOM     30  C   UNL     1      -1.161  14.994  24.413  0.00  0.00    +0.000 A 
ATOM     31  C   UNL     1      -1.357  13.944  23.511  0.00  0.00    +0.000 A 
ATOM     32  C   UNL     1      -2.644  13.438  23.259  0.00  0.00    +0.000 A 
BRANCH  27  34
ATOM     33  C   UNL     1      -6.007  14.547  23.510  0.00  0.00    +0.000 C 
ATOM     34  O   UNL     1      -4.990  13.554  23.623  0.00  0.00    +0.000 OA
ENDBRANCH  27  34
ENDBRANCH  26  32
ENDBRANCH  25  26
ENDBRANCH   1  25
TORSDOF 7
ENDMDL
MODEL 9
REMARK VINA RESULT:      -7.9      5.744      8.345
REMARK  Name = 
REMARK  9 active torsions:
REMARK  status: ('A' for Active; 'I' for Inactive)
REMARK    1  A    between atoms: C_1  and  O_2
REMARK    2  A    between atoms: O_2  and  C_3
REMARK    3  A    between atoms: C_8  and  C_9
REMARK    4  A    between atoms: C_9  and  C_10
REMARK    5  A    between atoms: C_10  and  N_11
REMARK    6  A    between atoms: C_17  and  C_18
REMARK    7  A    between atoms: C_22  and  C_23
REMARK    8  A    between atoms: C_23  and  N_24
REMARK    9  A    between atoms: C_25  and  C_26
REMARK                            x       y       z     vdW  Elec       q    Type
REMARK                         _______ _______ _______ _____ _____    ______ ____
ROOT
ATOM      1  N   UNL     1       4.287   6.061  17.310  0.00  0.00    +0.000 NA
ATOM      2  C   UNL     1       3.447   6.782  17.989  0.00  0.00    +0.000 C 
ATOM      3  N   UNL     1       3.089   6.543  19.293  0.00  0.00    +0.000 N 
ATOM      4  N   UNL     1       2.772   7.823  17.407  0.00  0.00    +0.000 N 
ATOM      5  C   UNL     1       1.867   8.662  17.950  0.00  0.00    +0.000 A 
ATOM      6  N   UNL     1       0.809   9.234  17.411  0.00  0.00    +0.000 NA
ATOM      7  C   UNL     1       0.167   9.840  18.479  0.00  0.00    +0.000 A 
ATOM      8  C   UNL     1       0.941   9.706  19.606  0.00  0.00    +0.000 A 
ATOM      9  O   UNL     1       2.026   8.960  19.283  0.00  0.00    +0.000 OA
ATOM     10  H   UNL     1       3.728   6.000  19.854  0.00  0.00    +0.000 HD
ATOM     11  H   UNL     1       2.760   7.357  19.798  0.00  0.00    +0.000 HD
ATOM     12  H   UNL     1       2.824   7.805  16.397  0.00  0.00    +0.000 HD
ENDROOT
BRANCH   7  13
ATOM     13  C   UNL     1      -1.167  10.423  18.430  0.00  0.00    +0.000 A 
ATOM     14  C   UNL     1      -2.042  10.179  17.359  0.00  0.00    +0.000 A 
ATOM     15  C   UNL     1      -3.278  10.826  17.284  0.00  0.00    +0.000 A 
ATOM     16  C   UNL     1      -3.653  11.731  18.275  0.00  0.00    +0.000 A 
ATOM     17  C   UNL     1      -2.794  11.999  19.347  0.00  0.00    +0.000 A 
ATOM     18  C   UNL     1      -1.566  11.321  19.430  0.00  0.00    +0.000 A 
BRANCH  17  19
ATOM     19  C   UNL     1      -3.176  13.010  20.394  0.00  0.00    +0.000 C 
BRANCH  19  20
ATOM     20  N   UNL     1      -4.603  13.193  20.467  0.00  0.00    +0.000 N 
ATOM     21  C   UNL     1      -5.294  12.772  21.577  0.00  0.00    +0.000 C 
ATOM     22  C   UNL     1      -6.782  12.971  21.507  0.00  0.00    +0.000 C 
ATOM     23  O   UNL     1      -4.753  12.273  22.559  0.00  0.00    +0.000 OA
ATOM     24  H   UNL     1      -5.097  13.520  19.647  0.00  0.00    +0.000 HD
ENDBRANCH  19  20
ENDBRANCH  17  19
ENDBRANCH   7  13
BRANCH   1  25
ATOM     25  C   UNL     1       4.848   4.908  18.049  0.00  0.00    +0.000 C 
BRANCH  25  26
ATOM     26  C   UNL     1       4.143   3.583  17.757  0.00  0.00    +0.000 C 
BRANCH  26  32
ATOM     27  C   UNL     1       3.591   2.673  20.103  0.00  0.00    +0.000 A 
ATOM     28  C   UNL     1       2.671   2.483  21.144  0.00  0.00    +0.000 A 
ATOM     29  C   UNL     1       1.321   2.769  20.954  0.00  0.00    +0.000 A 
ATOM     30  C   UNL     1       0.886   3.277  19.737  0.00  0.00    +0.000 A 
ATOM     31  C   UNL     1       1.805   3.526  18.713  0.00  0.00    +0.000 A 
ATOM     32  C   UNL     1       3.170   3.239  18.882  0.00  0.00    +0.000 A 
BRANCH  27  34
ATOM     33  C   UNL     1       5.199   1.205  21.023  0.00  0.00    +0.000 C 
ATOM     34  O   UNL     1       4.920   2.354  20.226  0.00  0.00    +0.000 OA
ENDBRANCH  27  34
ENDBRANCH  26  32
ENDBRANCH  25  26
ENDBRANCH   1  25
TORSDOF 7
ENDMDL
