MODEL 1
REMARK VINA RESULT:      -7.3      0.000      0.000
REMARK  Name = 
REMARK  4 active torsions:
REMARK  status: ('A' for Active; 'I' for Inactive)
REMARK    1  A    between atoms: C_1  and  C_2
REMARK    2  A    between atoms: C_2  and  N_3
REMARK    3  A    between atoms: C_6  and  N_7
REMARK    4  A    between atoms: C_13  and  C_14
REMARK                            x       y       z     vdW  Elec       q    Type
REMARK                         _______ _______ _______ _____ _____    ______ ____
ROOT
ATOM      1  N   UNL     1       4.305   5.186  17.427  0.00  0.00    +0.000 N 
ATOM      2  C   UNL     1       3.910   6.280  18.298  0.00  0.00    +0.000 C 
ATOM      3  C   UNL     1       2.855   5.664  19.150  0.00  0.00    +0.000 A 
ATOM      4  C   UNL     1       2.121   6.254  20.166  0.00  0.00    +0.000 A 
ATOM      5  C   UNL     1       1.141   5.487  20.796  0.00  0.00    +0.000 A 
ATOM      6  C   UNL     1       0.896   4.162  20.389  0.00  0.00    +0.000 A 
ATOM      7  C   UNL     1       1.632   3.570  19.345  0.00  0.00    +0.000 A 
ATOM      8  C   UNL     1       2.631   4.335  18.766  0.00  0.00    +0.000 A 
ATOM      9  C   UNL     1       3.612   4.022  17.714  0.00  0.00    +0.000 C 
ATOM     10  O   UNL     1       3.755   2.935  17.188  0.00  0.00    +0.000 OA
ENDROOT
BRANCH   1  14
ATOM     11  N   UNL     1       7.684   6.838  17.228  0.00  0.00    +0.000 NA
ATOM     12  C   UNL     1       7.467   5.466  17.708  0.00  0.00    +0.000 C 
ATOM     13  C   UNL     1       6.646   4.603  16.759  0.00  0.00    +0.000 C 
ATOM     14  C   UNL     1       5.326   5.260  16.372  0.00  0.00    +0.000 C 
ATOM     15  C   UNL     1       5.583   6.662  15.829  0.00  0.00    +0.000 C 
ATOM     16  C   UNL     1       6.469   7.507  16.739  0.00  0.00    +0.000 C 
BRANCH  11  18
ATOM     17  C   UNL     1       8.238   9.177  17.991  0.00  0.00    +0.000 C 
ATOM     18  C   UNL     1       8.297   7.682  18.275  0.00  0.00    +0.000 C 
ENDBRANCH  11  18
ENDBRANCH   1  14
BRANCH   7  19
ATOM     19  C   UNL     1       1.224   2.216  18.915  0.00  0.00    +0.000 C 
ATOM     20  N   UNL     1       2.123   1.192  19.022  0.00  0.00    +0.000 N 
ATOM     21  O   UNL     1       0.126   2.023  18.407  0.00  0.00    +0.000 OA
ATOM     22  H   UNL     1       2.864   1.223  19.721  0.00  0.00    +0.000 HD
ATOM     23  H   UNL     1       1.759   0.268  18.836  0.00  0.00    +0.000 HD
ENDBRANCH   7  19
TORSDOF 3
ENDMDL
MODEL 2
REMARK VINA RESULT:      -7.2      2.287      3.304
REMARK  Name = 
REMARK  4 active torsions:
REMARK  status: ('A' for Active; 'I' for Inactive)
REMARK    1  A    between atoms: C_1  and  C_2
REMARK    2  A    between atoms: C_2  and  N_3
REMARK    3  A    between atoms: C_6  and  N_7
REMARK    4  A    between atoms: C_13  and  C_14
REMARK                            x       y       z     vdW  Elec       q    Type
REMARK                         _______ _______ _______ _____ _____    ______ ____
ROOT
ATOM      1  N   UNL     1       4.426   5.502  18.006  0.00  0.00    +0.000 N 
ATOM      2  C   UNL     1       3.038   5.476  17.576  0.00  0.00    +0.000 C 
ATOM      3  C   UNL     1       2.461   4.363  18.378  0.00  0.00    +0.000 A 
ATOM      4  C   UNL     1       1.159   3.889  18.374  0.00  0.00    +0.000 A 
ATOM      5  C   UNL     1       0.859   2.791  19.181  0.00  0.00    +0.000 A 
ATOM      6  C   UNL     1       1.861   2.175  19.954  0.00  0.00    +0.000 A 
ATOM      7  C   UNL     1       3.188   2.649  19.944  0.00  0.00    +0.000 A 
ATOM      8  C   UNL     1       3.451   3.768  19.172  0.00  0.00    +0.000 A 
ATOM      9  C   UNL     1       4.682   4.550  18.978  0.00  0.00    +0.000 C 
ATOM     10  O   UNL     1       5.734   4.361  19.560  0.00  0.00    +0.000 OA
ENDROOT
BRANCH   1  14
ATOM     11  N   UNL     1       6.774   5.391  15.063  0.00  0.00    +0.000 NA
ATOM     12  C   UNL     1       5.426   5.975  15.018  0.00  0.00    +0.000 C 
ATOM     13  C   UNL     1       5.153   6.985  16.125  0.00  0.00    +0.000 C 
ATOM     14  C   UNL     1       5.457   6.424  17.510  0.00  0.00    +0.000 C 
ATOM     15  C   UNL     1       6.879   5.872  17.545  0.00  0.00    +0.000 C 
ATOM     16  C   UNL     1       7.184   4.918  16.394  0.00  0.00    +0.000 C 
BRANCH  11  18
ATOM     17  C   UNL     1       5.605   3.866  13.431  0.00  0.00    +0.000 C 
ATOM     18  C   UNL     1       6.908   4.274  14.105  0.00  0.00    +0.000 C 
ENDBRANCH  11  18
ENDBRANCH   1  14
BRANCH   7  19
ATOM     19  C   UNL     1       4.190   1.866  20.699  0.00  0.00    +0.000 C 
ATOM     20  N   UNL     1       5.272   1.365  20.032  0.00  0.00    +0.000 N 
ATOM     21  O   UNL     1       4.022   1.611  21.886  0.00  0.00    +0.000 OA
ATOM     22  H   UNL     1       5.619   1.819  19.190  0.00  0.00    +0.000 HD
ATOM     23  H   UNL     1       5.988   0.949  20.611  0.00  0.00    +0.000 HD
ENDBRANCH   7  19
TORSDOF 3
ENDMDL
MODEL 3
REMARK VINA RESULT:      -7.0      2.366      3.675
REMARK  Name = 
REMARK  4 active torsions:
REMARK  status: ('A' for Active; 'I' for Inactive)
REMARK    1  A    between atoms: C_1  and  C_2
REMARK    2  A    between atoms: C_2  and  N_3
REMARK    3  A    between atoms: C_6  and  N_7
REMARK    4  A    between atoms: C_13  and  C_14
REMARK                            x       y       z     vdW  Elec       q    Type
REMARK                         _______ _______ _______ _____ _____    ______ ____
ROOT
ATOM      1  N   UNL     1       4.915   4.733  17.839  0.00  0.00    +0.000 N 
ATOM      2  C   UNL     1       4.426   3.628  17.032  0.00  0.00    +0.000 C 
ATOM      3  C   UNL     1       3.275   3.118  17.826  0.00  0.00    +0.000 A 
ATOM      4  C   UNL     1       2.430   2.061  17.529  0.00  0.00    +0.000 A 
ATOM      5  C   UNL     1       1.442   1.731  18.457  0.00  0.00    +0.000 A 
ATOM      6  C   UNL     1       1.331   2.441  19.667  0.00  0.00    +0.000 A 
ATOM      7  C   UNL     1       2.201   3.505  19.974  0.00  0.00    +0.000 A 
ATOM      8  C   UNL     1       3.143   3.844  19.017  0.00  0.00    +0.000 A 
ATOM      9  C   UNL     1       4.151   4.916  18.979  0.00  0.00    +0.000 C 
ATOM     10  O   UNL     1       4.286   5.784  19.821  0.00  0.00    +0.000 OA
ENDROOT
BRANCH   1  14
ATOM     11  N   UNL     1       6.910   5.263  14.688  0.00  0.00    +0.000 NA
ATOM     12  C   UNL     1       5.713   6.039  15.044  0.00  0.00    +0.000 C 
ATOM     13  C   UNL     1       5.757   6.634  16.446  0.00  0.00    +0.000 C 
ATOM     14  C   UNL     1       6.065   5.588  17.511  0.00  0.00    +0.000 C 
ATOM     15  C   UNL     1       7.339   4.833  17.145  0.00  0.00    +0.000 C 
ATOM     16  C   UNL     1       7.333   4.299  15.715  0.00  0.00    +0.000 C 
BRANCH  11  18
ATOM     17  C   UNL     1       5.481   3.659  13.369  0.00  0.00    +0.000 C 
ATOM     18  C   UNL     1       6.721   4.540  13.413  0.00  0.00    +0.000 C 
ENDBRANCH  11  18
ENDBRANCH   1  14
BRANCH   7  19
ATOM     19  C   UNL     1       2.077   4.114  21.316  0.00  0.00    +0.000 C 
ATOM     20  N   UNL     1       1.931   5.469  21.413  0.00  0.00    +0.000 N 
ATOM     21  O   UNL     1       2.173   3.428  22.327  0.00  0.00    +0.000 OA
ATOM     22  H   UNL     1       1.512   6.001  20.653  0.00  0.00    +0.000 HD
ATOM     23  H   UNL     1       1.723   5.821  22.337  0.00  0.00    +0.000 HD
ENDBRANCH   7  19
TORSDOF 3
ENDMDL
MODEL 4
REMARK VINA RESULT:      -7.0      3.386      4.590
REMARK  Name = 
REMARK  4 active torsions:
REMARK  status: ('A' for Active; 'I' for Inactive)
REMARK    1  A    between atoms: C_1  and  C_2
REMARK    2  A    between atoms: C_2  and  N_3
REMARK    3  A    between atoms: C_6  and  N_7
REMARK    4  A    between atoms: C_13  and  C_14
REMARK                            x       y       z     vdW  Elec       q    Type
REMARK                         _______ _______ _______ _____ _____    ______ ____
ROOT
ATOM      1  N   UNL     1       2.765   6.172  18.832  0.00  0.00    +0.000 N 
ATOM      2  C   UNL     1       2.905   7.167  17.781  0.00  0.00    +0.000 C 
ATOM      3  C   UNL     1       2.243   8.365  18.367  0.00  0.00    +0.000 A 
ATOM      4  C   UNL     1       2.080   9.618  17.797  0.00  0.00    +0.000 A 
ATOM      5  C   UNL     1       1.375  10.579  18.522  0.00  0.00    +0.000 A 
ATOM      6  C   UNL     1       0.828  10.269  19.781  0.00  0.00    +0.000 A 
ATOM      7  C   UNL     1       0.981   8.990  20.349  0.00  0.00    +0.000 A 
ATOM      8  C   UNL     1       1.725   8.068  19.634  0.00  0.00    +0.000 A 
ATOM      9  C   UNL     1       2.127   6.687  19.947  0.00  0.00    +0.000 C 
ATOM     10  O   UNL     1       1.907   6.111  20.996  0.00  0.00    +0.000 OA
ENDROOT
BRANCH   1  14
ATOM     11  N   UNL     1       5.992   4.624  17.656  0.00  0.00    +0.000 NA
ATOM     12  C   UNL     1       5.749   5.071  19.036  0.00  0.00    +0.000 C 
ATOM     13  C   UNL     1       4.465   4.524  19.645  0.00  0.00    +0.000 C 
ATOM     14  C   UNL     1       3.247   4.785  18.765  0.00  0.00    +0.000 C 
ATOM     15  C   UNL     1       3.505   4.266  17.354  0.00  0.00    +0.000 C 
ATOM     16  C   UNL     1       4.828   4.749  16.766  0.00  0.00    +0.000 C 
BRANCH  11  18
ATOM     17  C   UNL     1       7.272   6.792  17.514  0.00  0.00    +0.000 C 
ATOM     18  C   UNL     1       7.129   5.349  17.050  0.00  0.00    +0.000 C 
ENDBRANCH  11  18
ENDBRANCH   1  14
BRANCH   7  19
ATOM     19  C   UNL     1       0.274   8.729  21.622  0.00  0.00    +0.000 C 
ATOM     20  N   UNL     1       0.793   9.238  22.779  0.00  0.00    +0.000 N 
ATOM     21  O   UNL     1      -0.719   8.011  21.652  0.00  0.00    +0.000 OA
ATOM     22  H   UNL     1       1.367  10.078  22.765  0.00  0.00    +0.000 HD
ATOM     23  H   UNL     1       0.210   9.141  23.600  0.00  0.00    +0.000 HD
ENDBRANCH   7  19
TORSDOF 3
ENDMDL
MODEL 5
REMARK VINA RESULT:      -6.9      4.133      6.385
REMARK  Name = 
REMARK  4 active torsions:
REMARK  status: ('A' for Active; 'I' for Inactive)
REMARK    1  A    between atoms: C_1  and  C_2
REMARK    2  A    between atoms: C_2  and  N_3
REMARK    3  A    between atoms: C_6  and  N_7
REMARK    4  A    between atoms: C_13  and  C_14
REMARK                            x       y       z     vdW  Elec       q    Type
REMARK                         _______ _______ _______ _____ _____    ______ ____
ROOT
ATOM      1  N   UNL     1       2.239   7.258  19.001  0.00  0.00    +0.000 N 
ATOM      2  C   UNL     1       1.896   7.084  20.402  0.00  0.00    +0.000 C 
ATOM      3  C   UNL     1       1.276   8.389  20.759  0.00  0.00    +0.000 A 
ATOM      4  C   UNL     1       0.760   8.787  21.982  0.00  0.00    +0.000 A 
ATOM      5  C   UNL     1       0.270  10.089  22.094  0.00  0.00    +0.000 A 
ATOM      6  C   UNL     1       0.326  10.972  20.999  0.00  0.00    +0.000 A 
ATOM      7  C   UNL     1       0.866  10.569  19.762  0.00  0.00    +0.000 A 
ATOM      8  C   UNL     1       1.302   9.259  19.661  0.00  0.00    +0.000 A 
ATOM      9  C   UNL     1       1.854   8.501  18.527  0.00  0.00    +0.000 C 
ATOM     10  O   UNL     1       1.966   8.918  17.390  0.00  0.00    +0.000 OA
ENDROOT
BRANCH   1  14
ATOM     11  N   UNL     1       3.086   3.621  19.499  0.00  0.00    +0.000 NA
ATOM     12  C   UNL     1       1.818   4.100  18.930  0.00  0.00    +0.000 C 
ATOM     13  C   UNL     1       1.989   5.086  17.782  0.00  0.00    +0.000 C 
ATOM     14  C   UNL     1       2.895   6.255  18.151  0.00  0.00    +0.000 C 
ATOM     15  C   UNL     1       4.223   5.732  18.689  0.00  0.00    +0.000 C 
ATOM     16  C   UNL     1       4.059   4.686  19.788  0.00  0.00    +0.000 C 
BRANCH  11  18
ATOM     17  C   UNL     1       1.433   2.901  21.261  0.00  0.00    +0.000 C 
ATOM     18  C   UNL     1       2.860   2.842  20.734  0.00  0.00    +0.000 C 
ENDBRANCH  11  18
ENDBRANCH   1  14
BRANCH   7  19
ATOM     19  C   UNL     1       0.984  11.601  18.710  0.00  0.00    +0.000 C 
ATOM     20  N   UNL     1       2.200  11.806  18.122  0.00  0.00    +0.000 N 
ATOM     21  O   UNL     1       0.028  12.310  18.416  0.00  0.00    +0.000 OA
ATOM     22  H   UNL     1       2.886  11.055  18.074  0.00  0.00    +0.000 HD
ATOM     23  H   UNL     1       2.202  12.428  17.325  0.00  0.00    +0.000 HD
ENDBRANCH   7  19
TORSDOF 3
ENDMDL
MODEL 6
REMARK VINA RESULT:      -6.7      3.569      4.881
REMARK  Name = 
REMARK  4 active torsions:
REMARK  status: ('A' for Active; 'I' for Inactive)
REMARK    1  A    between atoms: C_1  and  C_2
REMARK    2  A    between atoms: C_2  and  N_3
REMARK    3  A    between atoms: C_6  and  N_7
REMARK    4  A    between atoms: C_13  and  C_14
REMARK                            x       y       z     vdW  Elec       q    Type
REMARK                         _______ _______ _______ _____ _____    ______ ____
ROOT
ATOM      1  N   UNL     1       2.628   6.125  18.870  0.00  0.00    +0.000 N 
ATOM      2  C   UNL     1       2.742   7.060  17.764  0.00  0.00    +0.000 C 
ATOM      3  C   UNL     1       2.195   8.321  18.335  0.00  0.00    +0.000 A 
ATOM      4  C   UNL     1       2.060   9.554  17.717  0.00  0.00    +0.000 A 
ATOM      5  C   UNL     1       1.467  10.588  18.442  0.00  0.00    +0.000 A 
ATOM      6  C   UNL     1       1.001  10.369  19.752  0.00  0.00    +0.000 A 
ATOM      7  C   UNL     1       1.126   9.111  20.371  0.00  0.00    +0.000 A 
ATOM      8  C   UNL     1       1.760   8.114  19.650  0.00  0.00    +0.000 A 
ATOM      9  C   UNL     1       2.107   6.728  20.002  0.00  0.00    +0.000 C 
ATOM     10  O   UNL     1       1.936   6.215  21.092  0.00  0.00    +0.000 OA
ENDROOT
BRANCH   1  14
ATOM     11  N   UNL     1       5.674   4.337  17.558  0.00  0.00    +0.000 NA
ATOM     12  C   UNL     1       5.552   4.857  18.928  0.00  0.00    +0.000 C 
ATOM     13  C   UNL     1       4.284   4.415  19.646  0.00  0.00    +0.000 C 
ATOM     14  C   UNL     1       3.025   4.710  18.838  0.00  0.00    +0.000 C 
ATOM     15  C   UNL     1       3.155   4.115  17.439  0.00  0.00    +0.000 C 
ATOM     16  C   UNL     1       4.459   4.492  16.742  0.00  0.00    +0.000 C 
BRANCH  11  18
ATOM     17  C   UNL     1       6.867   4.639  15.358  0.00  0.00    +0.000 C 
ATOM     18  C   UNL     1       6.804   4.965  16.844  0.00  0.00    +0.000 C 
ENDBRANCH  11  18
ENDBRANCH   1  14
BRANCH   7  19
ATOM     19  C   UNL     1       0.505   8.951  21.704  0.00  0.00    +0.000 C 
ATOM     20  N   UNL     1      -0.662   8.248  21.807  0.00  0.00    +0.000 N 
ATOM     21  O   UNL     1       0.988   9.495  22.691  0.00  0.00    +0.000 OA
ATOM     22  H   UNL     1      -0.893   7.524  21.129  0.00  0.00    +0.000 HD
ATOM     23  H   UNL     1      -0.978   8.058  22.748  0.00  0.00    +0.000 HD
ENDBRANCH   7  19
TORSDOF 3
ENDMDL
MODEL 7
REMARK VINA RESULT:      -6.7      1.462      1.607
REMARK  Name = 
REMARK  4 active torsions:
REMARK  status: ('A' for Active; 'I' for Inactive)
REMARK    1  A    between atoms: C_1  and  C_2
REMARK    2  A    between atoms: C_2  and  N_3
REMARK    3  A    between atoms: C_6  and  N_7
REMARK    4  A    between atoms: C_13  and  C_14
REMARK                            x       y       z     vdW  Elec       q    Type
REMARK                         _______ _______ _______ _____ _____    ______ ____
ROOT
ATOM      1  N   UNL     1       5.195   5.116  18.464  0.00  0.00    +0.000 N 
ATOM      2  C   UNL     1       4.475   6.377  18.515  0.00  0.00    +0.000 C 
ATOM      3  C   UNL     1       3.289   6.049  19.354  0.00  0.00    +0.000 A 
ATOM      4  C   UNL     1       2.251   6.885  19.734  0.00  0.00    +0.000 A 
ATOM      5  C   UNL     1       1.212   6.337  20.487  0.00  0.00    +0.000 A 
ATOM      6  C   UNL     1       1.214   4.971  20.824  0.00  0.00    +0.000 A 
ATOM      7  C   UNL     1       2.262   4.120  20.422  0.00  0.00    +0.000 A 
ATOM      8  C   UNL     1       3.305   4.696  19.716  0.00  0.00    +0.000 A 
ATOM      9  C   UNL     1       4.562   4.130  19.202  0.00  0.00    +0.000 C 
ATOM     10  O   UNL     1       4.947   2.990  19.384  0.00  0.00    +0.000 OA
ENDROOT
BRANCH   1  14
ATOM     11  N   UNL     1       7.994   7.386  17.368  0.00  0.00    +0.000 NA
ATOM     12  C   UNL     1       7.951   6.703  18.669  0.00  0.00    +0.000 C 
ATOM     13  C   UNL     1       7.695   5.205  18.571  0.00  0.00    +0.000 C 
ATOM     14  C   UNL     1       6.455   4.881  17.744  0.00  0.00    +0.000 C 
ATOM     15  C   UNL     1       6.549   5.558  16.381  0.00  0.00    +0.000 C 
ATOM     16  C   UNL     1       6.882   7.045  16.468  0.00  0.00    +0.000 C 
BRANCH  11  18
ATOM     17  C   UNL     1       8.817   9.329  18.748  0.00  0.00    +0.000 C 
ATOM     18  C   UNL     1       8.032   8.854  17.534  0.00  0.00    +0.000 C 
ENDBRANCH  11  18
ENDBRANCH   1  14
BRANCH   7  19
ATOM     19  C   UNL     1       2.117   2.681  20.727  0.00  0.00    +0.000 C 
ATOM     20  N   UNL     1       2.333   2.254  22.007  0.00  0.00    +0.000 N 
ATOM     21  O   UNL     1       1.877   1.872  19.838  0.00  0.00    +0.000 OA
ATOM     22  H   UNL     1       2.188   2.883  22.795  0.00  0.00    +0.000 HD
ATOM     23  H   UNL     1       2.100   1.288  22.192  0.00  0.00    +0.000 HD
ENDBRANCH   7  19
TORSDOF 3
ENDMDL
MODEL 8
REMARK VINA RESULT:      -6.6      1.862      2.931
REMARK  Name = 
REMARK  4 active torsions:
REMARK  status: ('A' for Active; 'I' for Inactive)
REMARK    1  A    between atoms: C_1  and  C_2
REMARK    2  A    between atoms: C_2  and  N_3
REMARK    3  A    between atoms: C_6  and  N_7
REMARK    4  A    between atoms: C_13  and  C_14
REMARK                            x       y       z     vdW  Elec       q    Type
REMARK                         _______ _______ _______ _____ _____    ______ ____
ROOT
ATOM      1  N   UNL     1       4.370   6.119  18.269  0.00  0.00    +0.000 N 
ATOM      2  C   UNL     1       3.103   6.531  18.848  0.00  0.00    +0.000 C 
ATOM      3  C   UNL     1       2.626   5.292  19.522  0.00  0.00    +0.000 A 
ATOM      4  C   UNL     1       1.457   5.104  20.242  0.00  0.00    +0.000 A 
ATOM      5  C   UNL     1       1.195   3.829  20.744  0.00  0.00    +0.000 A 
ATOM      6  C   UNL     1       2.086   2.766  20.501  0.00  0.00    +0.000 A 
ATOM      7  C   UNL     1       3.265   2.957  19.755  0.00  0.00    +0.000 A 
ATOM      8  C   UNL     1       3.527   4.240  19.308  0.00  0.00    +0.000 A 
ATOM      9  C   UNL     1       4.669   4.800  18.567  0.00  0.00    +0.000 C 
ATOM     10  O   UNL     1       5.676   4.190  18.261  0.00  0.00    +0.000 OA
ENDROOT
BRANCH   1  14
ATOM     11  N   UNL     1       6.631   5.447  15.331  0.00  0.00    +0.000 NA
ATOM     12  C   UNL     1       5.220   5.840  15.210  0.00  0.00    +0.000 C 
ATOM     13  C   UNL     1       4.854   7.083  16.010  0.00  0.00    +0.000 C 
ATOM     14  C   UNL     1       5.264   6.973  17.474  0.00  0.00    +0.000 C 
ATOM     15  C   UNL     1       6.744   6.616  17.573  0.00  0.00    +0.000 C 
ATOM     16  C   UNL     1       7.134   5.417  16.714  0.00  0.00    +0.000 C 
BRANCH  11  18
ATOM     17  C   UNL     1       6.027   3.843  13.482  0.00  0.00    +0.000 C 
ATOM     18  C   UNL     1       6.876   4.127  14.713  0.00  0.00    +0.000 C 
ENDBRANCH  11  18
ENDBRANCH   1  14
BRANCH   7  19
ATOM     19  C   UNL     1       4.077   1.757  19.459  0.00  0.00    +0.000 C 
ATOM     20  N   UNL     1       5.232   1.554  20.160  0.00  0.00    +0.000 N 
ATOM     21  O   UNL     1       3.761   0.993  18.554  0.00  0.00    +0.000 OA
ATOM     22  H   UNL     1       5.343   1.934  21.098  0.00  0.00    +0.000 HD
ATOM     23  H   UNL     1       5.683   0.662  20.012  0.00  0.00    +0.000 HD
ENDBRANCH   7  19
TORSDOF 3
ENDMDL
MODEL 9
REMARK VINA RESULT:      -6.5      1.978      2.245
REMARK  Name = 
REMARK  4 active torsions:
REMARK  status: ('A' for Active; 'I' for Inactive)
REMARK    1  A    between atoms: C_1  and  C_2
REMARK    2  A    between atoms: C_2  and  N_3
REMARK    3  A    between atoms: C_6  and  N_7
REMARK    4  A    between atoms: C_13  and  C_14
REMARK                            x       y       z     vdW  Elec       q    Type
REMARK                         _______ _______ _______ _____ _____    ______ ____
ROOT
ATOM      1  N   UNL     1       5.326   4.145  17.455  0.00  0.00    +0.000 N 
ATOM      2  C   UNL     1       4.139   4.389  16.652  0.00  0.00    +0.000 C 
ATOM      3  C   UNL     1       3.029   4.097  17.600  0.00  0.00    +0.000 A 
ATOM      4  C   UNL     1       1.664   4.166  17.369  0.00  0.00    +0.000 A 
ATOM      5  C   UNL     1       0.805   3.793  18.403  0.00  0.00    +0.000 A 
ATOM      6  C   UNL     1       1.319   3.339  19.632  0.00  0.00    +0.000 A 
ATOM      7  C   UNL     1       2.706   3.254  19.858  0.00  0.00    +0.000 A 
ATOM      8  C   UNL     1       3.538   3.675  18.835  0.00  0.00    +0.000 A 
ATOM      9  C   UNL     1       5.004   3.777  18.751  0.00  0.00    +0.000 C 
ATOM     10  O   UNL     1       5.778   3.553  19.662  0.00  0.00    +0.000 OA
ENDROOT
BRANCH   1  14
ATOM     11  N   UNL     1       7.679   7.075  17.195  0.00  0.00    +0.000 NA
ATOM     12  C   UNL     1       7.562   6.217  18.383  0.00  0.00    +0.000 C 
ATOM     13  C   UNL     1       7.677   4.728  18.085  0.00  0.00    +0.000 C 
ATOM     14  C   UNL     1       6.714   4.279  16.991  0.00  0.00    +0.000 C 
ATOM     15  C   UNL     1       6.892   5.150  15.752  0.00  0.00    +0.000 C 
ATOM     16  C   UNL     1       6.854   6.645  16.056  0.00  0.00    +0.000 C 
BRANCH  11  18
ATOM     17  C   UNL     1       8.461   9.242  18.218  0.00  0.00    +0.000 C 
ATOM     18  C   UNL     1       7.349   8.480  17.512  0.00  0.00    +0.000 C 
ENDBRANCH  11  18
ENDBRANCH   1  14
BRANCH   7  19
ATOM     19  C   UNL     1       3.146   2.659  21.139  0.00  0.00    +0.000 C 
ATOM     20  N   UNL     1       4.188   1.775  21.130  0.00  0.00    +0.000 N 
ATOM     21  O   UNL     1       2.546   2.897  22.181  0.00  0.00    +0.000 OA
ATOM     22  H   UNL     1       4.900   1.819  20.403  0.00  0.00    +0.000 HD
ATOM     23  H   UNL     1       4.532   1.495  22.038  0.00  0.00    +0.000 HD
ENDBRANCH   7  19
TORSDOF 3
ENDMDL
