MODEL 1
REMARK VINA RESULT:      -7.3      0.000      0.000
REMARK  Name = 
REMARK  3 active torsions:
REMARK  status: ('A' for Active; 'I' for Inactive)
REMARK    1  A    between atoms: S_2  and  C_4
REMARK    2  A    between atoms: S_2  and  N_10
REMARK    3  A    between atoms: C_12  and  C_13
REMARK                            x       y       z     vdW  Elec       q    Type
REMARK                         _______ _______ _______ _____ _____    ______ ____
ROOT
ATOM      1  O   UNL     1       5.143   3.490  19.244  0.00  0.00    +0.000 OA
ATOM      2  S   UNL     1       5.796   4.688  18.768  0.00  0.00    +0.000 S 
ATOM      3  O   UNL     1       7.160   5.005  19.150  0.00  0.00    +0.000 OA
ENDROOT
BRANCH   2   4
ATOM      4  C   UNL     1       5.893   4.480  16.987  0.00  0.00    +0.000 A 
ATOM      5  C   UNL     1       5.057   3.866  16.067  0.00  0.00    +0.000 A 
ATOM      6  C   UNL     1       5.523   4.008  14.723  0.00  0.00    +0.000 A 
ATOM      7  C   UNL     1       6.702   4.707  14.686  0.00  0.00    +0.000 A 
ATOM      8 CL   UNL     1       7.602   5.126  13.285  0.00  0.00    +0.000 Cl
ATOM      9  S   UNL     1       7.263   5.171  16.215  0.00  0.00    +0.000 S 
ENDBRANCH   2   4
BRANCH   2  10
ATOM     10  N   UNL     1       4.849   6.053  19.050  0.00  0.00    +0.000 NA
ATOM     11  C   UNL     1       3.867   6.460  18.069  0.00  0.00    +0.000 C 
ATOM     12  C   UNL     1       3.440   5.915  19.437  0.00  0.00    +0.000 C 
BRANCH  12  13
ATOM     13  C   UNL     1       2.443   4.781  19.369  0.00  0.00    +0.000 A 
ATOM     14  C   UNL     1       2.055   4.128  18.191  0.00  0.00    +0.000 A 
ATOM     15  C   UNL     1       1.194   3.020  18.222  0.00  0.00    +0.000 A 
ATOM     16  C   UNL     1       0.710   2.531  19.434  0.00  0.00    +0.000 A 
ATOM     17  C   UNL     1       1.082   3.151  20.619  0.00  0.00    +0.000 A 
ATOM     18  C   UNL     1       1.935   4.257  20.580  0.00  0.00    +0.000 A 
ENDBRANCH  12  13
ENDBRANCH   2  10
TORSDOF 3
ENDMDL
MODEL 2
REMARK VINA RESULT:      -7.1      0.178      1.143
REMARK  Name = 
REMARK  3 active torsions:
REMARK  status: ('A' for Active; 'I' for Inactive)
REMARK    1  A    between atoms: S_2  and  C_4
REMARK    2  A    between atoms: S_2  and  N_10
REMARK    3  A    between atoms: C_12  and  C_13
REMARK                            x       y       z     vdW  Elec       q    Type
REMARK                         _______ _______ _______ _____ _____    ______ ____
ROOT
ATOM      1  O   UNL     1       5.268   3.586  19.424  0.00  0.00    +0.000 OA
ATOM      2  S   UNL     1       5.831   4.809  18.899  0.00  0.00    +0.000 S 
ATOM      3  O   UNL     1       7.161   5.249  19.276  0.00  0.00    +0.000 OA
ENDROOT
BRANCH   2   4
ATOM      4  C   UNL     1       5.964   4.529  17.130  0.00  0.00    +0.000 A 
ATOM      5  C   UNL     1       5.213   3.779  16.239  0.00  0.00    +0.000 A 
ATOM      6  C   UNL     1       5.669   3.910  14.890  0.00  0.00    +0.000 A 
ATOM      7  C   UNL     1       6.757   4.740  14.822  0.00  0.00    +0.000 A 
ATOM      8 CL   UNL     1       7.612   5.194  13.403  0.00  0.00    +0.000 Cl
ATOM      9  S   UNL     1       7.250   5.339  16.327  0.00  0.00    +0.000 S 
ENDBRANCH   2   4
BRANCH   2  10
ATOM     10  N   UNL     1       4.776   6.107  19.110  0.00  0.00    +0.000 NA
ATOM     11  C   UNL     1       3.758   6.372  18.119  0.00  0.00    +0.000 C 
ATOM     12  C   UNL     1       3.386   5.878  19.521  0.00  0.00    +0.000 C 
BRANCH  12  13
ATOM     13  C   UNL     1       2.486   4.664  19.533  0.00  0.00    +0.000 A 
ATOM     14  C   UNL     1       1.949   4.078  20.689  0.00  0.00    +0.000 A 
ATOM     15  C   UNL     1       1.044   3.009  20.611  0.00  0.00    +0.000 A 
ATOM     16  C   UNL     1       0.644   2.507  19.374  0.00  0.00    +0.000 A 
ATOM     17  C   UNL     1       1.152   3.069  18.211  0.00  0.00    +0.000 A 
ATOM     18  C   UNL     1       2.056   4.130  18.296  0.00  0.00    +0.000 A 
ENDBRANCH  12  13
ENDBRANCH   2  10
TORSDOF 3
ENDMDL
MODEL 3
REMARK VINA RESULT:      -7.1      0.967      1.162
REMARK  Name = 
REMARK  3 active torsions:
REMARK  status: ('A' for Active; 'I' for Inactive)
REMARK    1  A    between atoms: S_2  and  C_4
REMARK    2  A    between atoms: S_2  and  N_10
REMARK    3  A    between atoms: C_12  and  C_13
REMARK                            x       y       z     vdW  Elec       q    Type
REMARK                         _______ _______ _______ _____ _____    ______ ____
ROOT
ATOM      1  O   UNL     1       4.923   3.581  19.033  0.00  0.00    +0.000 OA
ATOM      2  S   UNL     1       5.642   4.821  18.850  0.00  0.00    +0.000 S 
ATOM      3  O   UNL     1       6.887   5.081  19.549  0.00  0.00    +0.000 OA
ENDROOT
BRANCH   2   4
ATOM      4  C   UNL     1       6.120   4.823  17.120  0.00  0.00    +0.000 A 
ATOM      5  C   UNL     1       7.133   5.467  16.426  0.00  0.00    +0.000 A 
ATOM      6  C   UNL     1       7.163   5.111  15.042  0.00  0.00    +0.000 A 
ATOM      7  C   UNL     1       6.160   4.226  14.744  0.00  0.00    +0.000 A 
ATOM      8 CL   UNL     1       5.838   3.520  13.212  0.00  0.00    +0.000 Cl
ATOM      9  S   UNL     1       5.182   3.837  16.071  0.00  0.00    +0.000 S 
ENDBRANCH   2   4
BRANCH   2  10
ATOM     10  N   UNL     1       4.631   6.151  19.080  0.00  0.00    +0.000 NA
ATOM     11  C   UNL     1       3.633   6.474  18.085  0.00  0.00    +0.000 C 
ATOM     12  C   UNL     1       3.230   5.962  19.472  0.00  0.00    +0.000 C 
BRANCH  12  13
ATOM     13  C   UNL     1       2.287   4.782  19.448  0.00  0.00    +0.000 A 
ATOM     14  C   UNL     1       1.821   4.154  18.283  0.00  0.00    +0.000 A 
ATOM     15  C   UNL     1       1.021   3.003  18.346  0.00  0.00    +0.000 A 
ATOM     16  C   UNL     1       0.678   2.444  19.575  0.00  0.00    +0.000 A 
ATOM     17  C   UNL     1       1.128   3.037  20.746  0.00  0.00    +0.000 A 
ATOM     18  C   UNL     1       1.920   4.186  20.676  0.00  0.00    +0.000 A 
ENDBRANCH  12  13
ENDBRANCH   2  10
TORSDOF 3
ENDMDL
MODEL 4
REMARK VINA RESULT:      -6.8      2.394      3.632
REMARK  Name = 
REMARK  3 active torsions:
REMARK  status: ('A' for Active; 'I' for Inactive)
REMARK    1  A    between atoms: S_2  and  C_4
REMARK    2  A    between atoms: S_2  and  N_10
REMARK    3  A    between atoms: C_12  and  C_13
REMARK                            x       y       z     vdW  Elec       q    Type
REMARK                         _______ _______ _______ _____ _____    ______ ____
ROOT
ATOM      1  O   UNL     1       4.244   0.900  18.597  0.00  0.00    +0.000 OA
ATOM      2  S   UNL     1       3.618   2.147  18.973  0.00  0.00    +0.000 S 
ATOM      3  O   UNL     1       3.666   2.632  20.340  0.00  0.00    +0.000 OA
ENDROOT
BRANCH   2   4
ATOM      4  C   UNL     1       4.508   3.403  18.048  0.00  0.00    +0.000 A 
ATOM      5  C   UNL     1       4.637   3.654  16.691  0.00  0.00    +0.000 A 
ATOM      6  C   UNL     1       5.412   4.825  16.420  0.00  0.00    +0.000 A 
ATOM      7  C   UNL     1       5.851   5.398  17.585  0.00  0.00    +0.000 A 
ATOM      8 CL   UNL     1       6.793   6.827  17.732  0.00  0.00    +0.000 Cl
ATOM      9  S   UNL     1       5.376   4.558  18.976  0.00  0.00    +0.000 S 
ENDBRANCH   2   4
BRANCH   2  10
ATOM     10  N   UNL     1       2.015   2.205  18.458  0.00  0.00    +0.000 NA
ATOM     11  C   UNL     1       0.964   2.478  19.413  0.00  0.00    +0.000 C 
ATOM     12  C   UNL     1       1.322   3.492  18.321  0.00  0.00    +0.000 C 
BRANCH  12  13
ATOM     13  C   UNL     1       1.596   4.887  18.835  0.00  0.00    +0.000 A 
ATOM     14  C   UNL     1       1.526   5.269  20.183  0.00  0.00    +0.000 A 
ATOM     15  C   UNL     1       1.887   6.562  20.592  0.00  0.00    +0.000 A 
ATOM     16  C   UNL     1       2.338   7.500  19.665  0.00  0.00    +0.000 A 
ATOM     17  C   UNL     1       2.426   7.150  18.325  0.00  0.00    +0.000 A 
ATOM     18  C   UNL     1       2.060   5.863  17.924  0.00  0.00    +0.000 A 
ENDBRANCH  12  13
ENDBRANCH   2  10
TORSDOF 3
ENDMDL
MODEL 5
REMARK VINA RESULT:      -6.7      2.352      3.446
REMARK  Name = 
REMARK  3 active torsions:
REMARK  status: ('A' for Active; 'I' for Inactive)
REMARK    1  A    between atoms: S_2  and  C_4
REMARK    2  A    between atoms: S_2  and  N_10
REMARK    3  A    between atoms: C_12  and  C_13
REMARK                            x       y       z     vdW  Elec       q    Type
REMARK                         _______ _______ _______ _____ _____    ______ ____
ROOT
ATOM      1  O   UNL     1       4.140   0.918  18.508  0.00  0.00    +0.000 OA
ATOM      2  S   UNL     1       3.589   2.194  18.903  0.00  0.00    +0.000 S 
ATOM      3  O   UNL     1       3.660   2.653  20.278  0.00  0.00    +0.000 OA
ENDROOT
BRANCH   2   4
ATOM      4  C   UNL     1       4.555   3.410  18.001  0.00  0.00    +0.000 A 
ATOM      5  C   UNL     1       4.682   3.693  16.650  0.00  0.00    +0.000 A 
ATOM      6  C   UNL     1       5.537   4.811  16.401  0.00  0.00    +0.000 A 
ATOM      7  C   UNL     1       6.034   5.315  17.575  0.00  0.00    +0.000 A 
ATOM      8 CL   UNL     1       7.080   6.666  17.749  0.00  0.00    +0.000 Cl
ATOM      9  S   UNL     1       5.519   4.470  18.949  0.00  0.00    +0.000 S 
ENDBRANCH   2   4
BRANCH   2  10
ATOM     10  N   UNL     1       1.993   2.357  18.385  0.00  0.00    +0.000 NA
ATOM     11  C   UNL     1       0.955   2.665  19.344  0.00  0.00    +0.000 C 
ATOM     12  C   UNL     1       1.375   3.684  18.279  0.00  0.00    +0.000 C 
BRANCH  12  13
ATOM     13  C   UNL     1       1.726   5.047  18.829  0.00  0.00    +0.000 A 
ATOM     14  C   UNL     1       2.232   6.110  18.067  0.00  0.00    +0.000 A 
ATOM     15  C   UNL     1       2.444   7.376  18.633  0.00  0.00    +0.000 A 
ATOM     16  C   UNL     1       2.144   7.614  19.973  0.00  0.00    +0.000 A 
ATOM     17  C   UNL     1       1.635   6.584  20.753  0.00  0.00    +0.000 A 
ATOM     18  C   UNL     1       1.431   5.325  20.183  0.00  0.00    +0.000 A 
ENDBRANCH  12  13
ENDBRANCH   2  10
TORSDOF 3
ENDMDL
MODEL 6
REMARK VINA RESULT:      -6.7      3.897      5.650
REMARK  Name = 
REMARK  3 active torsions:
REMARK  status: ('A' for Active; 'I' for Inactive)
REMARK    1  A    between atoms: S_2  and  C_4
REMARK    2  A    between atoms: S_2  and  N_10
REMARK    3  A    between atoms: C_12  and  C_13
REMARK                            x       y       z     vdW  Elec       q    Type
REMARK                         _______ _______ _______ _____ _____    ______ ____
ROOT
ATOM      1  O   UNL     1       0.545   2.938  19.565  0.00  0.00    +0.000 OA
ATOM      2  S   UNL     1       1.738   3.273  18.822  0.00  0.00    +0.000 S 
ATOM      3  O   UNL     1       1.794   3.124  17.380  0.00  0.00    +0.000 OA
ENDROOT
BRANCH   2   4
ATOM      4  C   UNL     1       1.954   5.038  19.074  0.00  0.00    +0.000 A 
ATOM      5  C   UNL     1       2.333   6.067  18.226  0.00  0.00    +0.000 A 
ATOM      6  C   UNL     1       2.306   7.345  18.868  0.00  0.00    +0.000 A 
ATOM      7  C   UNL     1       1.924   7.224  20.179  0.00  0.00    +0.000 A 
ATOM      8 CL   UNL     1       1.737   8.500  21.313  0.00  0.00    +0.000 Cl
ATOM      9  S   UNL     1       1.624   5.627  20.653  0.00  0.00    +0.000 S 
ENDBRANCH   2   4
BRANCH   2  10
ATOM     10  N   UNL     1       3.096   2.517  19.475  0.00  0.00    +0.000 NA
ATOM     11  C   UNL     1       3.941   1.705  18.628  0.00  0.00    +0.000 C 
ATOM     12  C   UNL     1       4.441   3.036  19.202  0.00  0.00    +0.000 C 
BRANCH  12  13
ATOM     13  C   UNL     1       5.007   3.983  18.169  0.00  0.00    +0.000 A 
ATOM     14  C   UNL     1       4.857   3.835  16.782  0.00  0.00    +0.000 A 
ATOM     15  C   UNL     1       5.332   4.810  15.891  0.00  0.00    +0.000 A 
ATOM     16  C   UNL     1       5.957   5.961  16.365  0.00  0.00    +0.000 A 
ATOM     17  C   UNL     1       6.114   6.141  17.733  0.00  0.00    +0.000 A 
ATOM     18  C   UNL     1       5.643   5.164  18.614  0.00  0.00    +0.000 A 
ENDBRANCH  12  13
ENDBRANCH   2  10
TORSDOF 3
ENDMDL
MODEL 7
REMARK VINA RESULT:      -6.6      1.181      1.775
REMARK  Name = 
REMARK  3 active torsions:
REMARK  status: ('A' for Active; 'I' for Inactive)
REMARK    1  A    between atoms: S_2  and  C_4
REMARK    2  A    between atoms: S_2  and  N_10
REMARK    3  A    between atoms: C_12  and  C_13
REMARK                            x       y       z     vdW  Elec       q    Type
REMARK                         _______ _______ _______ _____ _____    ______ ____
ROOT
ATOM      1  O   UNL     1       4.794   3.375  18.350  0.00  0.00    +0.000 OA
ATOM      2  S   UNL     1       5.521   4.619  18.247  0.00  0.00    +0.000 S 
ATOM      3  O   UNL     1       6.720   4.859  19.028  0.00  0.00    +0.000 OA
ENDROOT
BRANCH   2   4
ATOM      4  C   UNL     1       6.106   4.668  16.549  0.00  0.00    +0.000 A 
ATOM      5  C   UNL     1       7.155   5.336  15.936  0.00  0.00    +0.000 A 
ATOM      6  C   UNL     1       7.273   5.015  14.548  0.00  0.00    +0.000 A 
ATOM      7  C   UNL     1       6.297   4.131  14.167  0.00  0.00    +0.000 A 
ATOM      8 CL   UNL     1       6.077   3.462  12.601  0.00  0.00    +0.000 Cl
ATOM      9  S   UNL     1       5.243   3.703  15.420  0.00  0.00    +0.000 S 
ENDBRANCH   2   4
BRANCH   2  10
ATOM     10  N   UNL     1       4.497   5.943  18.449  0.00  0.00    +0.000 NA
ATOM     11  C   UNL     1       3.193   5.943  17.823  0.00  0.00    +0.000 C 
ATOM     12  C   UNL     1       3.339   5.858  19.347  0.00  0.00    +0.000 C 
BRANCH  12  13
ATOM     13  C   UNL     1       2.588   4.709  19.979  0.00  0.00    +0.000 A 
ATOM     14  C   UNL     1       2.803   4.233  21.280  0.00  0.00    +0.000 A 
ATOM     15  C   UNL     1       1.999   3.222  21.829  0.00  0.00    +0.000 A 
ATOM     16  C   UNL     1       0.951   2.672  21.093  0.00  0.00    +0.000 A 
ATOM     17  C   UNL     1       0.708   3.126  19.804  0.00  0.00    +0.000 A 
ATOM     18  C   UNL     1       1.516   4.129  19.263  0.00  0.00    +0.000 A 
ENDBRANCH  12  13
ENDBRANCH   2  10
TORSDOF 3
ENDMDL
MODEL 8
REMARK VINA RESULT:      -6.6      2.438      3.673
REMARK  Name = 
REMARK  3 active torsions:
REMARK  status: ('A' for Active; 'I' for Inactive)
REMARK    1  A    between atoms: S_2  and  C_4
REMARK    2  A    between atoms: S_2  and  N_10
REMARK    3  A    between atoms: C_12  and  C_13
REMARK                            x       y       z     vdW  Elec       q    Type
REMARK                         _______ _______ _______ _____ _____    ______ ____
ROOT
ATOM      1  O   UNL     1       4.198   0.915  18.604  0.00  0.00    +0.000 OA
ATOM      2  S   UNL     1       3.491   2.107  19.015  0.00  0.00    +0.000 S 
ATOM      3  O   UNL     1       3.174   2.351  20.410  0.00  0.00    +0.000 OA
ENDROOT
BRANCH   2   4
ATOM      4  C   UNL     1       4.589   3.462  18.587  0.00  0.00    +0.000 A 
ATOM      5  C   UNL     1       5.215   4.438  19.346  0.00  0.00    +0.000 A 
ATOM      6  C   UNL     1       6.061   5.284  18.563  0.00  0.00    +0.000 A 
ATOM      7  C   UNL     1       6.024   4.921  17.241  0.00  0.00    +0.000 A 
ATOM      8 CL   UNL     1       6.899   5.648  15.955  0.00  0.00    +0.000 Cl
ATOM      9  S   UNL     1       4.991   3.618  16.924  0.00  0.00    +0.000 S 
ENDBRANCH   2   4
BRANCH   2  10
ATOM     10  N   UNL     1       2.080   2.319  18.118  0.00  0.00    +0.000 NA
ATOM     11  C   UNL     1       0.825   2.551  18.798  0.00  0.00    +0.000 C 
ATOM     12  C   UNL     1       1.488   3.653  17.964  0.00  0.00    +0.000 C 
BRANCH  12  13
ATOM     13  C   UNL     1       1.662   4.964  18.695  0.00  0.00    +0.000 A 
ATOM     14  C   UNL     1       1.434   5.151  20.066  0.00  0.00    +0.000 A 
ATOM     15  C   UNL     1       1.709   6.378  20.689  0.00  0.00    +0.000 A 
ATOM     16  C   UNL     1       2.230   7.444  19.959  0.00  0.00    +0.000 A 
ATOM     17  C   UNL     1       2.474   7.289  18.601  0.00  0.00    +0.000 A 
ATOM     18  C   UNL     1       2.193   6.066  17.986  0.00  0.00    +0.000 A 
ENDBRANCH  12  13
ENDBRANCH   2  10
TORSDOF 3
ENDMDL
MODEL 9
REMARK VINA RESULT:      -6.6      3.473      5.338
REMARK  Name = 
REMARK  3 active torsions:
REMARK  status: ('A' for Active; 'I' for Inactive)
REMARK    1  A    between atoms: S_2  and  C_4
REMARK    2  A    between atoms: S_2  and  N_10
REMARK    3  A    between atoms: C_12  and  C_13
REMARK                            x       y       z     vdW  Elec       q    Type
REMARK                         _______ _______ _______ _____ _____    ______ ____
ROOT
ATOM      1  O   UNL     1       0.454   2.819  19.659  0.00  0.00    +0.000 OA
ATOM      2  S   UNL     1       1.636   3.168  18.905  0.00  0.00    +0.000 S 
ATOM      3  O   UNL     1       1.662   3.074  17.458  0.00  0.00    +0.000 OA
ENDROOT
BRANCH   2   4
ATOM      4  C   UNL     1       1.879   4.919  19.219  0.00  0.00    +0.000 A 
ATOM      5  C   UNL     1       2.035   5.652  20.386  0.00  0.00    +0.000 A 
ATOM      6  C   UNL     1       2.266   7.040  20.136  0.00  0.00    +0.000 A 
ATOM      7  C   UNL     1       2.257   7.302  18.791  0.00  0.00    +0.000 A 
ATOM      8 CL   UNL     1       2.513   8.826  18.042  0.00  0.00    +0.000 Cl
ATOM      9  S   UNL     1       1.959   5.936  17.836  0.00  0.00    +0.000 S 
ENDBRANCH   2   4
BRANCH   2  10
ATOM     10  N   UNL     1       2.997   2.372  19.501  0.00  0.00    +0.000 NA
ATOM     11  C   UNL     1       3.829   1.602  18.602  0.00  0.00    +0.000 C 
ATOM     12  C   UNL     1       4.342   2.898  19.240  0.00  0.00    +0.000 C 
BRANCH  12  13
ATOM     13  C   UNL     1       4.901   3.896  18.252  0.00  0.00    +0.000 A 
ATOM     14  C   UNL     1       4.830   3.766  16.857  0.00  0.00    +0.000 A 
ATOM     15  C   UNL     1       5.289   4.783  16.006  0.00  0.00    +0.000 A 
ATOM     16  C   UNL     1       5.820   5.960  16.530  0.00  0.00    +0.000 A 
ATOM     17  C   UNL     1       5.898   6.122  17.906  0.00  0.00    +0.000 A 
ATOM     18  C   UNL     1       5.444   5.104  18.747  0.00  0.00    +0.000 A 
ENDBRANCH  12  13
ENDBRANCH   2  10
TORSDOF 3
ENDMDL
