MODEL 1
REMARK VINA RESULT:      -5.6      0.000      0.000
REMARK  Name = 
REMARK  2 active torsions:
REMARK  status: ('A' for Active; 'I' for Inactive)
REMARK    1  A    between atoms: N_1  and  C_2
REMARK    2  A    between atoms: C_6  and  N_7
REMARK                            x       y       z     vdW  Elec       q    Type
REMARK                         _______ _______ _______ _____ _____    ______ ____
ROOT
ATOM      1  C   UNL     1       5.621   4.433  18.147  0.00  0.00    +0.000 A 
ATOM      2  C   UNL     1       4.858   3.948  17.066  0.00  0.00    +0.000 A 
ATOM      3 CL   UNL     1       3.319   3.203  17.342  0.00  0.00    +0.000 Cl
ATOM      4  C   UNL     1       5.298   4.071  15.746  0.00  0.00    +0.000 A 
ATOM      5  C   UNL     1       6.542   4.657  15.493  0.00  0.00    +0.000 A 
ATOM      6  C   UNL     1       7.341   5.121  16.543  0.00  0.00    +0.000 A 
ATOM      7  C   UNL     1       6.883   4.991  17.857  0.00  0.00    +0.000 A 
ATOM      8 CL   UNL     1       7.904   5.566  19.131  0.00  0.00    +0.000 Cl
ENDROOT
BRANCH   1   9
ATOM      9  N   UNL     1       5.243   4.158  19.478  0.00  0.00    +0.000 N 
ATOM     10  H   UNL     1       5.558   3.252  19.818  0.00  0.00    +0.000 HD
ATOM     11  H   UNL     1       4.265   4.352  19.678  0.00  0.00    +0.000 HD
ENDBRANCH   1   9
BRANCH   5  12
ATOM     12  N   UNL     1       7.022   4.773  14.111  0.00  0.00    +0.000 N 
ATOM     13  O   UNL     1       6.513   4.029  13.261  0.00  0.00    +0.000 OA
ATOM     14  O   UNL     1       7.907   5.607  13.879  0.00  0.00    +0.000 OA
ENDBRANCH   5  12
TORSDOF 2
ENDMDL
MODEL 2
REMARK VINA RESULT:      -5.6      0.198      2.635
REMARK  Name = 
REMARK  2 active torsions:
REMARK  status: ('A' for Active; 'I' for Inactive)
REMARK    1  A    between atoms: N_1  and  C_2
REMARK    2  A    between atoms: C_6  and  N_7
REMARK                            x       y       z     vdW  Elec       q    Type
REMARK                         _______ _______ _______ _____ _____    ______ ____
ROOT
ATOM      1  C   UNL     1       5.535   4.459  18.083  0.00  0.00    +0.000 A 
ATOM      2  C   UNL     1       6.821   4.972  17.819  0.00  0.00    +0.000 A 
ATOM      3 CL   UNL     1       7.836   5.507  19.116  0.00  0.00    +0.000 Cl
ATOM      4  C   UNL     1       7.328   5.043  16.519  0.00  0.00    +0.000 A 
ATOM      5  C   UNL     1       6.527   4.629  15.451  0.00  0.00    +0.000 A 
ATOM      6  C   UNL     1       5.233   4.144  15.672  0.00  0.00    +0.000 A 
ATOM      7  C   UNL     1       4.745   4.078  16.980  0.00  0.00    +0.000 A 
ATOM      8 CL   UNL     1       3.136   3.484  17.214  0.00  0.00    +0.000 Cl
ENDROOT
BRANCH   1   9
ATOM      9  N   UNL     1       4.976   4.543  19.376  0.00  0.00    +0.000 N 
ATOM     10  H   UNL     1       4.909   3.649  19.856  0.00  0.00    +0.000 HD
ATOM     11  H   UNL     1       4.123   5.096  19.422  0.00  0.00    +0.000 HD
ENDBRANCH   1   9
BRANCH   5  12
ATOM     12  N   UNL     1       7.042   4.718  14.079  0.00  0.00    +0.000 N 
ATOM     13  O   UNL     1       6.514   3.999  13.220  0.00  0.00    +0.000 OA
ATOM     14  O   UNL     1       7.974   5.506  13.866  0.00  0.00    +0.000 OA
ENDBRANCH   5  12
TORSDOF 2
ENDMDL
MODEL 3
REMARK VINA RESULT:      -5.5      2.700      3.421
REMARK  Name = 
REMARK  2 active torsions:
REMARK  status: ('A' for Active; 'I' for Inactive)
REMARK    1  A    between atoms: N_1  and  C_2
REMARK    2  A    between atoms: C_6  and  N_7
REMARK                            x       y       z     vdW  Elec       q    Type
REMARK                         _______ _______ _______ _____ _____    ______ ____
ROOT
ATOM      1  C   UNL     1       3.078   4.897  17.858  0.00  0.00    +0.000 A 
ATOM      2  C   UNL     1       3.634   6.182  17.700  0.00  0.00    +0.000 A 
ATOM      3 CL   UNL     1       2.672   7.595  17.974  0.00  0.00    +0.000 Cl
ATOM      4  C   UNL     1       4.974   6.361  17.345  0.00  0.00    +0.000 A 
ATOM      5  C   UNL     1       5.772   5.239  17.106  0.00  0.00    +0.000 A 
ATOM      6  C   UNL     1       5.245   3.948  17.222  0.00  0.00    +0.000 A 
ATOM      7  C   UNL     1       3.904   3.789  17.580  0.00  0.00    +0.000 A 
ATOM      8 CL   UNL     1       3.284   2.177  17.702  0.00  0.00    +0.000 Cl
ENDROOT
BRANCH   1   9
ATOM      9  N   UNL     1       1.690   4.730  18.055  0.00  0.00    +0.000 N 
ATOM     10  H   UNL     1       1.116   5.364  17.505  0.00  0.00    +0.000 HD
ATOM     11  H   UNL     1       1.416   4.676  19.034  0.00  0.00    +0.000 HD
ENDBRANCH   1   9
BRANCH   5  12
ATOM     12  N   UNL     1       7.175   5.416  16.714  0.00  0.00    +0.000 N 
ATOM     13  O   UNL     1       7.912   4.421  16.752  0.00  0.00    +0.000 OA
ATOM     14  O   UNL     1       7.537   6.550  16.370  0.00  0.00    +0.000 OA
ENDBRANCH   5  12
TORSDOF 2
ENDMDL
MODEL 4
REMARK VINA RESULT:      -5.5      2.706      3.043
REMARK  Name = 
REMARK  2 active torsions:
REMARK  status: ('A' for Active; 'I' for Inactive)
REMARK    1  A    between atoms: N_1  and  C_2
REMARK    2  A    between atoms: C_6  and  N_7
REMARK                            x       y       z     vdW  Elec       q    Type
REMARK                         _______ _______ _______ _____ _____    ______ ____
ROOT
ATOM      1  C   UNL     1       3.046   4.937  17.782  0.00  0.00    +0.000 A 
ATOM      2  C   UNL     1       3.877   3.821  17.556  0.00  0.00    +0.000 A 
ATOM      3 CL   UNL     1       3.245   2.215  17.688  0.00  0.00    +0.000 Cl
ATOM      4  C   UNL     1       5.220   3.970  17.198  0.00  0.00    +0.000 A 
ATOM      5  C   UNL     1       5.761   5.255  17.096  0.00  0.00    +0.000 A 
ATOM      6  C   UNL     1       4.973   6.384  17.344  0.00  0.00    +0.000 A 
ATOM      7  C   UNL     1       3.633   6.216  17.699  0.00  0.00    +0.000 A 
ATOM      8 CL   UNL     1       2.693   7.636  18.010  0.00  0.00    +0.000 Cl
ENDROOT
BRANCH   1   9
ATOM      9  N   UNL     1       1.743   4.773  18.299  0.00  0.00    +0.000 N 
ATOM     10  H   UNL     1       1.014   5.185  17.721  0.00  0.00    +0.000 HD
ATOM     11  H   UNL     1       1.659   5.002  19.287  0.00  0.00    +0.000 HD
ENDBRANCH   1   9
BRANCH   5  12
ATOM     12  N   UNL     1       7.175   5.421  16.740  0.00  0.00    +0.000 N 
ATOM     13  O   UNL     1       7.911   4.429  16.834  0.00  0.00    +0.000 OA
ATOM     14  O   UNL     1       7.545   6.542  16.368  0.00  0.00    +0.000 OA
ENDBRANCH   5  12
TORSDOF 2
ENDMDL
MODEL 5
REMARK VINA RESULT:      -5.4      3.391      4.613
REMARK  Name = 
REMARK  2 active torsions:
REMARK  status: ('A' for Active; 'I' for Inactive)
REMARK    1  A    between atoms: N_1  and  C_2
REMARK    2  A    between atoms: C_6  and  N_7
REMARK                            x       y       z     vdW  Elec       q    Type
REMARK                         _______ _______ _______ _____ _____    ______ ____
ROOT
ATOM      1  C   UNL     1       6.534   4.653  17.154  0.00  0.00    +0.000 A 
ATOM      2  C   UNL     1       6.080   5.021  18.437  0.00  0.00    +0.000 A 
ATOM      3 CL   UNL     1       7.199   5.564  19.642  0.00  0.00    +0.000 Cl
ATOM      4  C   UNL     1       4.724   4.985  18.772  0.00  0.00    +0.000 A 
ATOM      5  C   UNL     1       3.799   4.539  17.823  0.00  0.00    +0.000 A 
ATOM      6  C   UNL     1       4.217   4.136  16.551  0.00  0.00    +0.000 A 
ATOM      7  C   UNL     1       5.577   4.182  16.233  0.00  0.00    +0.000 A 
ATOM      8 CL   UNL     1       6.058   3.664  14.653  0.00  0.00    +0.000 Cl
ENDROOT
BRANCH   1   9
ATOM      9  N   UNL     1       7.914   4.540  16.882  0.00  0.00    +0.000 N 
ATOM     10  H   UNL     1       8.368   3.767  17.364  0.00  0.00    +0.000 HD
ATOM     11  H   UNL     1       8.422   5.418  16.950  0.00  0.00    +0.000 HD
ENDBRANCH   1   9
BRANCH   5  12
ATOM     12  N   UNL     1       2.374   4.478  18.172  0.00  0.00    +0.000 N 
ATOM     13  O   UNL     1       1.613   3.911  17.376  0.00  0.00    +0.000 OA
ATOM     14  O   UNL     1       2.021   4.998  19.239  0.00  0.00    +0.000 OA
ENDBRANCH   5  12
TORSDOF 2
ENDMDL
MODEL 6
REMARK VINA RESULT:      -5.4      3.309      4.234
REMARK  Name = 
REMARK  2 active torsions:
REMARK  status: ('A' for Active; 'I' for Inactive)
REMARK    1  A    between atoms: N_1  and  C_2
REMARK    2  A    between atoms: C_6  and  N_7
REMARK                            x       y       z     vdW  Elec       q    Type
REMARK                         _______ _______ _______ _____ _____    ______ ____
ROOT
ATOM      1  C   UNL     1       6.669   5.214  16.668  0.00  0.00    +0.000 A 
ATOM      2  C   UNL     1       5.625   4.448  16.111  0.00  0.00    +0.000 A 
ATOM      3 CL   UNL     1       5.486   4.267  14.395  0.00  0.00    +0.000 Cl
ATOM      4  C   UNL     1       4.688   3.793  16.916  0.00  0.00    +0.000 A 
ATOM      5  C   UNL     1       4.768   3.931  18.305  0.00  0.00    +0.000 A 
ATOM      6  C   UNL     1       5.772   4.709  18.891  0.00  0.00    +0.000 A 
ATOM      7  C   UNL     1       6.701   5.354  18.070  0.00  0.00    +0.000 A 
ATOM      8 CL   UNL     1       7.922   6.318  18.830  0.00  0.00    +0.000 Cl
ENDROOT
BRANCH   1   9
ATOM      9  N   UNL     1       7.506   5.998  15.845  0.00  0.00    +0.000 N 
ATOM     10  H   UNL     1       7.220   6.971  15.774  0.00  0.00    +0.000 HD
ATOM     11  H   UNL     1       7.723   5.569  14.949  0.00  0.00    +0.000 HD
ENDBRANCH   1   9
BRANCH   5  12
ATOM     12  N   UNL     1       3.777   3.264  19.158  0.00  0.00    +0.000 N 
ATOM     13  O   UNL     1       4.198   2.606  20.120  0.00  0.00    +0.000 OA
ATOM     14  O   UNL     1       2.582   3.400  18.865  0.00  0.00    +0.000 OA
ENDBRANCH   5  12
TORSDOF 2
ENDMDL
MODEL 7
REMARK VINA RESULT:      -5.4      3.341      4.835
REMARK  Name = 
REMARK  2 active torsions:
REMARK  status: ('A' for Active; 'I' for Inactive)
REMARK    1  A    between atoms: N_1  and  C_2
REMARK    2  A    between atoms: C_6  and  N_7
REMARK                            x       y       z     vdW  Elec       q    Type
REMARK                         _______ _______ _______ _____ _____    ______ ____
ROOT
ATOM      1  C   UNL     1       6.572   5.400  16.585  0.00  0.00    +0.000 A 
ATOM      2  C   UNL     1       6.697   5.528  17.983  0.00  0.00    +0.000 A 
ATOM      3 CL   UNL     1       7.910   6.558  18.665  0.00  0.00    +0.000 Cl
ATOM      4  C   UNL     1       5.841   4.855  18.859  0.00  0.00    +0.000 A 
ATOM      5  C   UNL     1       4.860   4.007  18.337  0.00  0.00    +0.000 A 
ATOM      6  C   UNL     1       4.727   3.831  16.956  0.00  0.00    +0.000 A 
ATOM      7  C   UNL     1       5.591   4.514  16.096  0.00  0.00    +0.000 A 
ATOM      8 CL   UNL     1       5.404   4.262  14.393  0.00  0.00    +0.000 Cl
ENDROOT
BRANCH   1   9
ATOM      9  N   UNL     1       7.540   5.953  15.720  0.00  0.00    +0.000 N 
ATOM     10  H   UNL     1       7.167   6.635  15.064  0.00  0.00    +0.000 HD
ATOM     11  H   UNL     1       8.150   5.263  15.288  0.00  0.00    +0.000 HD
ENDBRANCH   1   9
BRANCH   5  12
ATOM     12  N   UNL     1       3.969   3.281  19.250  0.00  0.00    +0.000 N 
ATOM     13  O   UNL     1       2.756   3.523  19.181  0.00  0.00    +0.000 OA
ATOM     14  O   UNL     1       4.484   2.471  20.033  0.00  0.00    +0.000 OA
ENDBRANCH   5  12
TORSDOF 2
ENDMDL
MODEL 8
REMARK VINA RESULT:      -5.4      2.239      3.109
REMARK  Name = 
REMARK  2 active torsions:
REMARK  status: ('A' for Active; 'I' for Inactive)
REMARK    1  A    between atoms: N_1  and  C_2
REMARK    2  A    between atoms: C_6  and  N_7
REMARK                            x       y       z     vdW  Elec       q    Type
REMARK                         _______ _______ _______ _____ _____    ______ ____
ROOT
ATOM      1  C   UNL     1       3.328   4.955  17.790  0.00  0.00    +0.000 A 
ATOM      2  C   UNL     1       3.875   6.169  17.328  0.00  0.00    +0.000 A 
ATOM      3 CL   UNL     1       3.198   7.683  17.824  0.00  0.00    +0.000 Cl
ATOM      4  C   UNL     1       4.987   6.195  16.482  0.00  0.00    +0.000 A 
ATOM      5  C   UNL     1       5.548   4.988  16.055  0.00  0.00    +0.000 A 
ATOM      6  C   UNL     1       5.012   3.764  16.468  0.00  0.00    +0.000 A 
ATOM      7  C   UNL     1       3.901   3.758  17.316  0.00  0.00    +0.000 A 
ATOM      8 CL   UNL     1       3.257   2.224  17.796  0.00  0.00    +0.000 Cl
ENDROOT
BRANCH   1   9
ATOM      9  N   UNL     1       2.113   4.939  18.508  0.00  0.00    +0.000 N 
ATOM     10  H   UNL     1       2.109   5.543  19.326  0.00  0.00    +0.000 HD
ATOM     11  H   UNL     1       1.753   4.005  18.688  0.00  0.00    +0.000 HD
ENDBRANCH   1   9
BRANCH   5  12
ATOM     12  N   UNL     1       6.704   5.005  15.150  0.00  0.00    +0.000 N 
ATOM     13  O   UNL     1       7.654   5.744  15.446  0.00  0.00    +0.000 OA
ATOM     14  O   UNL     1       6.659   4.280  14.147  0.00  0.00    +0.000 OA
ENDBRANCH   5  12
TORSDOF 2
ENDMDL
MODEL 9
REMARK VINA RESULT:      -5.4      2.742      3.212
REMARK  Name = 
REMARK  2 active torsions:
REMARK  status: ('A' for Active; 'I' for Inactive)
REMARK    1  A    between atoms: N_1  and  C_2
REMARK    2  A    between atoms: C_6  and  N_7
REMARK                            x       y       z     vdW  Elec       q    Type
REMARK                         _______ _______ _______ _____ _____    ______ ____
ROOT
ATOM      1  C   UNL     1       3.412   5.117  18.852  0.00  0.00    +0.000 A 
ATOM      2  C   UNL     1       4.388   4.109  18.989  0.00  0.00    +0.000 A 
ATOM      3 CL   UNL     1       4.063   2.696  19.936  0.00  0.00    +0.000 Cl
ATOM      4  C   UNL     1       5.629   4.201  18.354  0.00  0.00    +0.000 A 
ATOM      5  C   UNL     1       5.924   5.336  17.593  0.00  0.00    +0.000 A 
ATOM      6  C   UNL     1       4.992   6.370  17.461  0.00  0.00    +0.000 A 
ATOM      7  C   UNL     1       3.755   6.260  18.101  0.00  0.00    +0.000 A 
ATOM      8 CL   UNL     1       2.632   7.566  17.924  0.00  0.00    +0.000 Cl
ENDROOT
BRANCH   1   9
ATOM      9  N   UNL     1       2.232   5.090  19.626  0.00  0.00    +0.000 N 
ATOM     10  H   UNL     1       2.242   5.731  20.416  0.00  0.00    +0.000 HD
ATOM     11  H   UNL     1       1.916   4.153  19.863  0.00  0.00    +0.000 HD
ENDBRANCH   1   9
BRANCH   5  12
ATOM     12  N   UNL     1       7.232   5.450  16.938  0.00  0.00    +0.000 N 
ATOM     13  O   UNL     1       7.954   4.443  16.916  0.00  0.00    +0.000 OA
ATOM     14  O   UNL     1       7.535   6.546  16.447  0.00  0.00    +0.000 OA
ENDBRANCH   5  12
TORSDOF 2
ENDMDL
