MODEL 1
REMARK VINA RESULT:      -6.6      0.000      0.000
REMARK  Name = 
REMARK  4 active torsions:
REMARK  status: ('A' for Active; 'I' for Inactive)
REMARK    1  A    between atoms: C_1  and  S_2
REMARK    2  A    between atoms: S_2  and  C_3
REMARK    3  A    between atoms: C_7  and  N_8
REMARK    4  A    between atoms: C_9  and  C_11
REMARK                            x       y       z     vdW  Elec       q    Type
REMARK                         _______ _______ _______ _____ _____    ______ ____
ROOT
ATOM      1  N   UNL     1       8.477   7.820  18.684  0.00  0.00    +0.000 N 
ATOM      2  C   UNL     1       8.272   9.090  18.168  0.00  0.00    +0.000 C 
ATOM      3  O   UNL     1       7.466   9.398  17.293  0.00  0.00    +0.000 OA
ATOM      4  H   UNL     1       9.117   7.691  19.453  0.00  0.00    +0.000 HD
ENDROOT
BRANCH   2   5
ATOM      5  C   UNL     1       9.088  10.199  18.735  0.00  0.00    +0.000 A 
ATOM      6  C   UNL     1       9.278  10.393  20.109  0.00  0.00    +0.000 A 
ATOM      7  C   UNL     1      10.120  11.416  20.558  0.00  0.00    +0.000 A 
ATOM      8  C   UNL     1      10.781  12.239  19.642  0.00  0.00    +0.000 A 
ATOM      9  C   UNL     1      10.594  12.044  18.276  0.00  0.00    +0.000 A 
ATOM     10 BR   UNL     1      11.504  13.136  17.032  0.00  0.00    +0.000 Br
ATOM     11  C   UNL     1       9.754  11.032  17.821  0.00  0.00    +0.000 A 
ENDBRANCH   2   5
BRANCH   1  16
ATOM     12  C   UNL     1       7.051   5.356  16.503  0.00  0.00    +0.000 A 
ATOM     13  N   UNL     1       6.416   4.503  17.315  0.00  0.00    +0.000 NA
ATOM     14  C   UNL     1       6.484   4.781  18.630  0.00  0.00    +0.000 A 
ATOM     15  C   UNL     1       7.152   5.869  19.149  0.00  0.00    +0.000 A 
ATOM     16  C   UNL     1       7.773   6.686  18.231  0.00  0.00    +0.000 A 
ATOM     17  N   UNL     1       7.725   6.428  16.923  0.00  0.00    +0.000 NA
BRANCH  12  19
ATOM     18  C   UNL     1       5.330   4.318  14.635  0.00  0.00    +0.000 C 
ATOM     19  S   UNL     1       6.993   5.038  14.756  0.00  0.00    +0.000 S 
ENDBRANCH  12  19
ENDBRANCH   1  16
TORSDOF 3
ENDMDL
MODEL 2
REMARK VINA RESULT:      -6.6      6.443      7.636
REMARK  Name = 
REMARK  4 active torsions:
REMARK  status: ('A' for Active; 'I' for Inactive)
REMARK    1  A    between atoms: C_1  and  S_2
REMARK    2  A    between atoms: S_2  and  C_3
REMARK    3  A    between atoms: C_7  and  N_8
REMARK    4  A    between atoms: C_9  and  C_11
REMARK                            x       y       z     vdW  Elec       q    Type
REMARK                         _______ _______ _______ _____ _____    ______ ____
ROOT
ATOM      1  N   UNL     1       4.659   4.877  16.228  0.00  0.00    +0.000 N 
ATOM      2  C   UNL     1       6.025   4.892  15.999  0.00  0.00    +0.000 C 
ATOM      3  O   UNL     1       6.906   4.994  16.850  0.00  0.00    +0.000 OA
ATOM      4  H   UNL     1       4.025   4.718  15.461  0.00  0.00    +0.000 HD
ENDROOT
BRANCH   2   5
ATOM      5  C   UNL     1       6.483   4.751  14.588  0.00  0.00    +0.000 A 
ATOM      6  C   UNL     1       7.554   5.475  14.049  0.00  0.00    +0.000 A 
ATOM      7  C   UNL     1       7.968   5.229  12.735  0.00  0.00    +0.000 A 
ATOM      8  C   UNL     1       7.325   4.258  11.962  0.00  0.00    +0.000 A 
ATOM      9  C   UNL     1       6.262   3.537  12.500  0.00  0.00    +0.000 A 
ATOM     10 BR   UNL     1       5.405   2.206  11.470  0.00  0.00    +0.000 Br
ATOM     11  C   UNL     1       5.840   3.779  13.804  0.00  0.00    +0.000 A 
ENDBRANCH   2   5
BRANCH   1  16
ATOM     12  C   UNL     1       3.429   4.054  19.496  0.00  0.00    +0.000 A 
ATOM     13  N   UNL     1       3.009   5.217  20.009  0.00  0.00    +0.000 NA
ATOM     14  C   UNL     1       3.154   6.296  19.219  0.00  0.00    +0.000 A 
ATOM     15  C   UNL     1       3.695   6.250  17.951  0.00  0.00    +0.000 A 
ATOM     16  C   UNL     1       4.097   5.007  17.515  0.00  0.00    +0.000 A 
ATOM     17  N   UNL     1       3.968   3.923  18.282  0.00  0.00    +0.000 NA
BRANCH  12  19
ATOM     18  C   UNL     1       1.570   2.848  21.114  0.00  0.00    +0.000 C 
ATOM     19  S   UNL     1       3.260   2.596  20.496  0.00  0.00    +0.000 S 
ENDBRANCH  12  19
ENDBRANCH   1  16
TORSDOF 3
ENDMDL
MODEL 3
REMARK VINA RESULT:      -6.5      6.222      7.349
REMARK  Name = 
REMARK  4 active torsions:
REMARK  status: ('A' for Active; 'I' for Inactive)
REMARK    1  A    between atoms: C_1  and  S_2
REMARK    2  A    between atoms: S_2  and  C_3
REMARK    3  A    between atoms: C_7  and  N_8
REMARK    4  A    between atoms: C_9  and  C_11
REMARK                            x       y       z     vdW  Elec       q    Type
REMARK                         _______ _______ _______ _____ _____    ______ ____
ROOT
ATOM      1  N   UNL     1       2.427   6.878  18.961  0.00  0.00    +0.000 N 
ATOM      2  C   UNL     1       2.202   8.092  18.331  0.00  0.00    +0.000 C 
ATOM      3  O   UNL     1       2.653   8.443  17.244  0.00  0.00    +0.000 OA
ATOM      4  H   UNL     1       1.949   6.666  19.823  0.00  0.00    +0.000 HD
ENDROOT
BRANCH   2   5
ATOM      5  C   UNL     1       1.311   9.066  19.022  0.00  0.00    +0.000 A 
ATOM      6  C   UNL     1       0.597  10.068  18.353  0.00  0.00    +0.000 A 
ATOM      7  C   UNL     1      -0.276  10.895  19.067  0.00  0.00    +0.000 A 
ATOM      8  C   UNL     1      -0.446  10.721  20.444  0.00  0.00    +0.000 A 
ATOM      9  C   UNL     1       0.262   9.723  21.108  0.00  0.00    +0.000 A 
ATOM     10 BR   UNL     1       0.017   9.466  22.963  0.00  0.00    +0.000 Br
ATOM     11  C   UNL     1       1.136   8.898  20.406  0.00  0.00    +0.000 A 
ENDBRANCH   2   5
BRANCH   1  16
ATOM     12  C   UNL     1       5.352   5.036  18.002  0.00  0.00    +0.000 A 
ATOM     13  N   UNL     1       4.884   3.954  17.368  0.00  0.00    +0.000 NA
ATOM     14  C   UNL     1       3.546   3.859  17.274  0.00  0.00    +0.000 A 
ATOM     15  C   UNL     1       2.674   4.798  17.782  0.00  0.00    +0.000 A 
ATOM     16  C   UNL     1       3.253   5.874  18.416  0.00  0.00    +0.000 A 
ATOM     17  N   UNL     1       4.578   5.988  18.527  0.00  0.00    +0.000 NA
BRANCH  12  19
ATOM     18  C   UNL     1       7.306   6.894  17.493  0.00  0.00    +0.000 C 
ATOM     19  S   UNL     1       7.112   5.213  18.154  0.00  0.00    +0.000 S 
ENDBRANCH  12  19
ENDBRANCH   1  16
TORSDOF 3
ENDMDL
MODEL 4
REMARK VINA RESULT:      -6.5      6.027      7.283
REMARK  Name = 
REMARK  4 active torsions:
REMARK  status: ('A' for Active; 'I' for Inactive)
REMARK    1  A    between atoms: C_1  and  S_2
REMARK    2  A    between atoms: S_2  and  C_3
REMARK    3  A    between atoms: C_7  and  N_8
REMARK    4  A    between atoms: C_9  and  C_11
REMARK                            x       y       z     vdW  Elec       q    Type
REMARK                         _______ _______ _______ _____ _____    ______ ____
ROOT
ATOM      1  N   UNL     1       2.767   6.451  19.876  0.00  0.00    +0.000 N 
ATOM      2  C   UNL     1       2.513   7.436  18.935  0.00  0.00    +0.000 C 
ATOM      3  O   UNL     1       2.936   7.469  17.783  0.00  0.00    +0.000 OA
ATOM      4  H   UNL     1       2.310   6.488  20.774  0.00  0.00    +0.000 HD
ENDROOT
BRANCH   2   5
ATOM      5  C   UNL     1       1.626   8.561  19.346  0.00  0.00    +0.000 A 
ATOM      6  C   UNL     1       1.134   9.520  18.452  0.00  0.00    +0.000 A 
ATOM      7  C   UNL     1       0.246  10.502  18.905  0.00  0.00    +0.000 A 
ATOM      8  C   UNL     1      -0.159  10.524  20.243  0.00  0.00    +0.000 A 
ATOM      9  C   UNL     1       0.329   9.568  21.130  0.00  0.00    +0.000 A 
ATOM     10 BR   UNL     1      -0.234   9.577  22.933  0.00  0.00    +0.000 Br
ATOM     11  C   UNL     1       1.217   8.591  20.689  0.00  0.00    +0.000 A 
ENDBRANCH   2   5
BRANCH   1  16
ATOM     12  C   UNL     1       5.523   4.460  18.732  0.00  0.00    +0.000 A 
ATOM     13  N   UNL     1       5.214   3.207  19.088  0.00  0.00    +0.000 NA
ATOM     14  C   UNL     1       4.043   3.050  19.731  0.00  0.00    +0.000 A 
ATOM     15  C   UNL     1       3.183   4.088  20.023  0.00  0.00    +0.000 A 
ATOM     16  C   UNL     1       3.592   5.338  19.615  0.00  0.00    +0.000 A 
ATOM     17  N   UNL     1       4.751   5.520  18.980  0.00  0.00    +0.000 NA
BRANCH  12  19
ATOM     18  C   UNL     1       7.485   6.367  18.529  0.00  0.00    +0.000 C 
ATOM     19  S   UNL     1       7.058   4.726  17.879  0.00  0.00    +0.000 S 
ENDBRANCH  12  19
ENDBRANCH   1  16
TORSDOF 3
ENDMDL
MODEL 5
REMARK VINA RESULT:      -6.5      5.361      6.622
REMARK  Name = 
REMARK  4 active torsions:
REMARK  status: ('A' for Active; 'I' for Inactive)
REMARK    1  A    between atoms: C_1  and  S_2
REMARK    2  A    between atoms: S_2  and  C_3
REMARK    3  A    between atoms: C_7  and  N_8
REMARK    4  A    between atoms: C_9  and  C_11
REMARK                            x       y       z     vdW  Elec       q    Type
REMARK                         _______ _______ _______ _____ _____    ______ ____
ROOT
ATOM      1  N   UNL     1       4.397   7.142  17.551  0.00  0.00    +0.000 N 
ATOM      2  C   UNL     1       3.316   6.808  18.351  0.00  0.00    +0.000 C 
ATOM      3  O   UNL     1       3.088   5.706  18.844  0.00  0.00    +0.000 OA
ATOM      4  H   UNL     1       4.525   8.098  17.257  0.00  0.00    +0.000 HD
ENDROOT
BRANCH   2   5
ATOM      5  C   UNL     1       2.341   7.889  18.669  0.00  0.00    +0.000 A 
ATOM      6  C   UNL     1       1.791   8.740  17.702  0.00  0.00    +0.000 A 
ATOM      7  C   UNL     1       0.825   9.681  18.072  0.00  0.00    +0.000 A 
ATOM      8  C   UNL     1       0.399   9.770  19.401  0.00  0.00    +0.000 A 
ATOM      9  C   UNL     1       0.944   8.922  20.360  0.00  0.00    +0.000 A 
ATOM     10 BR   UNL     1       0.354   9.019  22.152  0.00  0.00    +0.000 Br
ATOM     11  C   UNL     1       1.909   7.985  20.002  0.00  0.00    +0.000 A 
ENDBRANCH   2   5
BRANCH   1  16
ATOM     12  C   UNL     1       6.269   4.770  15.617  0.00  0.00    +0.000 A 
ATOM     13  N   UNL     1       7.282   4.402  16.410  0.00  0.00    +0.000 NA
ATOM     14  C   UNL     1       7.319   4.981  17.624  0.00  0.00    +0.000 A 
ATOM     15  C   UNL     1       6.390   5.899  18.064  0.00  0.00    +0.000 A 
ATOM     16  C   UNL     1       5.387   6.212  17.174  0.00  0.00    +0.000 A 
ATOM     17  N   UNL     1       5.331   5.655  15.963  0.00  0.00    +0.000 NA
BRANCH  12  19
ATOM     18  C   UNL     1       7.544   4.905  13.191  0.00  0.00    +0.000 C 
ATOM     19  S   UNL     1       6.170   4.037  14.002  0.00  0.00    +0.000 S 
ENDBRANCH  12  19
ENDBRANCH   1  16
TORSDOF 3
ENDMDL
MODEL 6
REMARK VINA RESULT:      -6.4      3.800      7.062
REMARK  Name = 
REMARK  4 active torsions:
REMARK  status: ('A' for Active; 'I' for Inactive)
REMARK    1  A    between atoms: C_1  and  S_2
REMARK    2  A    between atoms: S_2  and  C_3
REMARK    3  A    between atoms: C_7  and  N_8
REMARK    4  A    between atoms: C_9  and  C_11
REMARK                            x       y       z     vdW  Elec       q    Type
REMARK                         _______ _______ _______ _____ _____    ______ ____
ROOT
ATOM      1  N   UNL     1       9.128   9.170  19.095  0.00  0.00    +0.000 N 
ATOM      2  C   UNL     1       8.159   8.829  18.164  0.00  0.00    +0.000 C 
ATOM      3  O   UNL     1       7.549   9.603  17.431  0.00  0.00    +0.000 OA
ATOM      4  H   UNL     1       9.616   8.444  19.596  0.00  0.00    +0.000 HD
ENDROOT
BRANCH   2   5
ATOM      5  C   UNL     1       7.831   7.383  18.017  0.00  0.00    +0.000 A 
ATOM      6  C   UNL     1       8.116   6.424  18.998  0.00  0.00    +0.000 A 
ATOM      7  C   UNL     1       7.708   5.099  18.813  0.00  0.00    +0.000 A 
ATOM      8  C   UNL     1       7.009   4.728  17.660  0.00  0.00    +0.000 A 
ATOM      9  C   UNL     1       6.724   5.683  16.688  0.00  0.00    +0.000 A 
ATOM     10 BR   UNL     1       5.758   5.196  15.140  0.00  0.00    +0.000 Br
ATOM     11  C   UNL     1       7.130   7.003  16.861  0.00  0.00    +0.000 A 
ENDBRANCH   2   5
BRANCH   1  16
ATOM     12  C   UNL     1      10.426  12.472  18.570  0.00  0.00    +0.000 A 
ATOM     13  N   UNL     1      10.312  13.080  19.758  0.00  0.00    +0.000 NA
ATOM     14  C   UNL     1       9.779  12.341  20.748  0.00  0.00    +0.000 A 
ATOM     15  C   UNL     1       9.366  11.035  20.592  0.00  0.00    +0.000 A 
ATOM     16  C   UNL     1       9.525  10.501  19.333  0.00  0.00    +0.000 A 
ATOM     17  N   UNL     1      10.047  11.215  18.334  0.00  0.00    +0.000 NA
BRANCH  12  19
ATOM     18  C   UNL     1      10.576  15.068  17.695  0.00  0.00    +0.000 C 
ATOM     19  S   UNL     1      11.125  13.400  17.227  0.00  0.00    +0.000 S 
ENDBRANCH  12  19
ENDBRANCH   1  16
TORSDOF 3
ENDMDL
MODEL 7
REMARK VINA RESULT:      -6.4      6.079      7.316
REMARK  Name = 
REMARK  4 active torsions:
REMARK  status: ('A' for Active; 'I' for Inactive)
REMARK    1  A    between atoms: C_1  and  S_2
REMARK    2  A    between atoms: S_2  and  C_3
REMARK    3  A    between atoms: C_7  and  N_8
REMARK    4  A    between atoms: C_9  and  C_11
REMARK                            x       y       z     vdW  Elec       q    Type
REMARK                         _______ _______ _______ _____ _____    ______ ____
ROOT
ATOM      1  N   UNL     1       2.966   6.968  18.327  0.00  0.00    +0.000 N 
ATOM      2  C   UNL     1       2.267   7.077  19.518  0.00  0.00    +0.000 C 
ATOM      3  O   UNL     1       2.178   6.218  20.392  0.00  0.00    +0.000 OA
ATOM      4  H   UNL     1       3.031   7.763  17.711  0.00  0.00    +0.000 HD
ENDROOT
BRANCH   2   5
ATOM      5  C   UNL     1       1.567   8.365  19.785  0.00  0.00    +0.000 A 
ATOM      6  C   UNL     1       1.364   9.349  18.809  0.00  0.00    +0.000 A 
ATOM      7  C   UNL     1       0.632  10.499  19.123  0.00  0.00    +0.000 A 
ATOM      8  C   UNL     1       0.094  10.666  20.402  0.00  0.00    +0.000 A 
ATOM      9  C   UNL     1       0.294   9.686  21.371  0.00  0.00    +0.000 A 
ATOM     10 BR   UNL     1      -0.452   9.894  23.094  0.00  0.00    +0.000 Br
ATOM     11  C   UNL     1       1.025   8.541  21.069  0.00  0.00    +0.000 A 
ENDBRANCH   2   5
BRANCH   1  16
ATOM     12  C   UNL     1       5.653   4.702  17.613  0.00  0.00    +0.000 A 
ATOM     13  N   UNL     1       5.055   3.567  17.232  0.00  0.00    +0.000 NA
ATOM     14  C   UNL     1       3.710   3.585  17.223  0.00  0.00    +0.000 A 
ATOM     15  C   UNL     1       2.956   4.684  17.575  0.00  0.00    +0.000 A 
ATOM     16  C   UNL     1       3.666   5.802  17.954  0.00  0.00    +0.000 A 
ATOM     17  N   UNL     1       5.000   5.807  17.975  0.00  0.00    +0.000 NA
BRANCH  12  19
ATOM     18  C   UNL     1       7.688   5.839  19.061  0.00  0.00    +0.000 C 
ATOM     19  S   UNL     1       7.429   4.734  17.642  0.00  0.00    +0.000 S 
ENDBRANCH  12  19
ENDBRANCH   1  16
TORSDOF 3
ENDMDL
MODEL 8
REMARK VINA RESULT:      -6.3      4.046      7.194
REMARK  Name = 
REMARK  4 active torsions:
REMARK  status: ('A' for Active; 'I' for Inactive)
REMARK    1  A    between atoms: C_1  and  S_2
REMARK    2  A    between atoms: S_2  and  C_3
REMARK    3  A    between atoms: C_7  and  N_8
REMARK    4  A    between atoms: C_9  and  C_11
REMARK                            x       y       z     vdW  Elec       q    Type
REMARK                         _______ _______ _______ _____ _____    ______ ____
ROOT
ATOM      1  N   UNL     1       9.136   9.176  19.188  0.00  0.00    +0.000 N 
ATOM      2  C   UNL     1       8.180   8.860  18.235  0.00  0.00    +0.000 C 
ATOM      3  O   UNL     1       7.586   9.653  17.509  0.00  0.00    +0.000 OA
ATOM      4  H   UNL     1       9.613   8.437  19.681  0.00  0.00    +0.000 HD
ENDROOT
BRANCH   2   5
ATOM      5  C   UNL     1       7.847   7.419  18.052  0.00  0.00    +0.000 A 
ATOM      6  C   UNL     1       8.152   6.431  18.997  0.00  0.00    +0.000 A 
ATOM      7  C   UNL     1       7.738   5.112  18.781  0.00  0.00    +0.000 A 
ATOM      8  C   UNL     1       7.014   4.778  17.633  0.00  0.00    +0.000 A 
ATOM      9  C   UNL     1       6.710   5.762  16.696  0.00  0.00    +0.000 A 
ATOM     10 BR   UNL     1       5.710   5.322  15.155  0.00  0.00    +0.000 Br
ATOM     11  C   UNL     1       7.122   7.075  16.900  0.00  0.00    +0.000 A 
ENDBRANCH   2   5
BRANCH   1  16
ATOM     12  C   UNL     1       9.504  12.341  20.834  0.00  0.00    +0.000 A 
ATOM     13  N   UNL     1      10.287  13.063  20.023  0.00  0.00    +0.000 NA
ATOM     14  C   UNL     1      10.693  12.448  18.897  0.00  0.00    +0.000 A 
ATOM     15  C   UNL     1      10.344  11.157  18.561  0.00  0.00    +0.000 A 
ATOM     16  C   UNL     1       9.537  10.499  19.461  0.00  0.00    +0.000 A 
ATOM     17  N   UNL     1       9.125  11.086  20.587  0.00  0.00    +0.000 NA
BRANCH  12  19
ATOM     18  C   UNL     1       8.049  11.701  23.071  0.00  0.00    +0.000 C 
ATOM     19  S   UNL     1       8.937  13.104  22.335  0.00  0.00    +0.000 S 
ENDBRANCH  12  19
ENDBRANCH   1  16
TORSDOF 3
ENDMDL
MODEL 9
REMARK VINA RESULT:      -6.3      6.424      7.265
REMARK  Name = 
REMARK  4 active torsions:
REMARK  status: ('A' for Active; 'I' for Inactive)
REMARK    1  A    between atoms: C_1  and  S_2
REMARK    2  A    between atoms: S_2  and  C_3
REMARK    3  A    between atoms: C_7  and  N_8
REMARK    4  A    between atoms: C_9  and  C_11
REMARK                            x       y       z     vdW  Elec       q    Type
REMARK                         _______ _______ _______ _____ _____    ______ ____
ROOT
ATOM      1  N   UNL     1       2.649   6.890  18.178  0.00  0.00    +0.000 N 
ATOM      2  C   UNL     1       2.223   7.155  19.469  0.00  0.00    +0.000 C 
ATOM      3  O   UNL     1       2.375   6.431  20.450  0.00  0.00    +0.000 OA
ATOM      4  H   UNL     1       2.534   7.588  17.460  0.00  0.00    +0.000 HD
ENDROOT
BRANCH   2   5
ATOM      5  C   UNL     1       1.530   8.452  19.707  0.00  0.00    +0.000 A 
ATOM      6  C   UNL     1       1.347   9.423  18.714  0.00  0.00    +0.000 A 
ATOM      7  C   UNL     1       0.620  10.583  19.001  0.00  0.00    +0.000 A 
ATOM      8  C   UNL     1       0.066  10.774  20.270  0.00  0.00    +0.000 A 
ATOM      9  C   UNL     1       0.246   9.807  21.256  0.00  0.00    +0.000 A 
ATOM     10 BR   UNL     1      -0.520  10.047  22.966  0.00  0.00    +0.000 Br
ATOM     11  C   UNL     1       0.973   8.652  20.981  0.00  0.00    +0.000 A 
ENDBRANCH   2   5
BRANCH   1  16
ATOM     12  C   UNL     1       5.249   4.590  17.274  0.00  0.00    +0.000 A 
ATOM     13  N   UNL     1       4.630   3.413  17.121  0.00  0.00    +0.000 NA
ATOM     14  C   UNL     1       3.302   3.414  17.334  0.00  0.00    +0.000 A 
ATOM     15  C   UNL     1       2.584   4.537  17.687  0.00  0.00    +0.000 A 
ATOM     16  C   UNL     1       3.312   5.698  17.820  0.00  0.00    +0.000 A 
ATOM     17  N   UNL     1       4.631   5.721  17.619  0.00  0.00    +0.000 NA
BRANCH  12  19
ATOM     18  C   UNL     1       7.030   4.671  15.188  0.00  0.00    +0.000 C 
ATOM     19  S   UNL     1       7.004   4.646  17.004  0.00  0.00    +0.000 S 
ENDBRANCH  12  19
ENDBRANCH   1  16
TORSDOF 3
ENDMDL
