MODEL 1
REMARK VINA RESULT:      -7.4      0.000      0.000
REMARK  Name = 
REMARK  7 active torsions:
REMARK  status: ('A' for Active; 'I' for Inactive)
REMARK    1  A    between atoms: C_1  and  O_2
REMARK    2  A    between atoms: O_2  and  C_3
REMARK    3  A    between atoms: C_8  and  C_9
REMARK    4  A    between atoms: N_14  and  N_15
REMARK    5  A    between atoms: N_15  and  S_16
REMARK    6  A    between atoms: S_16  and  C_19
REMARK    7  A    between atoms: C_22  and  C_23
REMARK                            x       y       z     vdW  Elec       q    Type
REMARK                         _______ _______ _______ _____ _____    ______ ____
ROOT
ATOM      1  C   UNL     1       2.624   7.269  17.844  0.00  0.00    +0.000 C 
ATOM      2  C   UNL     1       2.153   8.066  18.816  0.00  0.00    +0.000 C 
ATOM      3  S   UNL     1       1.778   7.577  20.431  0.00  0.00    +0.000 S 
ATOM      4  C   UNL     1       0.933   9.064  20.801  0.00  0.00    +0.000 C 
ATOM      5  S   UNL     1       0.239   9.360  22.284  0.00  0.00    +0.000 S 
ATOM      6  N   UNL     1       0.992   9.895  19.699  0.00  0.00    +0.000 N 
ATOM      7  C   UNL     1       1.763   9.493  18.611  0.00  0.00    +0.000 C 
ATOM      8  O   UNL     1       2.099  10.179  17.654  0.00  0.00    +0.000 OA
ENDROOT
BRANCH   1  14
ATOM      9  C   UNL     1       4.036   5.195  18.185  0.00  0.00    +0.000 A 
ATOM     10  C   UNL     1       4.122   3.796  18.157  0.00  0.00    +0.000 A 
ATOM     11  C   UNL     1       2.982   3.010  17.995  0.00  0.00    +0.000 A 
ATOM     12  C   UNL     1       1.738   3.619  17.860  0.00  0.00    +0.000 A 
ATOM     13  C   UNL     1       1.636   5.012  17.887  0.00  0.00    +0.000 A 
ATOM     14  C   UNL     1       2.781   5.816  18.036  0.00  0.00    +0.000 A 
BRANCH   9  16
ATOM     15  C   UNL     1       6.190   5.389  19.192  0.00  0.00    +0.000 C 
ATOM     16  O   UNL     1       5.259   5.818  18.206  0.00  0.00    +0.000 OA
ENDBRANCH   9  16
ENDBRANCH   1  14
BRANCH   6  17
ATOM     17  N   UNL     1       0.419  11.256  19.743  0.00  0.00    +0.000 NA
ATOM     18  H   UNL     1       1.022  11.956  19.295  0.00  0.00    +0.000 HD
BRANCH  17  19
ATOM     19  S   UNL     1      -1.069  11.435  18.898  0.00  0.00    +0.000 S 
ATOM     20  O   UNL     1      -0.857  12.476  17.916  0.00  0.00    +0.000 OA
ATOM     21  O   UNL     1      -1.526  10.114  18.516  0.00  0.00    +0.000 OA
BRANCH  19  22
ATOM     22  C   UNL     1      -2.186  12.057  20.130  0.00  0.00    +0.000 A 
ATOM     23  C   UNL     1      -3.510  12.358  19.807  0.00  0.00    +0.000 A 
ATOM     24  C   UNL     1      -4.375  12.804  20.812  0.00  0.00    +0.000 A 
ATOM     25  C   UNL     1      -3.923  12.936  22.134  0.00  0.00    +0.000 A 
ATOM     26  C   UNL     1      -4.837  13.405  23.229  0.00  0.00    +0.000 C 
ATOM     27  C   UNL     1      -2.598  12.609  22.444  0.00  0.00    +0.000 A 
ATOM     28  C   UNL     1      -1.734  12.160  21.450  0.00  0.00    +0.000 A 
ENDBRANCH  19  22
ENDBRANCH  17  19
ENDBRANCH   6  17
TORSDOF 5
ENDMDL
MODEL 2
REMARK VINA RESULT:      -7.3      0.494      1.050
REMARK  Name = 
REMARK  7 active torsions:
REMARK  status: ('A' for Active; 'I' for Inactive)
REMARK    1  A    between atoms: C_1  and  O_2
REMARK    2  A    between atoms: O_2  and  C_3
REMARK    3  A    between atoms: C_8  and  C_9
REMARK    4  A    between atoms: N_14  and  N_15
REMARK    5  A    between atoms: N_15  and  S_16
REMARK    6  A    between atoms: S_16  and  C_19
REMARK    7  A    between atoms: C_22  and  C_23
REMARK                            x       y       z     vdW  Elec       q    Type
REMARK                         _______ _______ _______ _____ _____    ______ ____
ROOT
ATOM      1  C   UNL     1       2.529   7.165  18.174  0.00  0.00    +0.000 C 
ATOM      2  C   UNL     1       2.028   8.003  19.095  0.00  0.00    +0.000 C 
ATOM      3  S   UNL     1       1.541   7.569  20.697  0.00  0.00    +0.000 S 
ATOM      4  C   UNL     1       0.726   9.092  20.977  0.00  0.00    +0.000 C 
ATOM      5  S   UNL     1      -0.045   9.450  22.408  0.00  0.00    +0.000 S 
ATOM      6  N   UNL     1       0.879   9.891  19.861  0.00  0.00    +0.000 N 
ATOM      7  C   UNL     1       1.700   9.436  18.831  0.00  0.00    +0.000 C 
ATOM      8  O   UNL     1       2.116  10.084  17.881  0.00  0.00    +0.000 OA
ENDROOT
BRANCH   1  14
ATOM      9  C   UNL     1       3.748   5.108  19.010  0.00  0.00    +0.000 A 
ATOM     10  C   UNL     1       3.857   3.710  19.016  0.00  0.00    +0.000 A 
ATOM     11  C   UNL     1       2.865   2.910  18.449  0.00  0.00    +0.000 A 
ATOM     12  C   UNL     1       1.749   3.503  17.868  0.00  0.00    +0.000 A 
ATOM     13  C   UNL     1       1.625   4.895  17.855  0.00  0.00    +0.000 A 
ATOM     14  C   UNL     1       2.625   5.714  18.412  0.00  0.00    +0.000 A 
BRANCH   9  16
ATOM     15  C   UNL     1       6.126   5.287  18.994  0.00  0.00    +0.000 C 
ATOM     16  O   UNL     1       4.869   5.747  19.475  0.00  0.00    +0.000 OA
ENDBRANCH   9  16
ENDBRANCH   1  14
BRANCH   6  17
ATOM     17  N   UNL     1       0.351  11.271  19.836  0.00  0.00    +0.000 NA
ATOM     18  H   UNL     1       1.022  11.946  19.450  0.00  0.00    +0.000 HD
BRANCH  17  19
ATOM     19  S   UNL     1      -1.033  11.491  18.838  0.00  0.00    +0.000 S 
ATOM     20  O   UNL     1      -0.728  12.596  17.956  0.00  0.00    +0.000 OA
ATOM     21  O   UNL     1      -1.421  10.193  18.322  0.00  0.00    +0.000 OA
BRANCH  19  22
ATOM     22  C   UNL     1      -2.294  12.020  19.970  0.00  0.00    +0.000 A 
ATOM     23  C   UNL     1      -1.983  12.323  21.296  0.00  0.00    +0.000 A 
ATOM     24  C   UNL     1      -2.993  12.779  22.149  0.00  0.00    +0.000 A 
ATOM     25  C   UNL     1      -4.304  12.945  21.676  0.00  0.00    +0.000 A 
ATOM     26  C   UNL     1      -5.401  13.441  22.573  0.00  0.00    +0.000 C 
ATOM     27  C   UNL     1      -4.595  12.656  20.338  0.00  0.00    +0.000 A 
ATOM     28  C   UNL     1      -3.593  12.207  19.483  0.00  0.00    +0.000 A 
ENDBRANCH  19  22
ENDBRANCH  17  19
ENDBRANCH   6  17
TORSDOF 5
ENDMDL
MODEL 3
REMARK VINA RESULT:      -7.0      3.380      9.403
REMARK  Name = 
REMARK  7 active torsions:
REMARK  status: ('A' for Active; 'I' for Inactive)
REMARK    1  A    between atoms: C_1  and  O_2
REMARK    2  A    between atoms: O_2  and  C_3
REMARK    3  A    between atoms: C_8  and  C_9
REMARK    4  A    between atoms: N_14  and  N_15
REMARK    5  A    between atoms: N_15  and  S_16
REMARK    6  A    between atoms: S_16  and  C_19
REMARK    7  A    between atoms: C_22  and  C_23
REMARK                            x       y       z     vdW  Elec       q    Type
REMARK                         _______ _______ _______ _____ _____    ______ ____
ROOT
ATOM      1  C   UNL     1       1.859   8.388  19.713  0.00  0.00    +0.000 C 
ATOM      2  C   UNL     1       2.096   7.067  19.751  0.00  0.00    +0.000 C 
ATOM      3  S   UNL     1       1.307   5.927  20.784  0.00  0.00    +0.000 S 
ATOM      4  C   UNL     1       2.453   4.652  20.434  0.00  0.00    +0.000 C 
ATOM      5  S   UNL     1       2.343   3.134  21.106  0.00  0.00    +0.000 S 
ATOM      6  N   UNL     1       3.376   5.122  19.521  0.00  0.00    +0.000 N 
ATOM      7  C   UNL     1       3.180   6.390  18.977  0.00  0.00    +0.000 C 
ATOM      8  O   UNL     1       3.761   6.877  18.017  0.00  0.00    +0.000 OA
ENDROOT
BRANCH   1  14
ATOM      9  C   UNL     1      -0.034   9.981  20.255  0.00  0.00    +0.000 A 
ATOM     10  C   UNL     1      -0.735  10.709  21.227  0.00  0.00    +0.000 A 
ATOM     11  C   UNL     1      -0.496  10.508  22.586  0.00  0.00    +0.000 A 
ATOM     12  C   UNL     1       0.451   9.571  22.988  0.00  0.00    +0.000 A 
ATOM     13  C   UNL     1       1.157   8.836  22.032  0.00  0.00    +0.000 A 
ATOM     14  C   UNL     1       0.934   9.039  20.658  0.00  0.00    +0.000 A 
BRANCH   9  16
ATOM     15  C   UNL     1      -1.621  10.296  18.503  0.00  0.00    +0.000 C 
ATOM     16  O   UNL     1      -0.283  10.399  18.972  0.00  0.00    +0.000 OA
ENDBRANCH   9  16
ENDBRANCH   1  14
BRANCH   6  17
ATOM     17  N   UNL     1       4.432   4.238  18.984  0.00  0.00    +0.000 NA
ATOM     18  H   UNL     1       4.709   3.504  19.645  0.00  0.00    +0.000 HD
BRANCH  17  19
ATOM     19  S   UNL     1       3.975   3.344  17.586  0.00  0.00    +0.000 S 
ATOM     20  O   UNL     1       4.248   1.955  17.886  0.00  0.00    +0.000 OA
ATOM     21  O   UNL     1       2.656   3.789  17.184  0.00  0.00    +0.000 OA
BRANCH  19  22
ATOM     22  C   UNL     1       5.126   3.877  16.345  0.00  0.00    +0.000 A 
ATOM     23  C   UNL     1       4.848   3.698  14.989  0.00  0.00    +0.000 A 
ATOM     24  C   UNL     1       5.756   4.170  14.036  0.00  0.00    +0.000 A 
ATOM     25  C   UNL     1       6.929   4.829  14.434  0.00  0.00    +0.000 A 
ATOM     26  C   UNL     1       7.913   5.350  13.428  0.00  0.00    +0.000 C 
ATOM     27  C   UNL     1       7.182   5.020  15.798  0.00  0.00    +0.000 A 
ATOM     28  C   UNL     1       6.280   4.557  16.751  0.00  0.00    +0.000 A 
ENDBRANCH  19  22
ENDBRANCH  17  19
ENDBRANCH   6  17
TORSDOF 5
ENDMDL
MODEL 4
REMARK VINA RESULT:      -6.9      1.580      1.958
REMARK  Name = 
REMARK  7 active torsions:
REMARK  status: ('A' for Active; 'I' for Inactive)
REMARK    1  A    between atoms: C_1  and  O_2
REMARK    2  A    between atoms: O_2  and  C_3
REMARK    3  A    between atoms: C_8  and  C_9
REMARK    4  A    between atoms: N_14  and  N_15
REMARK    5  A    between atoms: N_15  and  S_16
REMARK    6  A    between atoms: S_16  and  C_19
REMARK    7  A    between atoms: C_22  and  C_23
REMARK                            x       y       z     vdW  Elec       q    Type
REMARK                         _______ _______ _______ _____ _____    ______ ____
ROOT
ATOM      1  C   UNL     1       2.610   7.698  17.853  0.00  0.00    +0.000 C 
ATOM      2  C   UNL     1       1.978   8.296  18.876  0.00  0.00    +0.000 C 
ATOM      3  S   UNL     1       1.718   7.611  20.443  0.00  0.00    +0.000 S 
ATOM      4  C   UNL     1       0.573   8.848  20.912  0.00  0.00    +0.000 C 
ATOM      5  S   UNL     1      -0.168   8.869  22.402  0.00  0.00    +0.000 S 
ATOM      6  N   UNL     1       0.451   9.757  19.879  0.00  0.00    +0.000 N 
ATOM      7  C   UNL     1       1.291   9.618  18.776  0.00  0.00    +0.000 C 
ATOM      8  O   UNL     1       1.471  10.433  17.881  0.00  0.00    +0.000 OA
ENDROOT
BRANCH   1  14
ATOM      9  C   UNL     1       4.426   5.934  17.768  0.00  0.00    +0.000 A 
ATOM     10  C   UNL     1       4.763   4.578  17.654  0.00  0.00    +0.000 A 
ATOM     11  C   UNL     1       3.783   3.588  17.715  0.00  0.00    +0.000 A 
ATOM     12  C   UNL     1       2.451   3.945  17.892  0.00  0.00    +0.000 A 
ATOM     13  C   UNL     1       2.099   5.293  18.009  0.00  0.00    +0.000 A 
ATOM     14  C   UNL     1       3.076   6.302  17.936  0.00  0.00    +0.000 A 
BRANCH   9  16
ATOM     15  C   UNL     1       6.773   6.328  17.930  0.00  0.00    +0.000 C 
ATOM     16  O   UNL     1       5.482   6.782  17.544  0.00  0.00    +0.000 OA
ENDBRANCH   9  16
ENDBRANCH   1  14
BRANCH   6  17
ATOM     17  N   UNL     1      -0.401  10.956  20.018  0.00  0.00    +0.000 NA
ATOM     18  H   UNL     1      -1.157  10.828  20.702  0.00  0.00    +0.000 HD
BRANCH  17  19
ATOM     19  S   UNL     1       0.415  12.352  20.605  0.00  0.00    +0.000 S 
ATOM     20  O   UNL     1       1.621  11.877  21.249  0.00  0.00    +0.000 OA
ATOM     21  O   UNL     1       0.461  13.325  19.532  0.00  0.00    +0.000 OA
BRANCH  19  22
ATOM     22  C   UNL     1      -0.669  12.984  21.860  0.00  0.00    +0.000 A 
ATOM     23  C   UNL     1      -1.817  12.282  22.233  0.00  0.00    +0.000 A 
ATOM     24  C   UNL     1      -2.625  12.787  23.256  0.00  0.00    +0.000 A 
ATOM     25  C   UNL     1      -2.283  13.979  23.913  0.00  0.00    +0.000 A 
ATOM     26  C   UNL     1      -3.133  14.534  25.019  0.00  0.00    +0.000 C 
ATOM     27  C   UNL     1      -1.117  14.659  23.541  0.00  0.00    +0.000 A 
ATOM     28  C   UNL     1      -0.305  14.159  22.527  0.00  0.00    +0.000 A 
ENDBRANCH  19  22
ENDBRANCH  17  19
ENDBRANCH   6  17
TORSDOF 5
ENDMDL
MODEL 5
REMARK VINA RESULT:      -6.9      1.795      2.264
REMARK  Name = 
REMARK  7 active torsions:
REMARK  status: ('A' for Active; 'I' for Inactive)
REMARK    1  A    between atoms: C_1  and  O_2
REMARK    2  A    between atoms: O_2  and  C_3
REMARK    3  A    between atoms: C_8  and  C_9
REMARK    4  A    between atoms: N_14  and  N_15
REMARK    5  A    between atoms: N_15  and  S_16
REMARK    6  A    between atoms: S_16  and  C_19
REMARK    7  A    between atoms: C_22  and  C_23
REMARK                            x       y       z     vdW  Elec       q    Type
REMARK                         _______ _______ _______ _____ _____    ______ ____
ROOT
ATOM      1  C   UNL     1       2.508   6.005  17.839  0.00  0.00    +0.000 C 
ATOM      2  C   UNL     1       2.302   6.996  18.721  0.00  0.00    +0.000 C 
ATOM      3  S   UNL     1       2.166   6.811  20.435  0.00  0.00    +0.000 S 
ATOM      4  C   UNL     1       1.561   8.437  20.670  0.00  0.00    +0.000 C 
ATOM      5  S   UNL     1       1.174   9.044  22.170  0.00  0.00    +0.000 S 
ATOM      6  N   UNL     1       1.515   9.075  19.447  0.00  0.00    +0.000 N 
ATOM      7  C   UNL     1       2.036   8.414  18.337  0.00  0.00    +0.000 C 
ATOM      8  O   UNL     1       2.271   8.896  17.237  0.00  0.00    +0.000 OA
ENDROOT
BRANCH   1  14
ATOM      9  C   UNL     1       3.734   3.847  18.344  0.00  0.00    +0.000 A 
ATOM     10  C   UNL     1       3.670   2.460  18.541  0.00  0.00    +0.000 A 
ATOM     11  C   UNL     1       2.443   1.807  18.656  0.00  0.00    +0.000 A 
ATOM     12  C   UNL     1       1.263   2.539  18.578  0.00  0.00    +0.000 A 
ATOM     13  C   UNL     1       1.309   3.922  18.384  0.00  0.00    +0.000 A 
ATOM     14  C   UNL     1       2.540   4.590  18.251  0.00  0.00    +0.000 A 
BRANCH   9  16
ATOM     15  C   UNL     1       5.701   4.886  19.204  0.00  0.00    +0.000 C 
ATOM     16  O   UNL     1       5.004   4.309  18.107  0.00  0.00    +0.000 OA
ENDBRANCH   9  16
ENDBRANCH   1  14
BRANCH   6  17
ATOM     17  N   UNL     1       1.106  10.492  19.345  0.00  0.00    +0.000 NA
ATOM     18  H   UNL     1       1.545  10.976  18.552  0.00  0.00    +0.000 HD
BRANCH  17  19
ATOM     19  S   UNL     1      -0.573  10.736  19.061  0.00  0.00    +0.000 S 
ATOM     20  O   UNL     1      -0.792  10.467  17.656  0.00  0.00    +0.000 OA
ATOM     21  O   UNL     1      -1.306  10.028  20.092  0.00  0.00    +0.000 OA
BRANCH  19  22
ATOM     22  C   UNL     1      -0.804  12.474  19.334  0.00  0.00    +0.000 A 
ATOM     23  C   UNL     1      -1.647  12.933  20.347  0.00  0.00    +0.000 A 
ATOM     24  C   UNL     1      -1.771  14.309  20.562  0.00  0.00    +0.000 A 
ATOM     25  C   UNL     1      -1.047  15.222  19.779  0.00  0.00    +0.000 A 
ATOM     26  C   UNL     1      -1.160  16.702  20.000  0.00  0.00    +0.000 C 
ATOM     27  C   UNL     1      -0.190  14.743  18.781  0.00  0.00    +0.000 A 
ATOM     28  C   UNL     1      -0.058  13.375  18.565  0.00  0.00    +0.000 A 
ENDBRANCH  19  22
ENDBRANCH  17  19
ENDBRANCH   6  17
TORSDOF 5
ENDMDL
MODEL 6
REMARK VINA RESULT:      -6.8      1.172      1.392
REMARK  Name = 
REMARK  7 active torsions:
REMARK  status: ('A' for Active; 'I' for Inactive)
REMARK    1  A    between atoms: C_1  and  O_2
REMARK    2  A    between atoms: O_2  and  C_3
REMARK    3  A    between atoms: C_8  and  C_9
REMARK    4  A    between atoms: N_14  and  N_15
REMARK    5  A    between atoms: N_15  and  S_16
REMARK    6  A    between atoms: S_16  and  C_19
REMARK    7  A    between atoms: C_22  and  C_23
REMARK                            x       y       z     vdW  Elec       q    Type
REMARK                         _______ _______ _______ _____ _____    ______ ____
ROOT
ATOM      1  C   UNL     1       2.562   6.458  17.810  0.00  0.00    +0.000 C 
ATOM      2  C   UNL     1       2.296   7.361  18.767  0.00  0.00    +0.000 C 
ATOM      3  S   UNL     1       2.135   7.025  20.456  0.00  0.00    +0.000 S 
ATOM      4  C   UNL     1       1.456   8.598  20.814  0.00  0.00    +0.000 C 
ATOM      5  S   UNL     1       1.014   9.058  22.351  0.00  0.00    +0.000 S 
ATOM      6  N   UNL     1       1.406   9.336  19.648  0.00  0.00    +0.000 N 
ATOM      7  C   UNL     1       1.977   8.795  18.499  0.00  0.00    +0.000 C 
ATOM      8  O   UNL     1       2.212   9.378  17.449  0.00  0.00    +0.000 OA
ENDROOT
BRANCH   1  14
ATOM      9  C   UNL     1       3.871   4.321  18.177  0.00  0.00    +0.000 A 
ATOM     10  C   UNL     1       3.867   2.921  18.253  0.00  0.00    +0.000 A 
ATOM     11  C   UNL     1       2.669   2.207  18.265  0.00  0.00    +0.000 A 
ATOM     12  C   UNL     1       1.459   2.889  18.203  0.00  0.00    +0.000 A 
ATOM     13  C   UNL     1       1.446   4.285  18.129  0.00  0.00    +0.000 A 
ATOM     14  C   UNL     1       2.647   5.016  18.102  0.00  0.00    +0.000 A 
BRANCH   9  16
ATOM     15  C   UNL     1       5.851   5.149  19.218  0.00  0.00    +0.000 C 
ATOM     16  O   UNL     1       5.126   4.858  18.030  0.00  0.00    +0.000 OA
ENDBRANCH   9  16
ENDBRANCH   1  14
BRANCH   6  17
ATOM     17  N   UNL     1       0.939  10.739  19.657  0.00  0.00    +0.000 NA
ATOM     18  H   UNL     1       1.379  11.309  18.925  0.00  0.00    +0.000 HD
BRANCH  17  19
ATOM     19  S   UNL     1      -0.741  10.937  19.339  0.00  0.00    +0.000 S 
ATOM     20  O   UNL     1      -0.836  11.753  18.148  0.00  0.00    +0.000 OA
ATOM     21  O   UNL     1      -1.366   9.631  19.416  0.00  0.00    +0.000 OA
BRANCH  19  22
ATOM     22  C   UNL     1      -1.324  11.896  20.713  0.00  0.00    +0.000 A 
ATOM     23  C   UNL     1      -1.332  11.364  22.004  0.00  0.00    +0.000 A 
ATOM     24  C   UNL     1      -1.756  12.163  23.070  0.00  0.00    +0.000 A 
ATOM     25  C   UNL     1      -2.160  13.489  22.851  0.00  0.00    +0.000 A 
ATOM     26  C   UNL     1      -2.612  14.365  23.983  0.00  0.00    +0.000 C 
ATOM     27  C   UNL     1      -2.126  14.013  21.554  0.00  0.00    +0.000 A 
ATOM     28  C   UNL     1      -1.699  13.225  20.489  0.00  0.00    +0.000 A 
ENDBRANCH  19  22
ENDBRANCH  17  19
ENDBRANCH   6  17
TORSDOF 5
ENDMDL
MODEL 7
REMARK VINA RESULT:      -6.8      2.933      3.770
REMARK  Name = 
REMARK  7 active torsions:
REMARK  status: ('A' for Active; 'I' for Inactive)
REMARK    1  A    between atoms: C_1  and  O_2
REMARK    2  A    between atoms: O_2  and  C_3
REMARK    3  A    between atoms: C_8  and  C_9
REMARK    4  A    between atoms: N_14  and  N_15
REMARK    5  A    between atoms: N_15  and  S_16
REMARK    6  A    between atoms: S_16  and  C_19
REMARK    7  A    between atoms: C_22  and  C_23
REMARK                            x       y       z     vdW  Elec       q    Type
REMARK                         _______ _______ _______ _____ _____    ______ ____
ROOT
ATOM      1  C   UNL     1       2.755   7.159  18.069  0.00  0.00    +0.000 C 
ATOM      2  C   UNL     1       2.116   7.947  18.949  0.00  0.00    +0.000 C 
ATOM      3  S   UNL     1       1.527   7.460  20.500  0.00  0.00    +0.000 S 
ATOM      4  C   UNL     1       0.582   8.916  20.718  0.00  0.00    +0.000 C 
ATOM      5  S   UNL     1      -0.332   9.200  22.079  0.00  0.00    +0.000 S 
ATOM      6  N   UNL     1       0.771   9.737  19.623  0.00  0.00    +0.000 N 
ATOM      7  C   UNL     1       1.708   9.355  18.666  0.00  0.00    +0.000 C 
ATOM      8  O   UNL     1       2.155  10.043  17.758  0.00  0.00    +0.000 OA
ENDROOT
BRANCH   1  14
ATOM      9  C   UNL     1       4.108   5.173  18.868  0.00  0.00    +0.000 A 
ATOM     10  C   UNL     1       4.293   3.783  18.874  0.00  0.00    +0.000 A 
ATOM     11  C   UNL     1       3.328   2.929  18.340  0.00  0.00    +0.000 A 
ATOM     12  C   UNL     1       2.164   3.459  17.795  0.00  0.00    +0.000 A 
ATOM     13  C   UNL     1       1.964   4.843  17.783  0.00  0.00    +0.000 A 
ATOM     14  C   UNL     1       2.936   5.715  18.306  0.00  0.00    +0.000 A 
BRANCH   9  16
ATOM     15  C   UNL     1       6.485   5.323  18.999  0.00  0.00    +0.000 C 
ATOM     16  O   UNL     1       5.209   5.873  19.297  0.00  0.00    +0.000 OA
ENDBRANCH   9  16
ENDBRANCH   1  14
BRANCH   6  17
ATOM     17  N   UNL     1       0.147  11.076  19.561  0.00  0.00    +0.000 NA
ATOM     18  H   UNL     1      -0.853  11.060  19.797  0.00  0.00    +0.000 HD
BRANCH  17  19
ATOM     19  S   UNL     1       0.787  12.218  20.677  0.00  0.00    +0.000 S 
ATOM     20  O   UNL     1      -0.339  12.727  21.430  0.00  0.00    +0.000 OA
ATOM     21  O   UNL     1       1.925  11.607  21.335  0.00  0.00    +0.000 OA
BRANCH  19  22
ATOM     22  C   UNL     1       1.399  13.525  19.645  0.00  0.00    +0.000 A 
ATOM     23  C   UNL     1       0.748  14.759  19.593  0.00  0.00    +0.000 A 
ATOM     24  C   UNL     1       1.282  15.781  18.803  0.00  0.00    +0.000 A 
ATOM     25  C   UNL     1       2.467  15.578  18.079  0.00  0.00    +0.000 A 
ATOM     26  C   UNL     1       3.062  16.665  17.232  0.00  0.00    +0.000 C 
ATOM     27  C   UNL     1       3.119  14.341  18.159  0.00  0.00    +0.000 A 
ATOM     28  C   UNL     1       2.595  13.321  18.948  0.00  0.00    +0.000 A 
ENDBRANCH  19  22
ENDBRANCH  17  19
ENDBRANCH   6  17
TORSDOF 5
ENDMDL
MODEL 8
REMARK VINA RESULT:      -6.8      2.368      2.716
REMARK  Name = 
REMARK  7 active torsions:
REMARK  status: ('A' for Active; 'I' for Inactive)
REMARK    1  A    between atoms: C_1  and  O_2
REMARK    2  A    between atoms: O_2  and  C_3
REMARK    3  A    between atoms: C_8  and  C_9
REMARK    4  A    between atoms: N_14  and  N_15
REMARK    5  A    between atoms: N_15  and  S_16
REMARK    6  A    between atoms: S_16  and  C_19
REMARK    7  A    between atoms: C_22  and  C_23
REMARK                            x       y       z     vdW  Elec       q    Type
REMARK                         _______ _______ _______ _____ _____    ______ ____
ROOT
ATOM      1  C   UNL     1       2.582   7.136  17.941  0.00  0.00    +0.000 C 
ATOM      2  C   UNL     1       2.079   8.011  18.826  0.00  0.00    +0.000 C 
ATOM      3  S   UNL     1       1.689   7.670  20.476  0.00  0.00    +0.000 S 
ATOM      4  C   UNL     1       0.808   9.167  20.690  0.00  0.00    +0.000 C 
ATOM      5  S   UNL     1       0.086   9.588  22.128  0.00  0.00    +0.000 S 
ATOM      6  N   UNL     1       0.868   9.890  19.514  0.00  0.00    +0.000 N 
ATOM      7  C   UNL     1       1.665   9.404  18.480  0.00  0.00    +0.000 C 
ATOM      8  O   UNL     1       2.002  10.002  17.467  0.00  0.00    +0.000 OA
ENDROOT
BRANCH   1  14
ATOM      9  C   UNL     1       3.969   5.194  18.788  0.00  0.00    +0.000 A 
ATOM     10  C   UNL     1       4.139   3.805  18.886  0.00  0.00    +0.000 A 
ATOM     11  C   UNL     1       3.128   2.930  18.492  0.00  0.00    +0.000 A 
ATOM     12  C   UNL     1       1.931   3.436  17.995  0.00  0.00    +0.000 A 
ATOM     13  C   UNL     1       1.746   4.818  17.893  0.00  0.00    +0.000 A 
ATOM     14  C   UNL     1       2.764   5.711  18.274  0.00  0.00    +0.000 A 
BRANCH   9  16
ATOM     15  C   UNL     1       6.313   5.169  19.234  0.00  0.00    +0.000 C 
ATOM     16  O   UNL     1       5.106   5.906  19.080  0.00  0.00    +0.000 OA
ENDBRANCH   9  16
ENDBRANCH   1  14
BRANCH   6  17
ATOM     17  N   UNL     1       0.268  11.238  19.420  0.00  0.00    +0.000 NA
ATOM     18  H   UNL     1      -0.503  11.377  20.084  0.00  0.00    +0.000 HD
BRANCH  17  19
ATOM     19  S   UNL     1       1.340  12.529  19.800  0.00  0.00    +0.000 S 
ATOM     20  O   UNL     1       1.749  12.327  21.173  0.00  0.00    +0.000 OA
ATOM     21  O   UNL     1       2.309  12.633  18.727  0.00  0.00    +0.000 OA
BRANCH  19  22
ATOM     22  C   UNL     1       0.308  13.971  19.738  0.00  0.00    +0.000 A 
ATOM     23  C   UNL     1      -0.838  14.065  20.528  0.00  0.00    +0.000 A 
ATOM     24  C   UNL     1      -1.604  15.235  20.486  0.00  0.00    +0.000 A 
ATOM     25  C   UNL     1      -1.220  16.310  19.670  0.00  0.00    +0.000 A 
ATOM     26  C   UNL     1      -2.023  17.577  19.617  0.00  0.00    +0.000 C 
ATOM     27  C   UNL     1      -0.055  16.207  18.900  0.00  0.00    +0.000 A 
ATOM     28  C   UNL     1       0.714  15.048  18.940  0.00  0.00    +0.000 A 
ENDBRANCH  19  22
ENDBRANCH  17  19
ENDBRANCH   6  17
TORSDOF 5
ENDMDL
MODEL 9
REMARK VINA RESULT:      -6.7      1.359      2.177
REMARK  Name = 
REMARK  7 active torsions:
REMARK  status: ('A' for Active; 'I' for Inactive)
REMARK    1  A    between atoms: C_1  and  O_2
REMARK    2  A    between atoms: O_2  and  C_3
REMARK    3  A    between atoms: C_8  and  C_9
REMARK    4  A    between atoms: N_14  and  N_15
REMARK    5  A    between atoms: N_15  and  S_16
REMARK    6  A    between atoms: S_16  and  C_19
REMARK    7  A    between atoms: C_22  and  C_23
REMARK                            x       y       z     vdW  Elec       q    Type
REMARK                         _______ _______ _______ _____ _____    ______ ____
ROOT
ATOM      1  C   UNL     1       3.255   7.431  17.762  0.00  0.00    +0.000 C 
ATOM      2  C   UNL     1       2.440   8.014  18.656  0.00  0.00    +0.000 C 
ATOM      3  S   UNL     1       2.059   7.401  20.227  0.00  0.00    +0.000 S 
ATOM      4  C   UNL     1       0.738   8.524  20.464  0.00  0.00    +0.000 C 
ATOM      5  S   UNL     1      -0.182   8.551  21.849  0.00  0.00    +0.000 S 
ATOM      6  N   UNL     1       0.651   9.347  19.358  0.00  0.00    +0.000 N 
ATOM      7  C   UNL     1       1.633   9.239  18.376  0.00  0.00    +0.000 C 
ATOM      8  O   UNL     1       1.837  10.013  17.450  0.00  0.00    +0.000 OA
ENDROOT
BRANCH   1  14
ATOM      9  C   UNL     1       3.107   4.911  17.971  0.00  0.00    +0.000 A 
ATOM     10  C   UNL     1       3.695   3.717  18.411  0.00  0.00    +0.000 A 
ATOM     11  C   UNL     1       5.012   3.692  18.869  0.00  0.00    +0.000 A 
ATOM     12  C   UNL     1       5.757   4.866  18.891  0.00  0.00    +0.000 A 
ATOM     13  C   UNL     1       5.185   6.065  18.455  0.00  0.00    +0.000 A 
ATOM     14  C   UNL     1       3.853   6.106  18.003  0.00  0.00    +0.000 A 
BRANCH   9  16
ATOM     15  C   UNL     1       1.086   3.674  18.245  0.00  0.00    +0.000 C 
ATOM     16  O   UNL     1       1.768   4.791  17.691  0.00  0.00    +0.000 OA
ENDBRANCH   9  16
ENDBRANCH   1  14
BRANCH   6  17
ATOM     17  N   UNL     1      -0.335  10.447  19.306  0.00  0.00    +0.000 NA
ATOM     18  H   UNL     1      -1.218  10.211  19.773  0.00  0.00    +0.000 HD
BRANCH  17  19
ATOM     19  S   UNL     1       0.153  11.887  20.112  0.00  0.00    +0.000 S 
ATOM     20  O   UNL     1       1.296  11.531  20.925  0.00  0.00    +0.000 OA
ATOM     21  O   UNL     1       0.224  12.947  19.126  0.00  0.00    +0.000 OA
BRANCH  19  22
ATOM     22  C   UNL     1      -1.205  12.249  21.196  0.00  0.00    +0.000 A 
ATOM     23  C   UNL     1      -2.461  12.576  20.683  0.00  0.00    +0.000 A 
ATOM     24  C   UNL     1      -3.520  12.812  21.566  0.00  0.00    +0.000 A 
ATOM     25  C   UNL     1      -3.328  12.710  22.953  0.00  0.00    +0.000 A 
ATOM     26  C   UNL     1      -4.453  12.953  23.917  0.00  0.00    +0.000 C 
ATOM     27  C   UNL     1      -2.067  12.361  23.449  0.00  0.00    +0.000 A 
ATOM     28  C   UNL     1      -1.010  12.120  22.576  0.00  0.00    +0.000 A 
ENDBRANCH  19  22
ENDBRANCH  17  19
ENDBRANCH   6  17
TORSDOF 5
ENDMDL
