MODEL 1
REMARK VINA RESULT:      -7.8      0.000      0.000
REMARK  Name = 
REMARK  8 active torsions:
REMARK  status: ('A' for Active; 'I' for Inactive)
REMARK    1  A    between atoms: C_1  and  N_2
REMARK    2  A    between atoms: C_7  and  C_8
REMARK    3  A    between atoms: C_11  and  C_12
REMARK    4  A    between atoms: C_12  and  C_13
REMARK    5  A    between atoms: C_12  and  C_14
REMARK    6  A    between atoms: C_12  and  O_15
REMARK    7  A    between atoms: C_23  and  C_24
REMARK    8  A    between atoms: C_24  and  O_25
REMARK                            x       y       z     vdW  Elec       q    Type
REMARK                         _______ _______ _______ _____ _____    ______ ____
ROOT
ATOM      1  C   UNL     1       3.088   0.870  19.312  0.00  0.00    +0.000 C 
ATOM      2  N   UNL     1       2.635   2.209  19.637  0.00  0.00    +0.000 N 
ATOM      3  C   UNL     1       1.635   2.405  20.540  0.00  0.00    +0.000 A 
ATOM      4  N   UNL     1       1.238   3.562  20.945  0.00  0.00    +0.000 NA
ATOM      5  C   UNL     1       1.826   4.699  20.361  0.00  0.00    +0.000 A 
ATOM      6  C   UNL     1       1.285   5.926  20.726  0.00  0.00    +0.000 A 
ATOM      7  C   UNL     1       1.785   7.079  20.158  0.00  0.00    +0.000 A 
ATOM      8  N   UNL     1       2.741   7.017  19.193  0.00  0.00    +0.000 NA
ATOM      9  C   UNL     1       3.304   5.826  18.803  0.00  0.00    +0.000 A 
ATOM     10  N   UNL     1       4.180   5.937  17.751  0.00  0.00    +0.000 N 
ATOM     11  C   UNL     1       4.438   7.224  17.105  0.00  0.00    +0.000 C 
ATOM     12  C   UNL     1       4.995   6.824  15.739  0.00  0.00    +0.000 C 
ATOM     13  C   UNL     1       5.793   5.555  16.021  0.00  0.00    +0.000 C 
ATOM     14  C   UNL     1       5.037   4.905  17.183  0.00  0.00    +0.000 C 
ATOM     15  C   UNL     1       2.889   4.641  19.443  0.00  0.00    +0.000 A 
ATOM     16  C   UNL     1       3.452   3.273  19.271  0.00  0.00    +0.000 A 
ATOM     17  O   UNL     1       4.612   3.056  18.942  0.00  0.00    +0.000 OA
ENDROOT
BRANCH   7  18
ATOM     18  C   UNL     1       1.343   8.425  20.576  0.00  0.00    +0.000 A 
ATOM     19  C   UNL     1       1.024   8.740  21.900  0.00  0.00    +0.000 A 
ATOM     20  C   UNL     1       0.542  10.012  22.240  0.00  0.00    +0.000 A 
ATOM     21  C   UNL     1       0.381  10.978  21.246  0.00  0.00    +0.000 A 
ATOM     22  N   UNL     1       0.711  10.715  19.959  0.00  0.00    +0.000 NA
ATOM     23  C   UNL     1       1.171   9.470  19.664  0.00  0.00    +0.000 A 
BRANCH  21  24
ATOM     24  C   UNL     1      -0.270  12.330  21.557  0.00  0.00    +0.000 C 
ATOM     25  C   UNL     1      -1.145  12.841  20.404  0.00  0.00    +0.000 C 
ATOM     26  C   UNL     1      -1.116  12.205  22.828  0.00  0.00    +0.000 C 
BRANCH  24  27
ATOM     27  O   UNL     1       0.728  13.333  21.804  0.00  0.00    +0.000 OA
ATOM     28  H   UNL     1       1.260  13.402  20.993  0.00  0.00    +0.000 HD
ENDBRANCH  24  27
ENDBRANCH  21  24
ENDBRANCH   7  18
BRANCH  13  29
ATOM     29  C   UNL     1       7.252   5.815  16.392  0.00  0.00    +0.000 C 
BRANCH  29  30
ATOM     30  O   UNL     1       7.899   4.595  16.734  0.00  0.00    +0.000 OA
ATOM     31  H   UNL     1       8.789   4.817  17.059  0.00  0.00    +0.000 HD
ENDBRANCH  29  30
ENDBRANCH  13  29
TORSDOF 5
ENDMDL
MODEL 2
REMARK VINA RESULT:      -7.8      1.546      1.847
REMARK  Name = 
REMARK  8 active torsions:
REMARK  status: ('A' for Active; 'I' for Inactive)
REMARK    1  A    between atoms: C_1  and  N_2
REMARK    2  A    between atoms: C_7  and  C_8
REMARK    3  A    between atoms: C_11  and  C_12
REMARK    4  A    between atoms: C_12  and  C_13
REMARK    5  A    between atoms: C_12  and  C_14
REMARK    6  A    between atoms: C_12  and  O_15
REMARK    7  A    between atoms: C_23  and  C_24
REMARK    8  A    between atoms: C_24  and  O_25
REMARK                            x       y       z     vdW  Elec       q    Type
REMARK                         _______ _______ _______ _____ _____    ______ ____
ROOT
ATOM      1  C   UNL     1       3.934   1.293  20.722  0.00  0.00    +0.000 C 
ATOM      2  N   UNL     1       3.404   2.635  20.564  0.00  0.00    +0.000 N 
ATOM      3  C   UNL     1       2.441   3.106  21.405  0.00  0.00    +0.000 A 
ATOM      4  N   UNL     1       1.985   4.310  21.384  0.00  0.00    +0.000 NA
ATOM      5  C   UNL     1       2.459   5.175  20.380  0.00  0.00    +0.000 A 
ATOM      6  C   UNL     1       1.852   6.422  20.307  0.00  0.00    +0.000 A 
ATOM      7  C   UNL     1       2.238   7.304  19.319  0.00  0.00    +0.000 A 
ATOM      8  N   UNL     1       3.144   6.932  18.376  0.00  0.00    +0.000 NA
ATOM      9  C   UNL     1       3.770   5.710  18.411  0.00  0.00    +0.000 A 
ATOM     10  N   UNL     1       4.580   5.462  17.329  0.00  0.00    +0.000 N 
ATOM     11  C   UNL     1       4.711   6.427  16.238  0.00  0.00    +0.000 C 
ATOM     12  C   UNL     1       5.223   5.575  15.076  0.00  0.00    +0.000 C 
ATOM     13  C   UNL     1       6.122   4.541  15.745  0.00  0.00    +0.000 C 
ATOM     14  C   UNL     1       5.477   4.334  17.118  0.00  0.00    +0.000 C 
ATOM     15  C   UNL     1       3.474   4.829  19.471  0.00  0.00    +0.000 A 
ATOM     16  C   UNL     1       4.123   3.524  19.773  0.00  0.00    +0.000 A 
ATOM     17  O   UNL     1       5.277   3.254  19.460  0.00  0.00    +0.000 OA
ENDROOT
BRANCH   7  18
ATOM     18  C   UNL     1       1.724   8.686  19.245  0.00  0.00    +0.000 A 
ATOM     19  C   UNL     1       0.910   9.246  20.234  0.00  0.00    +0.000 A 
ATOM     20  C   UNL     1       0.388  10.538  20.089  0.00  0.00    +0.000 A 
ATOM     21  C   UNL     1       0.685  11.279  18.944  0.00  0.00    +0.000 A 
ATOM     22  N   UNL     1       1.496  10.778  17.982  0.00  0.00    +0.000 NA
ATOM     23  C   UNL     1       1.982   9.520  18.153  0.00  0.00    +0.000 A 
BRANCH  21  24
ATOM     24  C   UNL     1       0.023  12.637  18.689  0.00  0.00    +0.000 C 
ATOM     25  C   UNL     1      -0.966  13.028  19.796  0.00  0.00    +0.000 C 
ATOM     26  C   UNL     1       1.105  13.714  18.563  0.00  0.00    +0.000 C 
BRANCH  24  27
ATOM     27  O   UNL     1      -0.713  12.623  17.454  0.00  0.00    +0.000 OA
ATOM     28  H   UNL     1      -1.521  12.107  17.617  0.00  0.00    +0.000 HD
ENDBRANCH  24  27
ENDBRANCH  21  24
ENDBRANCH   7  18
BRANCH  13  29
ATOM     29  C   UNL     1       7.577   4.987  15.884  0.00  0.00    +0.000 C 
BRANCH  29  30
ATOM     30  O   UNL     1       8.189   4.339  16.992  0.00  0.00    +0.000 OA
ATOM     31  H   UNL     1       9.127   4.595  16.999  0.00  0.00    +0.000 HD
ENDBRANCH  29  30
ENDBRANCH  13  29
TORSDOF 5
ENDMDL
MODEL 3
REMARK VINA RESULT:      -7.7      3.156      9.542
REMARK  Name = 
REMARK  8 active torsions:
REMARK  status: ('A' for Active; 'I' for Inactive)
REMARK    1  A    between atoms: C_1  and  N_2
REMARK    2  A    between atoms: C_7  and  C_8
REMARK    3  A    between atoms: C_11  and  C_12
REMARK    4  A    between atoms: C_12  and  C_13
REMARK    5  A    between atoms: C_12  and  C_14
REMARK    6  A    between atoms: C_12  and  O_15
REMARK    7  A    between atoms: C_23  and  C_24
REMARK    8  A    between atoms: C_24  and  O_25
REMARK                            x       y       z     vdW  Elec       q    Type
REMARK                         _______ _______ _______ _____ _____    ______ ____
ROOT
ATOM      1  C   UNL     1      -2.114  15.385  21.888  0.00  0.00    +0.000 C 
ATOM      2  N   UNL     1      -1.303  14.260  21.461  0.00  0.00    +0.000 N 
ATOM      3  C   UNL     1      -0.037  14.097  21.935  0.00  0.00    +0.000 A 
ATOM      4  N   UNL     1       0.711  13.082  21.673  0.00  0.00    +0.000 NA
ATOM      5  C   UNL     1       0.215  12.114  20.780  0.00  0.00    +0.000 A 
ATOM      6  C   UNL     1       1.096  11.102  20.419  0.00  0.00    +0.000 A 
ATOM      7  C   UNL     1       0.690  10.144  19.514  0.00  0.00    +0.000 A 
ATOM      8  N   UNL     1      -0.528  10.229  18.916  0.00  0.00    +0.000 NA
ATOM      9  C   UNL     1      -1.431  11.212  19.244  0.00  0.00    +0.000 A 
ATOM     10  N   UNL     1      -2.570  11.207  18.475  0.00  0.00    +0.000 N 
ATOM     11  C   UNL     1      -2.753  10.244  17.389  0.00  0.00    +0.000 C 
ATOM     12  C   UNL     1      -3.816  10.906  16.512  0.00  0.00    +0.000 C 
ATOM     13  C   UNL     1      -4.719  11.628  17.506  0.00  0.00    +0.000 C 
ATOM     14  C   UNL     1      -3.768  12.019  18.641  0.00  0.00    +0.000 C 
ATOM     15  C   UNL     1      -1.084  12.142  20.245  0.00  0.00    +0.000 A 
ATOM     16  C   UNL     1      -1.949  13.197  20.840  0.00  0.00    +0.000 A 
ATOM     17  O   UNL     1      -3.170  13.113  20.907  0.00  0.00    +0.000 OA
ENDROOT
BRANCH   7  18
ATOM     18  C   UNL     1       1.525   8.976  19.167  0.00  0.00    +0.000 A 
ATOM     19  C   UNL     1       2.151   8.834  17.925  0.00  0.00    +0.000 A 
ATOM     20  C   UNL     1       2.877   7.677  17.614  0.00  0.00    +0.000 A 
ATOM     21  C   UNL     1       2.982   6.652  18.557  0.00  0.00    +0.000 A 
ATOM     22  N   UNL     1       2.414   6.772  19.781  0.00  0.00    +0.000 NA
ATOM     23  C   UNL     1       1.713   7.907  20.046  0.00  0.00    +0.000 A 
BRANCH  21  24
ATOM     24  C   UNL     1       3.650   5.320  18.203  0.00  0.00    +0.000 C 
ATOM     25  C   UNL     1       2.631   4.220  17.870  0.00  0.00    +0.000 C 
ATOM     26  C   UNL     1       4.593   5.524  17.014  0.00  0.00    +0.000 C 
BRANCH  24  27
ATOM     27  O   UNL     1       4.442   4.839  19.302  0.00  0.00    +0.000 OA
ATOM     28  H   UNL     1       5.244   5.388  19.328  0.00  0.00    +0.000 HD
ENDBRANCH  24  27
ENDBRANCH  21  24
ENDBRANCH   7  18
BRANCH  13  29
ATOM     29  C   UNL     1      -5.872  10.771  18.026  0.00  0.00    +0.000 C 
BRANCH  29  30
ATOM     30  O   UNL     1      -7.110  11.449  17.850  0.00  0.00    +0.000 OA
ATOM     31  H   UNL     1      -7.787  10.957  18.345  0.00  0.00    +0.000 HD
ENDBRANCH  29  30
ENDBRANCH  13  29
TORSDOF 5
ENDMDL
MODEL 4
REMARK VINA RESULT:      -7.6      0.744      1.044
REMARK  Name = 
REMARK  8 active torsions:
REMARK  status: ('A' for Active; 'I' for Inactive)
REMARK    1  A    between atoms: C_1  and  N_2
REMARK    2  A    between atoms: C_7  and  C_8
REMARK    3  A    between atoms: C_11  and  C_12
REMARK    4  A    between atoms: C_12  and  C_13
REMARK    5  A    between atoms: C_12  and  C_14
REMARK    6  A    between atoms: C_12  and  O_15
REMARK    7  A    between atoms: C_23  and  C_24
REMARK    8  A    between atoms: C_24  and  O_25
REMARK                            x       y       z     vdW  Elec       q    Type
REMARK                         _______ _______ _______ _____ _____    ______ ____
ROOT
ATOM      1  C   UNL     1       4.014   1.030  20.053  0.00  0.00    +0.000 C 
ATOM      2  N   UNL     1       3.404   2.334  20.231  0.00  0.00    +0.000 N 
ATOM      3  C   UNL     1       2.426   2.524  21.159  0.00  0.00    +0.000 A 
ATOM      4  N   UNL     1       1.900   3.666  21.436  0.00  0.00    +0.000 NA
ATOM      5  C   UNL     1       2.308   4.779  20.677  0.00  0.00    +0.000 A 
ATOM      6  C   UNL     1       1.627   5.967  20.914  0.00  0.00    +0.000 A 
ATOM      7  C   UNL     1       1.947   7.087  20.174  0.00  0.00    +0.000 A 
ATOM      8  N   UNL     1       2.861   7.015  19.170  0.00  0.00    +0.000 NA
ATOM      9  C   UNL     1       3.558   5.861  18.903  0.00  0.00    +0.000 A 
ATOM     10  N   UNL     1       4.366   5.937  17.795  0.00  0.00    +0.000 N 
ATOM     11  C   UNL     1       4.426   7.148  16.976  0.00  0.00    +0.000 C 
ATOM     12  C   UNL     1       4.971   6.640  15.641  0.00  0.00    +0.000 C 
ATOM     13  C   UNL     1       5.940   5.530  16.035  0.00  0.00    +0.000 C 
ATOM     14  C   UNL     1       5.326   4.953  17.314  0.00  0.00    +0.000 C 
ATOM     15  C   UNL     1       3.329   4.731  19.713  0.00  0.00    +0.000 A 
ATOM     16  C   UNL     1       4.058   3.432  19.684  0.00  0.00    +0.000 A 
ATOM     17  O   UNL     1       5.222   3.319  19.317  0.00  0.00    +0.000 OA
ENDROOT
BRANCH   7  18
ATOM     18  C   UNL     1       1.351   8.411  20.442  0.00  0.00    +0.000 A 
ATOM     19  C   UNL     1       0.938   9.276  19.424  0.00  0.00    +0.000 A 
ATOM     20  C   UNL     1       0.441  10.552  19.723  0.00  0.00    +0.000 A 
ATOM     21  C   UNL     1       0.352  10.964  21.054  0.00  0.00    +0.000 A 
ATOM     22  N   UNL     1       0.712  10.138  22.064  0.00  0.00    +0.000 NA
ATOM     23  C   UNL     1       1.195   8.910  21.738  0.00  0.00    +0.000 A 
BRANCH  21  24
ATOM     24  C   UNL     1      -0.057  12.398  21.410  0.00  0.00    +0.000 C 
ATOM     25  C   UNL     1      -0.782  13.107  20.257  0.00  0.00    +0.000 C 
ATOM     26  C   UNL     1      -0.958  12.376  22.648  0.00  0.00    +0.000 C 
BRANCH  24  27
ATOM     27  O   UNL     1       1.096  13.192  21.733  0.00  0.00    +0.000 OA
ATOM     28  H   UNL     1       1.768  12.580  22.081  0.00  0.00    +0.000 HD
ENDBRANCH  24  27
ENDBRANCH  21  24
ENDBRANCH   7  18
BRANCH  13  29
ATOM     29  C   UNL     1       7.367   6.016  16.282  0.00  0.00    +0.000 C 
BRANCH  29  30
ATOM     30  O   UNL     1       7.756   5.744  17.623  0.00  0.00    +0.000 OA
ATOM     31  H   UNL     1       8.718   5.879  17.682  0.00  0.00    +0.000 HD
ENDBRANCH  29  30
ENDBRANCH  13  29
TORSDOF 5
ENDMDL
MODEL 5
REMARK VINA RESULT:      -7.5      1.309      1.768
REMARK  Name = 
REMARK  8 active torsions:
REMARK  status: ('A' for Active; 'I' for Inactive)
REMARK    1  A    between atoms: C_1  and  N_2
REMARK    2  A    between atoms: C_7  and  C_8
REMARK    3  A    between atoms: C_11  and  C_12
REMARK    4  A    between atoms: C_12  and  C_13
REMARK    5  A    between atoms: C_12  and  C_14
REMARK    6  A    between atoms: C_12  and  O_15
REMARK    7  A    between atoms: C_23  and  C_24
REMARK    8  A    between atoms: C_24  and  O_25
REMARK                            x       y       z     vdW  Elec       q    Type
REMARK                         _______ _______ _______ _____ _____    ______ ____
ROOT
ATOM      1  C   UNL     1       3.977   1.254  20.637  0.00  0.00    +0.000 C 
ATOM      2  N   UNL     1       3.426   2.591  20.529  0.00  0.00    +0.000 N 
ATOM      3  C   UNL     1       2.461   3.018  21.391  0.00  0.00    +0.000 A 
ATOM      4  N   UNL     1       1.986   4.214  21.415  0.00  0.00    +0.000 NA
ATOM      5  C   UNL     1       2.440   5.121  20.439  0.00  0.00    +0.000 A 
ATOM      6  C   UNL     1       1.813   6.360  20.413  0.00  0.00    +0.000 A 
ATOM      7  C   UNL     1       2.179   7.282  19.454  0.00  0.00    +0.000 A 
ATOM      8  N   UNL     1       3.085   6.958  18.493  0.00  0.00    +0.000 NA
ATOM      9  C   UNL     1       3.730   5.745  18.482  0.00  0.00    +0.000 A 
ATOM     10  N   UNL     1       4.536   5.547  17.387  0.00  0.00    +0.000 N 
ATOM     11  C   UNL     1       4.646   6.552  16.329  0.00  0.00    +0.000 C 
ATOM     12  C   UNL     1       5.163   5.749  15.136  0.00  0.00    +0.000 C 
ATOM     13  C   UNL     1       6.083   4.706  15.763  0.00  0.00    +0.000 C 
ATOM     14  C   UNL     1       5.450   4.442  17.132  0.00  0.00    +0.000 C 
ATOM     15  C   UNL     1       3.455   4.824  19.512  0.00  0.00    +0.000 A 
ATOM     16  C   UNL     1       4.126   3.518  19.765  0.00  0.00    +0.000 A 
ATOM     17  O   UNL     1       5.282   3.278  19.436  0.00  0.00    +0.000 OA
ENDROOT
BRANCH   7  18
ATOM     18  C   UNL     1       1.642   8.657  19.430  0.00  0.00    +0.000 A 
ATOM     19  C   UNL     1       1.712   9.479  18.301  0.00  0.00    +0.000 A 
ATOM     20  C   UNL     1       1.252  10.802  18.345  0.00  0.00    +0.000 A 
ATOM     21  C   UNL     1       0.712  11.307  19.529  0.00  0.00    +0.000 A 
ATOM     22  N   UNL     1       0.600  10.527  20.631  0.00  0.00    +0.000 NA
ATOM     23  C   UNL     1       1.061   9.250  20.554  0.00  0.00    +0.000 A 
BRANCH  21  24
ATOM     24  C   UNL     1       0.326  12.784  19.654  0.00  0.00    +0.000 C 
ATOM     25  C   UNL     1       1.522  13.677  20.013  0.00  0.00    +0.000 C 
ATOM     26  C   UNL     1      -0.294  13.260  18.336  0.00  0.00    +0.000 C 
BRANCH  24  27
ATOM     27  O   UNL     1      -0.660  12.969  20.683  0.00  0.00    +0.000 OA
ATOM     28  H   UNL     1      -0.277  13.588  21.328  0.00  0.00    +0.000 HD
ENDBRANCH  24  27
ENDBRANCH  21  24
ENDBRANCH   7  18
BRANCH  13  29
ATOM     29  C   UNL     1       7.532   5.171  15.909  0.00  0.00    +0.000 C 
BRANCH  29  30
ATOM     30  O   UNL     1       8.155   4.508  17.002  0.00  0.00    +0.000 OA
ATOM     31  H   UNL     1       7.573   3.776  17.271  0.00  0.00    +0.000 HD
ENDBRANCH  29  30
ENDBRANCH  13  29
TORSDOF 5
ENDMDL
MODEL 6
REMARK VINA RESULT:      -7.5      1.323      1.486
REMARK  Name = 
REMARK  8 active torsions:
REMARK  status: ('A' for Active; 'I' for Inactive)
REMARK    1  A    between atoms: C_1  and  N_2
REMARK    2  A    between atoms: C_7  and  C_8
REMARK    3  A    between atoms: C_11  and  C_12
REMARK    4  A    between atoms: C_12  and  C_13
REMARK    5  A    between atoms: C_12  and  C_14
REMARK    6  A    between atoms: C_12  and  O_15
REMARK    7  A    between atoms: C_23  and  C_24
REMARK    8  A    between atoms: C_24  and  O_25
REMARK                            x       y       z     vdW  Elec       q    Type
REMARK                         _______ _______ _______ _____ _____    ______ ____
ROOT
ATOM      1  C   UNL     1       4.308   1.168  20.460  0.00  0.00    +0.000 C 
ATOM      2  N   UNL     1       3.688   2.479  20.420  0.00  0.00    +0.000 N 
ATOM      3  C   UNL     1       2.741   2.829  21.334  0.00  0.00    +0.000 A 
ATOM      4  N   UNL     1       2.210   3.999  21.418  0.00  0.00    +0.000 NA
ATOM      5  C   UNL     1       2.577   4.957  20.455  0.00  0.00    +0.000 A 
ATOM      6  C   UNL     1       1.890   6.164  20.497  0.00  0.00    +0.000 A 
ATOM      7  C   UNL     1       2.169   7.132  19.555  0.00  0.00    +0.000 A 
ATOM      8  N   UNL     1       3.047   6.884  18.547  0.00  0.00    +0.000 NA
ATOM      9  C   UNL     1       3.750   5.706  18.469  0.00  0.00    +0.000 A 
ATOM     10  N   UNL     1       4.518   5.584  17.336  0.00  0.00    +0.000 N 
ATOM     11  C   UNL     1       4.533   6.626  16.310  0.00  0.00    +0.000 C 
ATOM     12  C   UNL     1       5.038   5.888  15.070  0.00  0.00    +0.000 C 
ATOM     13  C   UNL     1       6.033   4.874  15.623  0.00  0.00    +0.000 C 
ATOM     14  C   UNL     1       5.473   4.535  17.007  0.00  0.00    +0.000 C 
ATOM     15  C   UNL     1       3.564   4.741  19.479  0.00  0.00    +0.000 A 
ATOM     16  C   UNL     1       4.308   3.464  19.659  0.00  0.00    +0.000 A 
ATOM     17  O   UNL     1       5.460   3.292  19.276  0.00  0.00    +0.000 OA
ENDROOT
BRANCH   7  18
ATOM     18  C   UNL     1       1.565   8.479  19.600  0.00  0.00    +0.000 A 
ATOM     19  C   UNL     1       1.021   9.027  20.765  0.00  0.00    +0.000 A 
ATOM     20  C   UNL     1       0.396  10.282  20.746  0.00  0.00    +0.000 A 
ATOM     21  C   UNL     1       0.318  10.996  19.550  0.00  0.00    +0.000 A 
ATOM     22  N   UNL     1       0.863  10.508  18.410  0.00  0.00    +0.000 NA
ATOM     23  C   UNL     1       1.457   9.286  18.464  0.00  0.00    +0.000 A 
BRANCH  21  24
ATOM     24  C   UNL     1      -0.476  12.304  19.462  0.00  0.00    +0.000 C 
ATOM     25  C   UNL     1       0.217  13.356  18.584  0.00  0.00    +0.000 C 
ATOM     26  C   UNL     1      -1.875  12.013  18.909  0.00  0.00    +0.000 C 
BRANCH  24  27
ATOM     27  O   UNL     1      -0.643  12.888  20.764  0.00  0.00    +0.000 OA
ATOM     28  H   UNL     1      -1.374  13.525  20.693  0.00  0.00    +0.000 HD
ENDBRANCH  24  27
ENDBRANCH  21  24
ENDBRANCH   7  18
BRANCH  13  29
ATOM     29  C   UNL     1       7.462   5.405  15.725  0.00  0.00    +0.000 C 
BRANCH  29  30
ATOM     30  O   UNL     1       8.045   5.506  14.432  0.00  0.00    +0.000 OA
ATOM     31  H   UNL     1       7.614   6.248  13.974  0.00  0.00    +0.000 HD
ENDBRANCH  29  30
ENDBRANCH  13  29
TORSDOF 5
ENDMDL
MODEL 7
REMARK VINA RESULT:      -7.4      1.791      4.354
REMARK  Name = 
REMARK  8 active torsions:
REMARK  status: ('A' for Active; 'I' for Inactive)
REMARK    1  A    between atoms: C_1  and  N_2
REMARK    2  A    between atoms: C_7  and  C_8
REMARK    3  A    between atoms: C_11  and  C_12
REMARK    4  A    between atoms: C_12  and  C_13
REMARK    5  A    between atoms: C_12  and  C_14
REMARK    6  A    between atoms: C_12  and  O_15
REMARK    7  A    between atoms: C_23  and  C_24
REMARK    8  A    between atoms: C_24  and  O_25
REMARK                            x       y       z     vdW  Elec       q    Type
REMARK                         _______ _______ _______ _____ _____    ______ ____
ROOT
ATOM      1  C   UNL     1       6.376   3.972  15.798  0.00  0.00    +0.000 C 
ATOM      2  N   UNL     1       5.571   5.069  16.299  0.00  0.00    +0.000 N 
ATOM      3  C   UNL     1       5.737   6.332  15.816  0.00  0.00    +0.000 A 
ATOM      4  N   UNL     1       5.005   7.338  16.146  0.00  0.00    +0.000 NA
ATOM      5  C   UNL     1       4.015   7.137  17.126  0.00  0.00    +0.000 A 
ATOM      6  C   UNL     1       3.333   8.270  17.551  0.00  0.00    +0.000 A 
ATOM      7  C   UNL     1       2.380   8.152  18.541  0.00  0.00    +0.000 A 
ATOM      8  N   UNL     1       2.163   6.958  19.154  0.00  0.00    +0.000 NA
ATOM      9  C   UNL     1       2.814   5.812  18.764  0.00  0.00    +0.000 A 
ATOM     10  N   UNL     1       2.549   4.719  19.554  0.00  0.00    +0.000 N 
ATOM     11  C   UNL     1       1.670   4.816  20.719  0.00  0.00    +0.000 C 
ATOM     12  C   UNL     1       2.072   3.604  21.560  0.00  0.00    +0.000 C 
ATOM     13  C   UNL     1       2.418   2.535  20.528  0.00  0.00    +0.000 C 
ATOM     14  C   UNL     1       2.966   3.339  19.346  0.00  0.00    +0.000 C 
ATOM     15  C   UNL     1       3.715   5.882  17.683  0.00  0.00    +0.000 A 
ATOM     16  C   UNL     1       4.424   4.753  17.020  0.00  0.00    +0.000 A 
ATOM     17  O   UNL     1       3.988   3.608  16.985  0.00  0.00    +0.000 OA
ENDROOT
BRANCH   7  18
ATOM     18  C   UNL     1       1.534   9.285  18.967  0.00  0.00    +0.000 A 
ATOM     19  C   UNL     1       0.702   9.230  20.089  0.00  0.00    +0.000 A 
ATOM     20  C   UNL     1      -0.135  10.306  20.416  0.00  0.00    +0.000 A 
ATOM     21  C   UNL     1      -0.138  11.448  19.614  0.00  0.00    +0.000 A 
ATOM     22  N   UNL     1       0.679  11.545  18.538  0.00  0.00    +0.000 NA
ATOM     23  C   UNL     1       1.474  10.482  18.248  0.00  0.00    +0.000 A 
BRANCH  21  24
ATOM     24  C   UNL     1      -1.137  12.583  19.862  0.00  0.00    +0.000 C 
ATOM     25  C   UNL     1      -1.935  12.393  21.160  0.00  0.00    +0.000 C 
ATOM     26  C   UNL     1      -0.387  13.918  19.910  0.00  0.00    +0.000 C 
BRANCH  24  27
ATOM     27  O   UNL     1      -2.092  12.666  18.791  0.00  0.00    +0.000 OA
ATOM     28  H   UNL     1      -2.281  13.611  18.659  0.00  0.00    +0.000 HD
ENDBRANCH  24  27
ENDBRANCH  21  24
ENDBRANCH   7  18
BRANCH  13  29
ATOM     29  C   UNL     1       1.225   1.679  20.104  0.00  0.00    +0.000 C 
BRANCH  29  30
ATOM     30  O   UNL     1       1.071   1.713  18.691  0.00  0.00    +0.000 OA
ATOM     31  H   UNL     1       1.939   1.925  18.307  0.00  0.00    +0.000 HD
ENDBRANCH  29  30
ENDBRANCH  13  29
TORSDOF 5
ENDMDL
MODEL 8
REMARK VINA RESULT:      -7.4      3.229      9.540
REMARK  Name = 
REMARK  8 active torsions:
REMARK  status: ('A' for Active; 'I' for Inactive)
REMARK    1  A    between atoms: C_1  and  N_2
REMARK    2  A    between atoms: C_7  and  C_8
REMARK    3  A    between atoms: C_11  and  C_12
REMARK    4  A    between atoms: C_12  and  C_13
REMARK    5  A    between atoms: C_12  and  C_14
REMARK    6  A    between atoms: C_12  and  O_15
REMARK    7  A    between atoms: C_23  and  C_24
REMARK    8  A    between atoms: C_24  and  O_25
REMARK                            x       y       z     vdW  Elec       q    Type
REMARK                         _______ _______ _______ _____ _____    ______ ____
ROOT
ATOM      1  C   UNL     1      -2.121  15.378  21.953  0.00  0.00    +0.000 C 
ATOM      2  N   UNL     1      -1.325  14.251  21.506  0.00  0.00    +0.000 N 
ATOM      3  C   UNL     1      -0.041  14.093  21.933  0.00  0.00    +0.000 A 
ATOM      4  N   UNL     1       0.698  13.077  21.651  0.00  0.00    +0.000 NA
ATOM      5  C   UNL     1       0.171  12.102  20.784  0.00  0.00    +0.000 A 
ATOM      6  C   UNL     1       1.040  11.089  20.399  0.00  0.00    +0.000 A 
ATOM      7  C   UNL     1       0.602  10.123  19.516  0.00  0.00    +0.000 A 
ATOM      8  N   UNL     1      -0.637  10.203  18.963  0.00  0.00    +0.000 NA
ATOM      9  C   UNL     1      -1.529  11.186  19.317  0.00  0.00    +0.000 A 
ATOM     10  N   UNL     1      -2.695  11.175  18.590  0.00  0.00    +0.000 N 
ATOM     11  C   UNL     1      -2.916  10.204  17.519  0.00  0.00    +0.000 C 
ATOM     12  C   UNL     1      -4.012  10.857  16.676  0.00  0.00    +0.000 C 
ATOM     13  C   UNL     1      -4.880  11.585  17.697  0.00  0.00    +0.000 C 
ATOM     14  C   UNL     1      -3.888  11.985  18.794  0.00  0.00    +0.000 C 
ATOM     15  C   UNL     1      -1.147  12.124  20.297  0.00  0.00    +0.000 A 
ATOM     16  C   UNL     1      -1.992  13.183  20.916  0.00  0.00    +0.000 A 
ATOM     17  O   UNL     1      -3.209  13.097  21.029  0.00  0.00    +0.000 OA
ENDROOT
BRANCH   7  18
ATOM     18  C   UNL     1       1.426   8.954  19.147  0.00  0.00    +0.000 A 
ATOM     19  C   UNL     1       1.625   7.867  20.004  0.00  0.00    +0.000 A 
ATOM     20  C   UNL     1       2.470   6.811  19.639  0.00  0.00    +0.000 A 
ATOM     21  C   UNL     1       3.120   6.840  18.404  0.00  0.00    +0.000 A 
ATOM     22  N   UNL     1       2.923   7.862  17.538  0.00  0.00    +0.000 NA
ATOM     23  C   UNL     1       2.100   8.872  17.926  0.00  0.00    +0.000 A 
BRANCH  21  24
ATOM     24  C   UNL     1       4.154   5.772  18.031  0.00  0.00    +0.000 C 
ATOM     25  C   UNL     1       5.018   5.347  19.227  0.00  0.00    +0.000 C 
ATOM     26  C   UNL     1       3.436   4.548  17.454  0.00  0.00    +0.000 C 
BRANCH  24  27
ATOM     27  O   UNL     1       5.049   6.261  17.019  0.00  0.00    +0.000 OA
ATOM     28  H   UNL     1       5.484   5.482  16.632  0.00  0.00    +0.000 HD
ENDBRANCH  24  27
ENDBRANCH  21  24
ENDBRANCH   7  18
BRANCH  13  29
ATOM     29  C   UNL     1      -6.011  10.731  18.266  0.00  0.00    +0.000 C 
BRANCH  29  30
ATOM     30  O   UNL     1      -7.243  11.438  18.202  0.00  0.00    +0.000 OA
ATOM     31  H   UNL     1      -7.089  12.329  18.562  0.00  0.00    +0.000 HD
ENDBRANCH  29  30
ENDBRANCH  13  29
TORSDOF 5
ENDMDL
MODEL 9
REMARK VINA RESULT:      -7.4      1.648      4.358
REMARK  Name = 
REMARK  8 active torsions:
REMARK  status: ('A' for Active; 'I' for Inactive)
REMARK    1  A    between atoms: C_1  and  N_2
REMARK    2  A    between atoms: C_7  and  C_8
REMARK    3  A    between atoms: C_11  and  C_12
REMARK    4  A    between atoms: C_12  and  C_13
REMARK    5  A    between atoms: C_12  and  C_14
REMARK    6  A    between atoms: C_12  and  O_15
REMARK    7  A    between atoms: C_23  and  C_24
REMARK    8  A    between atoms: C_24  and  O_25
REMARK                            x       y       z     vdW  Elec       q    Type
REMARK                         _______ _______ _______ _____ _____    ______ ____
ROOT
ATOM      1  C   UNL     1       6.210   3.685  15.612  0.00  0.00    +0.000 C 
ATOM      2  N   UNL     1       5.483   4.822  16.143  0.00  0.00    +0.000 N 
ATOM      3  C   UNL     1       5.751   6.084  15.707  0.00  0.00    +0.000 A 
ATOM      4  N   UNL     1       5.091   7.131  16.064  0.00  0.00    +0.000 NA
ATOM      5  C   UNL     1       4.075   6.971  17.025  0.00  0.00    +0.000 A 
ATOM      6  C   UNL     1       3.474   8.137  17.482  0.00  0.00    +0.000 A 
ATOM      7  C   UNL     1       2.500   8.056  18.456  0.00  0.00    +0.000 A 
ATOM      8  N   UNL     1       2.186   6.861  19.023  0.00  0.00    +0.000 NA
ATOM      9  C   UNL     1       2.755   5.685  18.600  0.00  0.00    +0.000 A 
ATOM     10  N   UNL     1       2.397   4.588  19.347  0.00  0.00    +0.000 N 
ATOM     11  C   UNL     1       1.512   4.710  20.505  0.00  0.00    +0.000 C 
ATOM     12  C   UNL     1       1.809   3.442  21.307  0.00  0.00    +0.000 C 
ATOM     13  C   UNL     1       2.089   2.388  20.241  0.00  0.00    +0.000 C 
ATOM     14  C   UNL     1       2.712   3.188  19.095  0.00  0.00    +0.000 C 
ATOM     15  C   UNL     1       3.674   5.723  17.533  0.00  0.00    +0.000 A 
ATOM     16  C   UNL     1       4.306   4.568  16.838  0.00  0.00    +0.000 A 
ATOM     17  O   UNL     1       3.786   3.461  16.757  0.00  0.00    +0.000 OA
ENDROOT
BRANCH   7  18
ATOM     18  C   UNL     1       1.736   9.235  18.912  0.00  0.00    +0.000 A 
ATOM     19  C   UNL     1       1.745  10.455  18.228  0.00  0.00    +0.000 A 
ATOM     20  C   UNL     1       1.060  11.567  18.735  0.00  0.00    +0.000 A 
ATOM     21  C   UNL     1       0.355  11.458  19.934  0.00  0.00    +0.000 A 
ATOM     22  N   UNL     1       0.299  10.282  20.604  0.00  0.00    +0.000 NA
ATOM     23  C   UNL     1       0.979   9.224  20.087  0.00  0.00    +0.000 A 
BRANCH  21  24
ATOM     24  C   UNL     1      -0.290  12.685  20.586  0.00  0.00    +0.000 C 
ATOM     25  C   UNL     1      -0.036  13.975  19.792  0.00  0.00    +0.000 C 
ATOM     26  C   UNL     1      -1.799  12.455  20.722  0.00  0.00    +0.000 C 
BRANCH  24  27
ATOM     27  O   UNL     1       0.232  12.896  21.908  0.00  0.00    +0.000 OA
ATOM     28  H   UNL     1       0.591  13.799  21.926  0.00  0.00    +0.000 HD
ENDBRANCH  24  27
ENDBRANCH  21  24
ENDBRANCH   7  18
BRANCH  13  29
ATOM     29  C   UNL     1       0.841   1.639  19.773  0.00  0.00    +0.000 C 
BRANCH  29  30
ATOM     30  O   UNL     1       0.630   1.853  18.383  0.00  0.00    +0.000 OA
ATOM     31  H   UNL     1       1.494   2.050  17.982  0.00  0.00    +0.000 HD
ENDBRANCH  29  30
ENDBRANCH  13  29
TORSDOF 5
ENDMDL
