MODEL 1
REMARK VINA RESULT:      -6.4      0.000      0.000
REMARK  Name = 
REMARK  17 active torsions:
REMARK  status: ('A' for Active; 'I' for Inactive)
REMARK    1  A    between atoms: C_1  and  C_2
REMARK    2  A    between atoms: C_2  and  C_3
REMARK    3  A    between atoms: C_3  and  C_4
REMARK    4  A    between atoms: C_4  and  C_5
REMARK    5  A    between atoms: C_5  and  C_6
REMARK    6  A    between atoms: C_6  and  C_7
REMARK    7  A    between atoms: C_7  and  S_8
REMARK    8  A    between atoms: S_8  and  C_10
REMARK    9  A    between atoms: C_10  and  C_11
REMARK   10  A    between atoms: C_11  and  C_12
REMARK   11  A    between atoms: C_11  and  N_14
REMARK   12  A    between atoms: C_12  and  O_13
REMARK   13  A    between atoms: C_15  and  C_17
REMARK   14  A    between atoms: C_18  and  C_19
REMARK   15  A    between atoms: C_20  and  C_21
REMARK   16  A    between atoms: C_23  and  O_24
REMARK   17  A    between atoms: C_26  and  O_27
REMARK                            x       y       z     vdW  Elec       q    Type
REMARK                         _______ _______ _______ _____ _____    ______ ____
ROOT
ATOM      1  N   UNK A   1       2.575   5.069  18.990  0.00  0.00    +0.000 N 
ATOM      2  C   UNK A   0       2.229   5.206  20.313  0.00  0.00    +0.000 C 
ATOM      3  O   UNK A   0       2.468   4.381  21.181  0.00  0.00    +0.000 OA
ATOM      4  H   UNK A   1       2.334   5.800  18.333  0.00  0.00    +0.000 HD
ENDROOT
BRANCH   2   5
ATOM      5  C   UNK A   0       1.500   6.469  20.563  0.00  0.00    +0.000 C 
ATOM      6  C   UNK A   0       1.980   7.634  20.101  0.00  0.00    +0.000 C 
BRANCH   6   7
ATOM      7  C   UNK A   0       1.356   8.946  20.359  0.00  0.00    +0.000 A 
ATOM      8  C   UNK A   0       0.877   9.779  19.349  0.00  0.00    +0.000 A 
ATOM      9  C   UNK A   0       0.857   9.396  17.893  0.00  0.00    +0.000 C 
ATOM     10  N   UNK A   0       0.383  11.021  19.595  0.00  0.00    +0.000 NA
ATOM     11  C   UNK A   0       0.372  11.407  20.871  0.00  0.00    +0.000 A 
ATOM     12  N   UNK A   0       0.778  10.723  21.927  0.00  0.00    +0.000 NA
ATOM     13  C   UNK A   0       1.266   9.512  21.630  0.00  0.00    +0.000 A 
BRANCH  11  14
ATOM     14  O   UNK A   0      -0.093  12.667  21.080  0.00  0.00    +0.000 OA
ATOM     15  H   UNK A   0       0.153  13.064  20.229  0.00  0.00    +0.000 HD
ENDBRANCH  11  14
BRANCH  13  16
ATOM     16  O   UNK A   0       1.698   8.861  22.744  0.00  0.00    +0.000 OA
ATOM     17  H   UNK A   0       2.055   8.050  22.333  0.00  0.00    +0.000 HD
ENDBRANCH  13  16
ENDBRANCH   6   7
ENDBRANCH   2   5
BRANCH   1  18
ATOM     18  C   UNK A   1       3.262   3.882  18.463  0.00  0.00    +0.000 C 
BRANCH  18  19
ATOM     19  C   UNK A   1       4.186   4.243  17.297  0.00  0.00    +0.000 C 
BRANCH  19  20
ATOM     20  S   UNK A   1       5.915   4.612  17.777  0.00  0.00    +0.000 S 
ATOM     21  O   UNK A   1       5.835   5.557  19.030  0.00  0.00    +0.000 OA
BRANCH  20  22
ATOM     22  C   UNK A   1       6.381   5.627  16.342  0.00  0.00    +0.000 C 
BRANCH  22  23
ATOM     23  C   UNK A   1       5.635   5.197  15.080  0.00  0.00    +0.000 C 
BRANCH  23  24
ATOM     24  C   UNK A   1       6.595   4.499  14.110  0.00  0.00    +0.000 C 
BRANCH  24  25
ATOM     25  C   UNK A   1       5.882   3.436  13.277  0.00  0.00    +0.000 C 
BRANCH  25  26
ATOM     26  C   UNK A   1       5.124   4.056  12.102  0.00  0.00    +0.000 C 
BRANCH  26  28
ATOM     27  C   UNK A   1       3.368   3.629  10.342  0.00  0.00    +0.000 C 
ATOM     28  C   UNK A   1       4.268   3.006  11.394  0.00  0.00    +0.000 C 
ENDBRANCH  26  28
ENDBRANCH  25  26
ENDBRANCH  24  25
ENDBRANCH  23  24
ENDBRANCH  22  23
ENDBRANCH  20  22
ENDBRANCH  19  20
ENDBRANCH  18  19
BRANCH  18  29
ATOM     29  C   UNK A   1       2.192   2.866  18.014  0.00  0.00    +0.000 C 
BRANCH  29  30
ATOM     30  O   UNK A   1       1.005   3.535  17.589  0.00  0.00    +0.000 OA
ATOM     31  H   UNK A   1       1.135   3.801  16.661  0.00  0.00    +0.000 HD
ENDBRANCH  29  30
ENDBRANCH  18  29
ENDBRANCH   1  18
TORSDOF 15
ENDMDL
MODEL 2
REMARK VINA RESULT:      -6.4      1.144      1.282
REMARK  Name = 
REMARK  17 active torsions:
REMARK  status: ('A' for Active; 'I' for Inactive)
REMARK    1  A    between atoms: C_1  and  C_2
REMARK    2  A    between atoms: C_2  and  C_3
REMARK    3  A    between atoms: C_3  and  C_4
REMARK    4  A    between atoms: C_4  and  C_5
REMARK    5  A    between atoms: C_5  and  C_6
REMARK    6  A    between atoms: C_6  and  C_7
REMARK    7  A    between atoms: C_7  and  S_8
REMARK    8  A    between atoms: S_8  and  C_10
REMARK    9  A    between atoms: C_10  and  C_11
REMARK   10  A    between atoms: C_11  and  C_12
REMARK   11  A    between atoms: C_11  and  N_14
REMARK   12  A    between atoms: C_12  and  O_13
REMARK   13  A    between atoms: C_15  and  C_17
REMARK   14  A    between atoms: C_18  and  C_19
REMARK   15  A    between atoms: C_20  and  C_21
REMARK   16  A    between atoms: C_23  and  O_24
REMARK   17  A    between atoms: C_26  and  O_27
REMARK                            x       y       z     vdW  Elec       q    Type
REMARK                         _______ _______ _______ _____ _____    ______ ____
ROOT
ATOM      1  N   UNK A   1       3.045   4.809  19.663  0.00  0.00    +0.000 N 
ATOM      2  C   UNK A   0       2.031   4.855  20.590  0.00  0.00    +0.000 C 
ATOM      3  O   UNK A   0       1.588   3.883  21.182  0.00  0.00    +0.000 OA
ATOM      4  H   UNK A   1       3.349   5.664  19.214  0.00  0.00    +0.000 HD
ENDROOT
BRANCH   2   5
ATOM      5  C   UNK A   0       1.512   6.229  20.771  0.00  0.00    +0.000 C 
ATOM      6  C   UNK A   0       1.929   7.224  19.973  0.00  0.00    +0.000 C 
BRANCH   6   7
ATOM      7  C   UNK A   0       1.517   8.633  20.123  0.00  0.00    +0.000 A 
ATOM      8  C   UNK A   0       1.320   9.493  19.043  0.00  0.00    +0.000 A 
ATOM      9  C   UNK A   0       1.416   9.059  17.605  0.00  0.00    +0.000 C 
ATOM     10  N   UNK A   0       1.023  10.810  19.199  0.00  0.00    +0.000 NA
ATOM     11  C   UNK A   0       0.920  11.244  20.456  0.00  0.00    +0.000 A 
ATOM     12  N   UNK A   0       1.066  10.545  21.568  0.00  0.00    +0.000 NA
ATOM     13  C   UNK A   0       1.369   9.258  21.360  0.00  0.00    +0.000 A 
BRANCH  11  14
ATOM     14  O   UNK A   0       0.660  12.572  20.578  0.00  0.00    +0.000 OA
ATOM     15  H   UNK A   0       0.934  12.699  21.500  0.00  0.00    +0.000 HD
ENDBRANCH  11  14
BRANCH  13  16
ATOM     16  O   UNK A   0       1.538   8.589  22.533  0.00  0.00    +0.000 OA
ATOM     17  H   UNK A   0       1.747   7.700  22.187  0.00  0.00    +0.000 HD
ENDBRANCH  13  16
ENDBRANCH   6   7
ENDBRANCH   2   5
BRANCH   1  18
ATOM     18  C   UNK A   1       3.702   3.559  19.258  0.00  0.00    +0.000 C 
BRANCH  18  19
ATOM     19  C   UNK A   1       4.940   3.830  18.401  0.00  0.00    +0.000 C 
BRANCH  19  20
ATOM     20  S   UNK A   1       5.095   5.556  17.806  0.00  0.00    +0.000 S 
ATOM     21  O   UNK A   1       3.746   5.896  17.076  0.00  0.00    +0.000 OA
BRANCH  20  22
ATOM     22  C   UNK A   1       6.366   5.288  16.534  0.00  0.00    +0.000 C 
BRANCH  22  23
ATOM     23  C   UNK A   1       5.765   5.274  15.129  0.00  0.00    +0.000 C 
BRANCH  23  24
ATOM     24  C   UNK A   1       5.805   3.857  14.550  0.00  0.00    +0.000 C 
BRANCH  24  25
ATOM     25  C   UNK A   1       6.399   3.838  13.142  0.00  0.00    +0.000 C 
BRANCH  25  26
ATOM     26  C   UNK A   1       5.387   3.335  12.111  0.00  0.00    +0.000 C 
BRANCH  26  28
ATOM     27  C   UNK A   1       7.190   1.930  11.045  0.00  0.00    +0.000 C 
ATOM     28  C   UNK A   1       5.778   1.948  11.602  0.00  0.00    +0.000 C 
ENDBRANCH  26  28
ENDBRANCH  25  26
ENDBRANCH  24  25
ENDBRANCH  23  24
ENDBRANCH  22  23
ENDBRANCH  20  22
ENDBRANCH  19  20
ENDBRANCH  18  19
BRANCH  18  29
ATOM     29  C   UNK A   1       2.677   2.706  18.481  0.00  0.00    +0.000 C 
BRANCH  29  30
ATOM     30  O   UNK A   1       2.189   3.415  17.343  0.00  0.00    +0.000 OA
ATOM     31  H   UNK A   1       2.448   4.348  17.446  0.00  0.00    +0.000 HD
ENDBRANCH  29  30
ENDBRANCH  18  29
ENDBRANCH   1  18
TORSDOF 15
ENDMDL
MODEL 3
REMARK VINA RESULT:      -6.3      2.768      3.878
REMARK  Name = 
REMARK  17 active torsions:
REMARK  status: ('A' for Active; 'I' for Inactive)
REMARK    1  A    between atoms: C_1  and  C_2
REMARK    2  A    between atoms: C_2  and  C_3
REMARK    3  A    between atoms: C_3  and  C_4
REMARK    4  A    between atoms: C_4  and  C_5
REMARK    5  A    between atoms: C_5  and  C_6
REMARK    6  A    between atoms: C_6  and  C_7
REMARK    7  A    between atoms: C_7  and  S_8
REMARK    8  A    between atoms: S_8  and  C_10
REMARK    9  A    between atoms: C_10  and  C_11
REMARK   10  A    between atoms: C_11  and  C_12
REMARK   11  A    between atoms: C_11  and  N_14
REMARK   12  A    between atoms: C_12  and  O_13
REMARK   13  A    between atoms: C_15  and  C_17
REMARK   14  A    between atoms: C_18  and  C_19
REMARK   15  A    between atoms: C_20  and  C_21
REMARK   16  A    between atoms: C_23  and  O_24
REMARK   17  A    between atoms: C_26  and  O_27
REMARK                            x       y       z     vdW  Elec       q    Type
REMARK                         _______ _______ _______ _____ _____    ______ ____
ROOT
ATOM      1  N   UNK A   1       2.088   6.099  20.641  0.00  0.00    +0.000 N 
ATOM      2  C   UNK A   0       2.340   7.126  19.763  0.00  0.00    +0.000 C 
ATOM      3  O   UNK A   0       2.992   7.015  18.736  0.00  0.00    +0.000 OA
ATOM      4  H   UNK A   1       1.541   6.278  21.474  0.00  0.00    +0.000 HD
ENDROOT
BRANCH   2   5
ATOM      5  C   UNK A   0       1.747   8.401  20.222  0.00  0.00    +0.000 C 
ATOM      6  C   UNK A   0       0.612   8.405  20.938  0.00  0.00    +0.000 C 
BRANCH   6   7
ATOM      7  C   UNK A   0      -0.084   9.629  21.380  0.00  0.00    +0.000 A 
ATOM      8  C   UNK A   0      -0.745  10.492  20.508  0.00  0.00    +0.000 A 
ATOM      9  C   UNK A   0      -0.903  10.227  19.035  0.00  0.00    +0.000 C 
ATOM     10  N   UNK A   0      -1.309  11.658  20.919  0.00  0.00    +0.000 NA
ATOM     11  C   UNK A   0      -1.203  11.937  22.218  0.00  0.00    +0.000 A 
ATOM     12  N   UNK A   0      -0.621  11.211  23.157  0.00  0.00    +0.000 NA
ATOM     13  C   UNK A   0      -0.072  10.079  22.700  0.00  0.00    +0.000 A 
BRANCH  11  14
ATOM     14  O   UNK A   0      -1.744  13.127  22.590  0.00  0.00    +0.000 OA
ATOM     15  H   UNK A   0      -1.142  13.349  23.318  0.00  0.00    +0.000 HD
ENDBRANCH  11  14
BRANCH  13  16
ATOM     16  O   UNK A   0       0.539   9.383  23.696  0.00  0.00    +0.000 OA
ATOM     17  H   UNK A   0       0.007   8.564  23.676  0.00  0.00    +0.000 HD
ENDBRANCH  13  16
ENDBRANCH   6   7
ENDBRANCH   2   5
BRANCH   1  18
ATOM     18  C   UNK A   1       2.607   4.738  20.449  0.00  0.00    +0.000 C 
BRANCH  18  19
ATOM     19  C   UNK A   1       2.641   4.358  18.967  0.00  0.00    +0.000 C 
BRANCH  19  20
ATOM     20  S   UNK A   1       3.660   2.886  18.578  0.00  0.00    +0.000 S 
ATOM     21  O   UNK A   1       4.827   2.865  19.630  0.00  0.00    +0.000 OA
BRANCH  20  22
ATOM     22  C   UNK A   1       4.350   3.449  16.992  0.00  0.00    +0.000 C 
BRANCH  22  23
ATOM     23  C   UNK A   1       4.789   4.911  17.054  0.00  0.00    +0.000 C 
BRANCH  23  24
ATOM     24  C   UNK A   1       6.295   4.999  17.326  0.00  0.00    +0.000 C 
BRANCH  24  25
ATOM     25  C   UNK A   1       6.588   5.663  18.670  0.00  0.00    +0.000 C 
BRANCH  25  26
ATOM     26  C   UNK A   1       7.853   6.522  18.610  0.00  0.00    +0.000 C 
BRANCH  26  28
ATOM     27  C   UNK A   1       8.086   8.939  17.927  0.00  0.00    +0.000 C 
ATOM     28  C   UNK A   1       7.769   7.528  17.463  0.00  0.00    +0.000 C 
ENDBRANCH  26  28
ENDBRANCH  25  26
ENDBRANCH  24  25
ENDBRANCH  23  24
ENDBRANCH  22  23
ENDBRANCH  20  22
ENDBRANCH  19  20
ENDBRANCH  18  19
BRANCH  18  29
ATOM     29  C   UNK A   1       1.708   3.765  21.240  0.00  0.00    +0.000 C 
BRANCH  29  30
ATOM     30  O   UNK A   1       0.534   3.442  20.495  0.00  0.00    +0.000 OA
ATOM     31  H   UNK A   1       0.242   4.252  20.042  0.00  0.00    +0.000 HD
ENDBRANCH  29  30
ENDBRANCH  18  29
ENDBRANCH   1  18
TORSDOF 15
ENDMDL
MODEL 4
REMARK VINA RESULT:      -6.3      3.854      8.916
REMARK  Name = 
REMARK  17 active torsions:
REMARK  status: ('A' for Active; 'I' for Inactive)
REMARK    1  A    between atoms: C_1  and  C_2
REMARK    2  A    between atoms: C_2  and  C_3
REMARK    3  A    between atoms: C_3  and  C_4
REMARK    4  A    between atoms: C_4  and  C_5
REMARK    5  A    between atoms: C_5  and  C_6
REMARK    6  A    between atoms: C_6  and  C_7
REMARK    7  A    between atoms: C_7  and  S_8
REMARK    8  A    between atoms: S_8  and  C_10
REMARK    9  A    between atoms: C_10  and  C_11
REMARK   10  A    between atoms: C_11  and  C_12
REMARK   11  A    between atoms: C_11  and  N_14
REMARK   12  A    between atoms: C_12  and  O_13
REMARK   13  A    between atoms: C_15  and  C_17
REMARK   14  A    between atoms: C_18  and  C_19
REMARK   15  A    between atoms: C_20  and  C_21
REMARK   16  A    between atoms: C_23  and  O_24
REMARK   17  A    between atoms: C_26  and  O_27
REMARK                            x       y       z     vdW  Elec       q    Type
REMARK                         _______ _______ _______ _____ _____    ______ ____
ROOT
ATOM      1  N   UNK A   1       1.089   8.220  21.061  0.00  0.00    +0.000 N 
ATOM      2  C   UNK A   0       1.706   8.073  19.841  0.00  0.00    +0.000 C 
ATOM      3  O   UNK A   0       1.692   8.912  18.953  0.00  0.00    +0.000 OA
ATOM      4  H   UNK A   1       1.146   7.472  21.741  0.00  0.00    +0.000 HD
ENDROOT
BRANCH   2   5
ATOM      5  C   UNK A   0       2.374   6.759  19.715  0.00  0.00    +0.000 C 
ATOM      6  C   UNK A   0       1.915   5.844  18.849  0.00  0.00    +0.000 C 
BRANCH   6   7
ATOM      7  C   UNK A   0       2.476   4.486  18.704  0.00  0.00    +0.000 A 
ATOM      8  C   UNK A   0       2.066   3.401  19.476  0.00  0.00    +0.000 A 
ATOM      9  C   UNK A   0       0.945   3.468  20.478  0.00  0.00    +0.000 C 
ATOM     10  N   UNK A   0       2.650   2.177  19.390  0.00  0.00    +0.000 NA
ATOM     11  C   UNK A   0       3.646   2.062  18.511  0.00  0.00    +0.000 A 
ATOM     12  N   UNK A   0       4.128   2.994  17.708  0.00  0.00    +0.000 NA
ATOM     13  C   UNK A   0       3.527   4.183  17.839  0.00  0.00    +0.000 A 
BRANCH  11  14
ATOM     14  O   UNK A   0       4.234   0.837  18.475  0.00  0.00    +0.000 OA
ATOM     15  H   UNK A   0       5.082   1.085  18.074  0.00  0.00    +0.000 HD
ENDBRANCH  11  14
BRANCH  13  16
ATOM     16  O   UNK A   0       4.077   5.115  17.015  0.00  0.00    +0.000 OA
ATOM     17  H   UNK A   0       3.325   5.733  16.938  0.00  0.00    +0.000 HD
ENDBRANCH  13  16
ENDBRANCH   6   7
ENDBRANCH   2   5
BRANCH   1  18
ATOM     18  C   UNK A   1       0.312   9.411  21.426  0.00  0.00    +0.000 C 
BRANCH  18  19
ATOM     19  C   UNK A   1       1.109  10.695  21.182  0.00  0.00    +0.000 C 
BRANCH  19  20
ATOM     20  S   UNK A   1       0.188  12.013  20.306  0.00  0.00    +0.000 S 
ATOM     21  O   UNK A   1      -0.431  12.935  21.418  0.00  0.00    +0.000 OA
BRANCH  20  22
ATOM     22  C   UNK A   1      -1.151  10.993  19.618  0.00  0.00    +0.000 C 
BRANCH  22  23
ATOM     23  C   UNK A   1      -1.347  11.250  18.125  0.00  0.00    +0.000 C 
BRANCH  23  24
ATOM     24  C   UNK A   1      -1.632   9.934  17.394  0.00  0.00    +0.000 C 
BRANCH  24  25
ATOM     25  C   UNK A   1      -3.073   9.868  16.891  0.00  0.00    +0.000 C 
BRANCH  25  26
ATOM     26  C   UNK A   1      -3.598  11.251  16.502  0.00  0.00    +0.000 C 
BRANCH  26  28
ATOM     27  C   UNK A   1      -4.940  11.881  18.543  0.00  0.00    +0.000 C 
ATOM     28  C   UNK A   1      -4.994  11.482  17.078  0.00  0.00    +0.000 C 
ENDBRANCH  26  28
ENDBRANCH  25  26
ENDBRANCH  24  25
ENDBRANCH  23  24
ENDBRANCH  22  23
ENDBRANCH  20  22
ENDBRANCH  19  20
ENDBRANCH  18  19
BRANCH  18  29
ATOM     29  C   UNK A   1      -0.084   9.291  22.912  0.00  0.00    +0.000 C 
BRANCH  29  30
ATOM     30  O   UNK A   1      -0.359  10.577  23.468  0.00  0.00    +0.000 OA
ATOM     31  H   UNK A   1      -0.953  10.447  24.228  0.00  0.00    +0.000 HD
ENDBRANCH  29  30
ENDBRANCH  18  29
ENDBRANCH   1  18
TORSDOF 15
ENDMDL
MODEL 5
REMARK VINA RESULT:      -6.3      1.879      2.509
REMARK  Name = 
REMARK  17 active torsions:
REMARK  status: ('A' for Active; 'I' for Inactive)
REMARK    1  A    between atoms: C_1  and  C_2
REMARK    2  A    between atoms: C_2  and  C_3
REMARK    3  A    between atoms: C_3  and  C_4
REMARK    4  A    between atoms: C_4  and  C_5
REMARK    5  A    between atoms: C_5  and  C_6
REMARK    6  A    between atoms: C_6  and  C_7
REMARK    7  A    between atoms: C_7  and  S_8
REMARK    8  A    between atoms: S_8  and  C_10
REMARK    9  A    between atoms: C_10  and  C_11
REMARK   10  A    between atoms: C_11  and  C_12
REMARK   11  A    between atoms: C_11  and  N_14
REMARK   12  A    between atoms: C_12  and  O_13
REMARK   13  A    between atoms: C_15  and  C_17
REMARK   14  A    between atoms: C_18  and  C_19
REMARK   15  A    between atoms: C_20  and  C_21
REMARK   16  A    between atoms: C_23  and  O_24
REMARK   17  A    between atoms: C_26  and  O_27
REMARK                            x       y       z     vdW  Elec       q    Type
REMARK                         _______ _______ _______ _____ _____    ______ ____
ROOT
ATOM      1  N   UNK A   1       1.986   6.140  21.042  0.00  0.00    +0.000 N 
ATOM      2  C   UNK A   0       1.959   7.176  20.138  0.00  0.00    +0.000 C 
ATOM      3  O   UNK A   0       2.203   7.061  18.946  0.00  0.00    +0.000 OA
ATOM      4  H   UNK A   1       1.774   6.323  22.015  0.00  0.00    +0.000 HD
ENDROOT
BRANCH   2   5
ATOM      5  C   UNK A   0       1.623   8.463  20.784  0.00  0.00    +0.000 C 
ATOM      6  C   UNK A   0       0.366   8.932  20.753  0.00  0.00    +0.000 C 
BRANCH   6   7
ATOM      7  C   UNK A   0      -0.045  10.235  21.312  0.00  0.00    +0.000 A 
ATOM      8  C   UNK A   0       0.060  11.437  20.613  0.00  0.00    +0.000 A 
ATOM      9  C   UNK A   0       0.517  11.531  19.182  0.00  0.00    +0.000 C 
ATOM     10  N   UNK A   0      -0.244  12.638  21.171  0.00  0.00    +0.000 NA
ATOM     11  C   UNK A   0      -0.661  12.609  22.437  0.00  0.00    +0.000 A 
ATOM     12  N   UNK A   0      -0.821  11.551  23.213  0.00  0.00    +0.000 NA
ATOM     13  C   UNK A   0      -0.498  10.395  22.621  0.00  0.00    +0.000 A 
BRANCH  11  14
ATOM     14  O   UNK A   0      -0.921  13.829  22.977  0.00  0.00    +0.000 OA
ATOM     15  H   UNK A   0      -0.652  14.388  22.231  0.00  0.00    +0.000 HD
ENDBRANCH  11  14
BRANCH  13  16
ATOM     16  O   UNK A   0      -0.651   9.341  23.467  0.00  0.00    +0.000 OA
ATOM     17  H   UNK A   0      -1.207   8.761  22.911  0.00  0.00    +0.000 HD
ENDBRANCH  13  16
ENDBRANCH   6   7
ENDBRANCH   2   5
BRANCH   1  18
ATOM     18  C   UNK A   1       2.341   4.764  20.671  0.00  0.00    +0.000 C 
BRANCH  18  19
ATOM     19  C   UNK A   1       3.510   4.736  19.683  0.00  0.00    +0.000 C 
BRANCH  19  20
ATOM     20  S   UNK A   1       3.933   3.073  19.045  0.00  0.00    +0.000 S 
ATOM     21  O   UNK A   1       5.229   2.621  19.810  0.00  0.00    +0.000 OA
BRANCH  20  22
ATOM     22  C   UNK A   1       4.418   3.547  17.358  0.00  0.00    +0.000 C 
BRANCH  22  23
ATOM     23  C   UNK A   1       4.834   5.016  17.282  0.00  0.00    +0.000 C 
BRANCH  23  24
ATOM     24  C   UNK A   1       5.217   5.384  15.845  0.00  0.00    +0.000 C 
BRANCH  24  25
ATOM     25  C   UNK A   1       5.588   4.149  15.026  0.00  0.00    +0.000 C 
BRANCH  25  26
ATOM     26  C   UNK A   1       6.615   4.481  13.941  0.00  0.00    +0.000 C 
BRANCH  26  28
ATOM     27  C   UNK A   1       4.918   3.504  12.351  0.00  0.00    +0.000 C 
ATOM     28  C   UNK A   1       6.391   3.616  12.702  0.00  0.00    +0.000 C 
ENDBRANCH  26  28
ENDBRANCH  25  26
ENDBRANCH  24  25
ENDBRANCH  23  24
ENDBRANCH  22  23
ENDBRANCH  20  22
ENDBRANCH  19  20
ENDBRANCH  18  19
BRANCH  18  29
ATOM     29  C   UNK A   1       1.094   4.093  20.059  0.00  0.00    +0.000 C 
BRANCH  29  30
ATOM     30  O   UNK A   1       0.676   2.983  20.852  0.00  0.00    +0.000 OA
ATOM     31  H   UNK A   1       1.065   2.181  20.463  0.00  0.00    +0.000 HD
ENDBRANCH  29  30
ENDBRANCH  18  29
ENDBRANCH   1  18
TORSDOF 15
ENDMDL
MODEL 6
REMARK VINA RESULT:      -6.3      2.906      4.765
REMARK  Name = 
REMARK  17 active torsions:
REMARK  status: ('A' for Active; 'I' for Inactive)
REMARK    1  A    between atoms: C_1  and  C_2
REMARK    2  A    between atoms: C_2  and  C_3
REMARK    3  A    between atoms: C_3  and  C_4
REMARK    4  A    between atoms: C_4  and  C_5
REMARK    5  A    between atoms: C_5  and  C_6
REMARK    6  A    between atoms: C_6  and  C_7
REMARK    7  A    between atoms: C_7  and  S_8
REMARK    8  A    between atoms: S_8  and  C_10
REMARK    9  A    between atoms: C_10  and  C_11
REMARK   10  A    between atoms: C_11  and  C_12
REMARK   11  A    between atoms: C_11  and  N_14
REMARK   12  A    between atoms: C_12  and  O_13
REMARK   13  A    between atoms: C_15  and  C_17
REMARK   14  A    between atoms: C_18  and  C_19
REMARK   15  A    between atoms: C_20  and  C_21
REMARK   16  A    between atoms: C_23  and  O_24
REMARK   17  A    between atoms: C_26  and  O_27
REMARK                            x       y       z     vdW  Elec       q    Type
REMARK                         _______ _______ _______ _____ _____    ______ ____
ROOT
ATOM      1  N   UNK A   1       2.670   6.210  18.750  0.00  0.00    +0.000 N 
ATOM      2  C   UNK A   0       2.182   6.423  20.017  0.00  0.00    +0.000 C 
ATOM      3  O   UNK A   0       2.014   5.546  20.851  0.00  0.00    +0.000 OA
ATOM      4  H   UNK A   1       2.774   6.994  18.119  0.00  0.00    +0.000 HD
ENDROOT
BRANCH   2   5
ATOM      5  C   UNK A   0       1.852   7.846  20.250  0.00  0.00    +0.000 C 
ATOM      6  C   UNK A   0       0.856   8.186  21.082  0.00  0.00    +0.000 C 
BRANCH   6   7
ATOM      7  C   UNK A   0       0.416   9.574  21.322  0.00  0.00    +0.000 A 
ATOM      8  C   UNK A   0       0.529  10.590  20.373  0.00  0.00    +0.000 A 
ATOM      9  C   UNK A   0       1.025  10.366  18.970  0.00  0.00    +0.000 C 
ATOM     10  N   UNK A   0       0.197  11.880  20.638  0.00  0.00    +0.000 NA
ATOM     11  C   UNK A   0      -0.256  12.131  21.867  0.00  0.00    +0.000 A 
ATOM     12  N   UNK A   0      -0.428  11.272  22.856  0.00  0.00    +0.000 NA
ATOM     13  C   UNK A   0      -0.076  10.018  22.549  0.00  0.00    +0.000 A 
BRANCH  11  14
ATOM     14  O   UNK A   0      -0.543  13.437  22.111  0.00  0.00    +0.000 OA
ATOM     15  H   UNK A   0       0.359  13.773  22.232  0.00  0.00    +0.000 HD
ENDBRANCH  11  14
BRANCH  13  16
ATOM     16  O   UNK A   0      -0.242   9.179  23.607  0.00  0.00    +0.000 OA
ATOM     17  H   UNK A   0      -1.060   9.554  23.989  0.00  0.00    +0.000 HD
ENDBRANCH  13  16
ENDBRANCH   6   7
ENDBRANCH   2   5
BRANCH   1  18
ATOM     18  C   UNK A   1       3.028   4.878  18.244  0.00  0.00    +0.000 C 
BRANCH  18  19
ATOM     19  C   UNK A   1       4.154   4.958  17.211  0.00  0.00    +0.000 C 
BRANCH  19  20
ATOM     20  S   UNK A   1       4.949   6.602  17.069  0.00  0.00    +0.000 S 
ATOM     21  O   UNK A   1       5.406   6.746  15.573  0.00  0.00    +0.000 OA
BRANCH  20  22
ATOM     22  C   UNK A   1       6.428   6.273  18.075  0.00  0.00    +0.000 C 
BRANCH  22  23
ATOM     23  C   UNK A   1       7.664   6.966  17.505  0.00  0.00    +0.000 C 
BRANCH  23  24
ATOM     24  C   UNK A   1       7.522   8.487  17.627  0.00  0.00    +0.000 C 
BRANCH  24  25
ATOM     25  C   UNK A   1       8.612   9.087  18.513  0.00  0.00    +0.000 C 
BRANCH  25  26
ATOM     26  C   UNK A   1       8.918  10.535  18.127  0.00  0.00    +0.000 C 
BRANCH  26  28
ATOM     27  C   UNK A   1       9.546  10.891  20.544  0.00  0.00    +0.000 C 
ATOM     28  C   UNK A   1       9.925  11.152  19.096  0.00  0.00    +0.000 C 
ENDBRANCH  26  28
ENDBRANCH  25  26
ENDBRANCH  24  25
ENDBRANCH  23  24
ENDBRANCH  22  23
ENDBRANCH  20  22
ENDBRANCH  19  20
ENDBRANCH  18  19
BRANCH  18  29
ATOM     29  C   UNK A   1       1.766   4.243  17.626  0.00  0.00    +0.000 C 
BRANCH  29  30
ATOM     30  O   UNK A   1       1.854   2.819  17.645  0.00  0.00    +0.000 OA
ATOM     31  H   UNK A   1       2.798   2.585  17.703  0.00  0.00    +0.000 HD
ENDBRANCH  29  30
ENDBRANCH  18  29
ENDBRANCH   1  18
TORSDOF 15
ENDMDL
MODEL 7
REMARK VINA RESULT:      -6.3      3.514      5.485
REMARK  Name = 
REMARK  17 active torsions:
REMARK  status: ('A' for Active; 'I' for Inactive)
REMARK    1  A    between atoms: C_1  and  C_2
REMARK    2  A    between atoms: C_2  and  C_3
REMARK    3  A    between atoms: C_3  and  C_4
REMARK    4  A    between atoms: C_4  and  C_5
REMARK    5  A    between atoms: C_5  and  C_6
REMARK    6  A    between atoms: C_6  and  C_7
REMARK    7  A    between atoms: C_7  and  S_8
REMARK    8  A    between atoms: S_8  and  C_10
REMARK    9  A    between atoms: C_10  and  C_11
REMARK   10  A    between atoms: C_11  and  C_12
REMARK   11  A    between atoms: C_11  and  N_14
REMARK   12  A    between atoms: C_12  and  O_13
REMARK   13  A    between atoms: C_15  and  C_17
REMARK   14  A    between atoms: C_18  and  C_19
REMARK   15  A    between atoms: C_20  and  C_21
REMARK   16  A    between atoms: C_23  and  O_24
REMARK   17  A    between atoms: C_26  and  O_27
REMARK                            x       y       z     vdW  Elec       q    Type
REMARK                         _______ _______ _______ _____ _____    ______ ____
ROOT
ATOM      1  N   UNK A   1       4.631   6.053  17.229  0.00  0.00    +0.000 N 
ATOM      2  C   UNK A   0       3.388   5.839  17.775  0.00  0.00    +0.000 C 
ATOM      3  O   UNK A   0       2.943   4.742  18.076  0.00  0.00    +0.000 OA
ATOM      4  H   UNK A   1       4.920   6.996  17.004  0.00  0.00    +0.000 HD
ENDROOT
BRANCH   2   5
ATOM      5  C   UNK A   0       2.630   7.100  17.931  0.00  0.00    +0.000 C 
ATOM      6  C   UNK A   0       2.360   7.584  19.153  0.00  0.00    +0.000 C 
BRANCH   6   7
ATOM      7  C   UNK A   0       1.556   8.796  19.404  0.00  0.00    +0.000 A 
ATOM      8  C   UNK A   0       0.813   8.996  20.566  0.00  0.00    +0.000 A 
ATOM      9  C   UNK A   0       0.819   8.044  21.732  0.00  0.00    +0.000 C 
ATOM     10  N   UNK A   0       0.011  10.078  20.747  0.00  0.00    +0.000 NA
ATOM     11  C   UNK A   0      -0.025  10.957  19.745  0.00  0.00    +0.000 A 
ATOM     12  N   UNK A   0       0.632  10.905  18.600  0.00  0.00    +0.000 NA
ATOM     13  C   UNK A   0       1.398   9.816  18.466  0.00  0.00    +0.000 A 
BRANCH  11  14
ATOM     14  O   UNK A   0      -0.864  12.008  19.941  0.00  0.00    +0.000 OA
ATOM     15  H   UNK A   0      -0.330  12.515  20.573  0.00  0.00    +0.000 HD
ENDBRANCH  11  14
BRANCH  13  16
ATOM     16  O   UNK A   0       2.029   9.793  17.260  0.00  0.00    +0.000 OA
ATOM     17  H   UNK A   0       2.950   9.934  17.553  0.00  0.00    +0.000 HD
ENDBRANCH  13  16
ENDBRANCH   6   7
ENDBRANCH   2   5
BRANCH   1  18
ATOM     18  C   UNK A   1       5.568   4.964  16.922  0.00  0.00    +0.000 C 
BRANCH  18  19
ATOM     19  C   UNK A   1       7.022   5.423  17.057  0.00  0.00    +0.000 C 
BRANCH  19  20
ATOM     20  S   UNK A   1       7.665   5.434  18.772  0.00  0.00    +0.000 S 
ATOM     21  O   UNK A   1       6.414   5.323  19.715  0.00  0.00    +0.000 OA
BRANCH  20  22
ATOM     22  C   UNK A   1       8.254   7.153  18.826  0.00  0.00    +0.000 C 
BRANCH  22  23
ATOM     23  C   UNK A   1       7.774   7.953  17.617  0.00  0.00    +0.000 C 
BRANCH  23  24
ATOM     24  C   UNK A   1       8.126   9.434  17.788  0.00  0.00    +0.000 C 
BRANCH  24  25
ATOM     25  C   UNK A   1       9.010   9.667  19.013  0.00  0.00    +0.000 C 
BRANCH  25  26
ATOM     26  C   UNK A   1       9.519  11.108  19.075  0.00  0.00    +0.000 C 
BRANCH  26  28
ATOM     27  C   UNK A   1      11.791  11.825  18.246  0.00  0.00    +0.000 C 
ATOM     28  C   UNK A   1      10.378  11.431  17.853  0.00  0.00    +0.000 C 
ENDBRANCH  26  28
ENDBRANCH  25  26
ENDBRANCH  24  25
ENDBRANCH  23  24
ENDBRANCH  22  23
ENDBRANCH  20  22
ENDBRANCH  19  20
ENDBRANCH  18  19
BRANCH  18  29
ATOM     29  C   UNK A   1       5.282   4.474  15.488  0.00  0.00    +0.000 C 
BRANCH  29  30
ATOM     30  O   UNK A   1       5.687   5.450  14.529  0.00  0.00    +0.000 OA
ATOM     31  H   UNK A   1       6.477   5.898  14.883  0.00  0.00    +0.000 HD
ENDBRANCH  29  30
ENDBRANCH  18  29
ENDBRANCH   1  18
TORSDOF 15
ENDMDL
MODEL 8
REMARK VINA RESULT:      -6.2      3.591      8.701
REMARK  Name = 
REMARK  17 active torsions:
REMARK  status: ('A' for Active; 'I' for Inactive)
REMARK    1  A    between atoms: C_1  and  C_2
REMARK    2  A    between atoms: C_2  and  C_3
REMARK    3  A    between atoms: C_3  and  C_4
REMARK    4  A    between atoms: C_4  and  C_5
REMARK    5  A    between atoms: C_5  and  C_6
REMARK    6  A    between atoms: C_6  and  C_7
REMARK    7  A    between atoms: C_7  and  S_8
REMARK    8  A    between atoms: S_8  and  C_10
REMARK    9  A    between atoms: C_10  and  C_11
REMARK   10  A    between atoms: C_11  and  C_12
REMARK   11  A    between atoms: C_11  and  N_14
REMARK   12  A    between atoms: C_12  and  O_13
REMARK   13  A    between atoms: C_15  and  C_17
REMARK   14  A    between atoms: C_18  and  C_19
REMARK   15  A    between atoms: C_20  and  C_21
REMARK   16  A    between atoms: C_23  and  O_24
REMARK   17  A    between atoms: C_26  and  O_27
REMARK                            x       y       z     vdW  Elec       q    Type
REMARK                         _______ _______ _______ _____ _____    ______ ____
ROOT
ATOM      1  N   UNK A   1       0.947   8.175  21.011  0.00  0.00    +0.000 N 
ATOM      2  C   UNK A   0       1.664   8.039  19.846  0.00  0.00    +0.000 C 
ATOM      3  O   UNK A   0       1.708   8.876  18.957  0.00  0.00    +0.000 OA
ATOM      4  H   UNK A   1       0.961   7.429  21.694  0.00  0.00    +0.000 HD
ENDROOT
BRANCH   2   5
ATOM      5  C   UNK A   0       2.360   6.735  19.777  0.00  0.00    +0.000 C 
ATOM      6  C   UNK A   0       2.001   5.819  18.865  0.00  0.00    +0.000 C 
BRANCH   6   7
ATOM      7  C   UNK A   0       2.594   4.472  18.767  0.00  0.00    +0.000 A 
ATOM      8  C   UNK A   0       3.642   4.156  17.904  0.00  0.00    +0.000 A 
ATOM      9  C   UNK A   0       4.347   5.171  17.045  0.00  0.00    +0.000 C 
ATOM     10  N   UNK A   0       4.121   2.892  17.763  0.00  0.00    +0.000 NA
ATOM     11  C   UNK A   0       3.535   1.955  18.508  0.00  0.00    +0.000 A 
ATOM     12  N   UNK A   0       2.547   2.110  19.373  0.00  0.00    +0.000 NA
ATOM     13  C   UNK A   0       2.104   3.369  19.466  0.00  0.00    +0.000 A 
BRANCH  11  14
ATOM     14  O   UNK A   0       4.011   0.697  18.317  0.00  0.00    +0.000 OA
ATOM     15  H   UNK A   0       3.181   0.252  18.085  0.00  0.00    +0.000 HD
ENDBRANCH  11  14
BRANCH  13  16
ATOM     16  O   UNK A   0       1.070   3.472  20.344  0.00  0.00    +0.000 OA
ATOM     17  H   UNK A   0       1.567   3.668  21.163  0.00  0.00    +0.000 HD
ENDBRANCH  13  16
ENDBRANCH   6   7
ENDBRANCH   2   5
BRANCH   1  18
ATOM     18  C   UNK A   1       0.123   9.355  21.309  0.00  0.00    +0.000 C 
BRANCH  18  19
ATOM     19  C   UNK A   1       0.939  10.646  21.206  0.00  0.00    +0.000 C 
BRANCH  19  20
ATOM     20  S   UNK A   1      -0.039  12.136  20.785  0.00  0.00    +0.000 S 
ATOM     21  O   UNK A   1      -1.536  11.792  21.113  0.00  0.00    +0.000 OA
BRANCH  20  22
ATOM     22  C   UNK A   1       0.162  12.087  18.978  0.00  0.00    +0.000 C 
BRANCH  22  23
ATOM     23  C   UNK A   1      -1.154  11.763  18.273  0.00  0.00    +0.000 C 
BRANCH  23  24
ATOM     24  C   UNK A   1      -1.273  10.254  18.040  0.00  0.00    +0.000 C 
BRANCH  24  25
ATOM     25  C   UNK A   1      -2.537   9.900  17.258  0.00  0.00    +0.000 C 
BRANCH  25  26
ATOM     26  C   UNK A   1      -2.999  11.064  16.379  0.00  0.00    +0.000 C 
BRANCH  26  28
ATOM     27  C   UNK A   1      -4.941  10.978  17.986  0.00  0.00    +0.000 C 
ATOM     28  C   UNK A   1      -4.489  11.337  16.581  0.00  0.00    +0.000 C 
ENDBRANCH  26  28
ENDBRANCH  25  26
ENDBRANCH  24  25
ENDBRANCH  23  24
ENDBRANCH  22  23
ENDBRANCH  20  22
ENDBRANCH  19  20
ENDBRANCH  18  19
BRANCH  18  29
ATOM     29  C   UNK A   1      -0.458   9.189  22.729  0.00  0.00    +0.000 C 
BRANCH  29  30
ATOM     30  O   UNK A   1       0.402   9.785  23.700  0.00  0.00    +0.000 OA
ATOM     31  H   UNK A   1       0.417  10.743  23.530  0.00  0.00    +0.000 HD
ENDBRANCH  29  30
ENDBRANCH  18  29
ENDBRANCH   1  18
TORSDOF 15
ENDMDL
MODEL 9
REMARK VINA RESULT:      -6.2      1.870      2.712
REMARK  Name = 
REMARK  17 active torsions:
REMARK  status: ('A' for Active; 'I' for Inactive)
REMARK    1  A    between atoms: C_1  and  C_2
REMARK    2  A    between atoms: C_2  and  C_3
REMARK    3  A    between atoms: C_3  and  C_4
REMARK    4  A    between atoms: C_4  and  C_5
REMARK    5  A    between atoms: C_5  and  C_6
REMARK    6  A    between atoms: C_6  and  C_7
REMARK    7  A    between atoms: C_7  and  S_8
REMARK    8  A    between atoms: S_8  and  C_10
REMARK    9  A    between atoms: C_10  and  C_11
REMARK   10  A    between atoms: C_11  and  C_12
REMARK   11  A    between atoms: C_11  and  N_14
REMARK   12  A    between atoms: C_12  and  O_13
REMARK   13  A    between atoms: C_15  and  C_17
REMARK   14  A    between atoms: C_18  and  C_19
REMARK   15  A    between atoms: C_20  and  C_21
REMARK   16  A    between atoms: C_23  and  O_24
REMARK   17  A    between atoms: C_26  and  O_27
REMARK                            x       y       z     vdW  Elec       q    Type
REMARK                         _______ _______ _______ _____ _____    ______ ____
ROOT
ATOM      1  N   UNK A   1       4.073   6.265  18.303  0.00  0.00    +0.000 N 
ATOM      2  C   UNK A   0       2.757   5.928  18.089  0.00  0.00    +0.000 C 
ATOM      3  O   UNK A   0       2.385   4.896  17.552  0.00  0.00    +0.000 OA
ATOM      4  H   UNK A   1       4.295   7.145  18.751  0.00  0.00    +0.000 HD
ENDROOT
BRANCH   2   5
ATOM      5  C   UNK A   0       1.834   6.983  18.562  0.00  0.00    +0.000 C 
ATOM      6  C   UNK A   0       2.285   8.224  18.801  0.00  0.00    +0.000 C 
BRANCH   6   7
ATOM      7  C   UNK A   0       1.452   9.318  19.336  0.00  0.00    +0.000 A 
ATOM      8  C   UNK A   0       0.696   9.206  20.502  0.00  0.00    +0.000 A 
ATOM      9  C   UNK A   0       0.714   7.993  21.393  0.00  0.00    +0.000 C 
ATOM     10  N   UNK A   0      -0.131  10.193  20.937  0.00  0.00    +0.000 NA
ATOM     11  C   UNK A   0      -0.179  11.294  20.186  0.00  0.00    +0.000 A 
ATOM     12  N   UNK A   0       0.488  11.543  19.073  0.00  0.00    +0.000 NA
ATOM     13  C   UNK A   0       1.279  10.537  18.681  0.00  0.00    +0.000 A 
BRANCH  11  14
ATOM     14  O   UNK A   0      -1.043  12.245  20.627  0.00  0.00    +0.000 OA
ATOM     15  H   UNK A   0      -1.876  11.760  20.516  0.00  0.00    +0.000 HD
ENDBRANCH  11  14
BRANCH  13  16
ATOM     16  O   UNK A   0       1.920  10.829  17.517  0.00  0.00    +0.000 OA
ATOM     17  H   UNK A   0       2.824  10.543  17.750  0.00  0.00    +0.000 HD
ENDBRANCH  13  16
ENDBRANCH   6   7
ENDBRANCH   2   5
BRANCH   1  18
ATOM     18  C   UNK A   1       5.194   5.415  17.880  0.00  0.00    +0.000 C 
BRANCH  18  19
ATOM     19  C   UNK A   1       5.511   5.606  16.395  0.00  0.00    +0.000 C 
BRANCH  19  20
ATOM     20  S   UNK A   1       6.954   4.654  15.792  0.00  0.00    +0.000 S 
ATOM     21  O   UNK A   1       7.797   5.640  14.906  0.00  0.00    +0.000 OA
BRANCH  20  22
ATOM     22  C   UNK A   1       6.078   3.514  14.678  0.00  0.00    +0.000 C 
BRANCH  22  23
ATOM     23  C   UNK A   1       5.898   4.114  13.285  0.00  0.00    +0.000 C 
BRANCH  23  24
ATOM     24  C   UNK A   1       6.442   3.155  12.221  0.00  0.00    +0.000 C 
BRANCH  24  25
ATOM     25  C   UNK A   1       5.318   2.534  11.393  0.00  0.00    +0.000 C 
BRANCH  25  26
ATOM     26  C   UNK A   1       4.012   3.315  11.541  0.00  0.00    +0.000 C 
BRANCH  26  28
ATOM     27  C   UNK A   1       2.926   4.354   9.515  0.00  0.00    +0.000 C 
ATOM     28  C   UNK A   1       3.105   3.087  10.332  0.00  0.00    +0.000 C 
ENDBRANCH  26  28
ENDBRANCH  25  26
ENDBRANCH  24  25
ENDBRANCH  23  24
ENDBRANCH  22  23
ENDBRANCH  20  22
ENDBRANCH  19  20
ENDBRANCH  18  19
BRANCH  18  29
ATOM     29  C   UNK A   1       4.823   3.947  18.174  0.00  0.00    +0.000 C 
BRANCH  29  30
ATOM     30  O   UNK A   1       5.639   3.417  19.218  0.00  0.00    +0.000 OA
ATOM     31  H   UNK A   1       5.185   3.590  20.061  0.00  0.00    +0.000 HD
ENDBRANCH  29  30
ENDBRANCH  18  29
ENDBRANCH   1  18
TORSDOF 15
ENDMDL
