MODEL 1
REMARK VINA RESULT:      -7.8      0.000      0.000
REMARK  Name = 
REMARK  11 active torsions:
REMARK  status: ('A' for Active; 'I' for Inactive)
REMARK    1  A    between atoms: C_1  and  C_2
REMARK    2  A    between atoms: C_2  and  C_3
REMARK    3  A    between atoms: C_3  and  C_4
REMARK    4  A    between atoms: C_4  and  C_5
REMARK    5  A    between atoms: C_5  and  C_6
REMARK    6  A    between atoms: C_6  and  C_7
REMARK    7  A    between atoms: C_11  and  C_12
REMARK    8  A    between atoms: N_14  and  C_15
REMARK    9  A    between atoms: C_18  and  O_19
REMARK   10  A    between atoms: O_19  and  C_20
REMARK   11  A    between atoms: C_28  and  O_29
REMARK                            x       y       z     vdW  Elec       q    Type
REMARK                         _______ _______ _______ _____ _____    ______ ____
ROOT
ATOM      1  C   UNL     1       4.704   4.326  17.503  0.00  0.00    +0.000 A 
ATOM      2  C   UNL     1       4.170   5.597  17.240  0.00  0.00    +0.000 A 
ATOM      3  C   UNL     1       3.366   6.236  18.186  0.00  0.00    +0.000 A 
ATOM      4  C   UNL     1       2.839   7.563  17.954  0.00  0.00    +0.000 A 
ATOM      5  C   UNL     1       2.125   8.202  18.896  0.00  0.00    +0.000 A 
ATOM      6  C   UNL     1       1.851   7.559  20.195  0.00  0.00    +0.000 A 
ATOM      7  O   UNL     1       1.254   8.150  21.093  0.00  0.00    +0.000 OA
ATOM      8  O   UNL     1       2.300   6.248  20.366  0.00  0.00    +0.000 OA
ATOM      9  C   UNL     1       3.077   5.601  19.384  0.00  0.00    +0.000 A 
ATOM     10  C   UNL     1       3.570   4.332  19.666  0.00  0.00    +0.000 A 
ATOM     11  C   UNL     1       4.393   3.710  18.727  0.00  0.00    +0.000 A 
ENDROOT
BRANCH   5  12
ATOM     12  C   UNL     1       1.658   9.570  18.517  0.00  0.00    +0.000 C 
ATOM     13  O   UNL     1       1.649   9.882  17.329  0.00  0.00    +0.000 OA
ATOM     14  N   UNL     1       1.301  10.411  19.554  0.00  0.00    +0.000 N 
ATOM     15  H   UNL     1       1.463  10.088  20.508  0.00  0.00    +0.000 HD
BRANCH  14  16
ATOM     16  C   UNL     1       0.800  11.724  19.399  0.00  0.00    +0.000 A 
ATOM     17  C   UNL     1       1.626  12.837  19.219  0.00  0.00    +0.000 A 
ATOM     18  C   UNL     1       1.088  14.118  19.097  0.00  0.00    +0.000 A 
ATOM     19  C   UNL     1      -0.289  14.308  19.129  0.00  0.00    +0.000 A 
ATOM     20  C   UNL     1      -1.128  13.207  19.302  0.00  0.00    +0.000 A 
ATOM     21  C   UNL     1      -0.585  11.918  19.422  0.00  0.00    +0.000 A 
BRANCH  19  22
ATOM     22  O   UNL     1      -0.692  15.610  19.027  0.00  0.00    +0.000 OA
ATOM     23  C   UNL     1       0.352  16.574  19.032  0.00  0.00    +0.000 C 
ENDBRANCH  19  22
ENDBRANCH  14  16
ENDBRANCH   5  12
BRANCH  11  24
ATOM     24  O   UNL     1       4.931   2.486  19.003  0.00  0.00    +0.000 OA
ATOM     25  H   UNL     1       5.161   2.043  18.170  0.00  0.00    +0.000 HD
ENDBRANCH  11  24
BRANCH   1  26
ATOM     26  C   UNL     1       5.619   3.680  16.485  0.00  0.00    +0.000 C 
BRANCH  26  27
ATOM     27  C   UNL     1       6.757   4.598  16.039  0.00  0.00    +0.000 C 
BRANCH  27  28
ATOM     28  C   UNL     1       6.891   4.631  14.516  0.00  0.00    +0.000 C 
BRANCH  28  29
ATOM     29  C   UNL     1       5.646   4.032  13.863  0.00  0.00    +0.000 C 
BRANCH  29  31
ATOM     30  C   UNL     1       4.663   3.169  11.721  0.00  0.00    +0.000 C 
ATOM     31  C   UNL     1       5.948   3.469  12.477  0.00  0.00    +0.000 C 
ENDBRANCH  29  31
ENDBRANCH  28  29
ENDBRANCH  27  28
ENDBRANCH  26  27
ENDBRANCH   1  26
TORSDOF 9
ENDMDL
MODEL 2
REMARK VINA RESULT:      -7.7      1.217      2.379
REMARK  Name = 
REMARK  11 active torsions:
REMARK  status: ('A' for Active; 'I' for Inactive)
REMARK    1  A    between atoms: C_1  and  C_2
REMARK    2  A    between atoms: C_2  and  C_3
REMARK    3  A    between atoms: C_3  and  C_4
REMARK    4  A    between atoms: C_4  and  C_5
REMARK    5  A    between atoms: C_5  and  C_6
REMARK    6  A    between atoms: C_6  and  C_7
REMARK    7  A    between atoms: C_11  and  C_12
REMARK    8  A    between atoms: N_14  and  C_15
REMARK    9  A    between atoms: C_18  and  O_19
REMARK   10  A    between atoms: O_19  and  C_20
REMARK   11  A    between atoms: C_28  and  O_29
REMARK                            x       y       z     vdW  Elec       q    Type
REMARK                         _______ _______ _______ _____ _____    ______ ____
ROOT
ATOM      1  C   UNL     1       4.290   4.159  17.572  0.00  0.00    +0.000 A 
ATOM      2  C   UNL     1       3.872   5.473  17.315  0.00  0.00    +0.000 A 
ATOM      3  C   UNL     1       3.122   6.174  18.261  0.00  0.00    +0.000 A 
ATOM      4  C   UNL     1       2.714   7.544  18.036  0.00  0.00    +0.000 A 
ATOM      5  C   UNL     1       2.054   8.237  18.979  0.00  0.00    +0.000 A 
ATOM      6  C   UNL     1       1.717   7.612  20.272  0.00  0.00    +0.000 A 
ATOM      7  O   UNL     1       1.170   8.248  21.172  0.00  0.00    +0.000 OA
ATOM      8  O   UNL     1       2.049   6.266  20.437  0.00  0.00    +0.000 OA
ATOM      9  C   UNL     1       2.771   5.560  19.454  0.00  0.00    +0.000 A 
ATOM     10  C   UNL     1       3.150   4.251  19.730  0.00  0.00    +0.000 A 
ATOM     11  C   UNL     1       3.920   3.565  18.791  0.00  0.00    +0.000 A 
ENDROOT
BRANCH   5  12
ATOM     12  C   UNL     1       1.711   9.643  18.607  0.00  0.00    +0.000 C 
ATOM     13  O   UNL     1       1.992  10.040  17.479  0.00  0.00    +0.000 OA
ATOM     14  N   UNL     1       1.127  10.418  19.591  0.00  0.00    +0.000 N 
ATOM     15  H   UNL     1       1.051  10.022  20.528  0.00  0.00    +0.000 HD
BRANCH  14  16
ATOM     16  C   UNL     1       0.696  11.754  19.423  0.00  0.00    +0.000 A 
ATOM     17  C   UNL     1      -0.510  12.092  18.803  0.00  0.00    +0.000 A 
ATOM     18  C   UNL     1      -0.883  13.425  18.637  0.00  0.00    +0.000 A 
ATOM     19  C   UNL     1      -0.068  14.447  19.108  0.00  0.00    +0.000 A 
ATOM     20  C   UNL     1       1.136  14.128  19.735  0.00  0.00    +0.000 A 
ATOM     21  C   UNL     1       1.510  12.785  19.904  0.00  0.00    +0.000 A 
BRANCH  19  22
ATOM     22  O   UNL     1      -0.529  15.710  18.861  0.00  0.00    +0.000 OA
ATOM     23  C   UNL     1       0.472  16.684  18.599  0.00  0.00    +0.000 C 
ENDBRANCH  19  22
ENDBRANCH  14  16
ENDBRANCH   5  12
BRANCH  11  24
ATOM     24  O   UNL     1       4.347   2.296  19.061  0.00  0.00    +0.000 OA
ATOM     25  H   UNL     1       5.125   2.337  19.640  0.00  0.00    +0.000 HD
ENDBRANCH  11  24
BRANCH   1  26
ATOM     26  C   UNL     1       5.151   3.441  16.555  0.00  0.00    +0.000 C 
BRANCH  26  27
ATOM     27  C   UNL     1       6.080   4.383  15.789  0.00  0.00    +0.000 C 
BRANCH  27  28
ATOM     28  C   UNL     1       7.303   4.770  16.622  0.00  0.00    +0.000 C 
BRANCH  28  29
ATOM     29  C   UNL     1       7.253   6.257  16.974  0.00  0.00    +0.000 C 
BRANCH  29  31
ATOM     30  C   UNL     1       7.048   5.609  19.391  0.00  0.00    +0.000 C 
ATOM     31  C   UNL     1       7.747   6.520  18.394  0.00  0.00    +0.000 C 
ENDBRANCH  29  31
ENDBRANCH  28  29
ENDBRANCH  27  28
ENDBRANCH  26  27
ENDBRANCH   1  26
TORSDOF 9
ENDMDL
MODEL 3
REMARK VINA RESULT:      -7.4      1.356      2.455
REMARK  Name = 
REMARK  11 active torsions:
REMARK  status: ('A' for Active; 'I' for Inactive)
REMARK    1  A    between atoms: C_1  and  C_2
REMARK    2  A    between atoms: C_2  and  C_3
REMARK    3  A    between atoms: C_3  and  C_4
REMARK    4  A    between atoms: C_4  and  C_5
REMARK    5  A    between atoms: C_5  and  C_6
REMARK    6  A    between atoms: C_6  and  C_7
REMARK    7  A    between atoms: C_11  and  C_12
REMARK    8  A    between atoms: N_14  and  C_15
REMARK    9  A    between atoms: C_18  and  O_19
REMARK   10  A    between atoms: O_19  and  C_20
REMARK   11  A    between atoms: C_28  and  O_29
REMARK                            x       y       z     vdW  Elec       q    Type
REMARK                         _______ _______ _______ _____ _____    ______ ____
ROOT
ATOM      1  C   UNL     1       4.537   4.335  17.504  0.00  0.00    +0.000 A 
ATOM      2  C   UNL     1       4.050   5.628  17.262  0.00  0.00    +0.000 A 
ATOM      3  C   UNL     1       3.251   6.272  18.209  0.00  0.00    +0.000 A 
ATOM      4  C   UNL     1       2.772   7.621  18.000  0.00  0.00    +0.000 A 
ATOM      5  C   UNL     1       2.064   8.262  18.945  0.00  0.00    +0.000 A 
ATOM      6  C   UNL     1       1.747   7.599  20.224  0.00  0.00    +0.000 A 
ATOM      7  O   UNL     1       1.155   8.190  21.126  0.00  0.00    +0.000 OA
ATOM      8  O   UNL     1       2.150   6.271  20.372  0.00  0.00    +0.000 OA
ATOM      9  C   UNL     1       2.921   5.621  19.388  0.00  0.00    +0.000 A 
ATOM     10  C   UNL     1       3.367   4.330  19.649  0.00  0.00    +0.000 A 
ATOM     11  C   UNL     1       4.185   3.702  18.709  0.00  0.00    +0.000 A 
ENDROOT
BRANCH   5  12
ATOM     12  C   UNL     1       1.648   9.653  18.590  0.00  0.00    +0.000 C 
ATOM     13  O   UNL     1       1.762  10.023  17.424  0.00  0.00    +0.000 OA
ATOM     14  N   UNL     1       1.196  10.446  19.626  0.00  0.00    +0.000 N 
ATOM     15  H   UNL     1       1.258  10.075  20.575  0.00  0.00    +0.000 HD
BRANCH  14  16
ATOM     16  C   UNL     1       0.723  11.772  19.488  0.00  0.00    +0.000 A 
ATOM     17  C   UNL     1       1.561  12.889  19.554  0.00  0.00    +0.000 A 
ATOM     18  C   UNL     1       1.047  14.180  19.438  0.00  0.00    +0.000 A 
ATOM     19  C   UNL     1      -0.313  14.379  19.231  0.00  0.00    +0.000 A 
ATOM     20  C   UNL     1      -1.163  13.275  19.158  0.00  0.00    +0.000 A 
ATOM     21  C   UNL     1      -0.643  11.976  19.271  0.00  0.00    +0.000 A 
BRANCH  19  22
ATOM     22  O   UNL     1      -0.698  15.688  19.162  0.00  0.00    +0.000 OA
ATOM     23  C   UNL     1      -1.410  16.176  20.291  0.00  0.00    +0.000 C 
ENDBRANCH  19  22
ENDBRANCH  14  16
ENDBRANCH   5  12
BRANCH  11  24
ATOM     24  O   UNL     1       4.678   2.454  18.965  0.00  0.00    +0.000 OA
ATOM     25  H   UNL     1       4.677   2.301  19.923  0.00  0.00    +0.000 HD
ENDBRANCH  11  24
BRANCH   1  26
ATOM     26  C   UNL     1       5.447   3.681  16.487  0.00  0.00    +0.000 C 
BRANCH  26  27
ATOM     27  C   UNL     1       6.625   4.569  16.084  0.00  0.00    +0.000 C 
BRANCH  27  28
ATOM     28  C   UNL     1       7.303   5.195  17.304  0.00  0.00    +0.000 C 
BRANCH  28  29
ATOM     29  C   UNL     1       7.351   6.716  17.157  0.00  0.00    +0.000 C 
BRANCH  29  31
ATOM     30  C   UNL     1       8.252   8.865  18.089  0.00  0.00    +0.000 C 
ATOM     31  C   UNL     1       8.065   7.377  18.334  0.00  0.00    +0.000 C 
ENDBRANCH  29  31
ENDBRANCH  28  29
ENDBRANCH  27  28
ENDBRANCH  26  27
ENDBRANCH   1  26
TORSDOF 9
ENDMDL
MODEL 4
REMARK VINA RESULT:      -7.4      1.768      1.991
REMARK  Name = 
REMARK  11 active torsions:
REMARK  status: ('A' for Active; 'I' for Inactive)
REMARK    1  A    between atoms: C_1  and  C_2
REMARK    2  A    between atoms: C_2  and  C_3
REMARK    3  A    between atoms: C_3  and  C_4
REMARK    4  A    between atoms: C_4  and  C_5
REMARK    5  A    between atoms: C_5  and  C_6
REMARK    6  A    between atoms: C_6  and  C_7
REMARK    7  A    between atoms: C_11  and  C_12
REMARK    8  A    between atoms: N_14  and  C_15
REMARK    9  A    between atoms: C_18  and  O_19
REMARK   10  A    between atoms: O_19  and  C_20
REMARK   11  A    between atoms: C_28  and  O_29
REMARK                            x       y       z     vdW  Elec       q    Type
REMARK                         _______ _______ _______ _____ _____    ______ ____
ROOT
ATOM      1  C   UNL     1       5.148   5.736  16.588  0.00  0.00    +0.000 A 
ATOM      2  C   UNL     1       4.347   6.879  16.728  0.00  0.00    +0.000 A 
ATOM      3  C   UNL     1       3.496   7.017  17.827  0.00  0.00    +0.000 A 
ATOM      4  C   UNL     1       2.692   8.205  18.014  0.00  0.00    +0.000 A 
ATOM      5  C   UNL     1       1.929   8.362  19.109  0.00  0.00    +0.000 A 
ATOM      6  C   UNL     1       1.885   7.317  20.150  0.00  0.00    +0.000 A 
ATOM      7  O   UNL     1       1.243   7.470  21.188  0.00  0.00    +0.000 OA
ATOM      8  O   UNL     1       2.605   6.146  19.910  0.00  0.00    +0.000 OA
ATOM      9  C   UNL     1       3.428   6.006  18.775  0.00  0.00    +0.000 A 
ATOM     10  C   UNL     1       4.191   4.850  18.653  0.00  0.00    +0.000 A 
ATOM     11  C   UNL     1       5.057   4.731  17.566  0.00  0.00    +0.000 A 
ENDROOT
BRANCH   5  12
ATOM     12  C   UNL     1       1.165   9.645  19.169  0.00  0.00    +0.000 C 
ATOM     13  O   UNL     1       1.515  10.574  18.445  0.00  0.00    +0.000 OA
ATOM     14  N   UNL     1       0.127   9.705  20.078  0.00  0.00    +0.000 N 
ATOM     15  H   UNL     1       0.002   8.916  20.713  0.00  0.00    +0.000 HD
BRANCH  14  16
ATOM     16  C   UNL     1      -0.735  10.812  20.256  0.00  0.00    +0.000 A 
ATOM     17  C   UNL     1      -1.611  11.260  19.264  0.00  0.00    +0.000 A 
ATOM     18  C   UNL     1      -2.425  12.373  19.475  0.00  0.00    +0.000 A 
ATOM     19  C   UNL     1      -2.395  13.046  20.691  0.00  0.00    +0.000 A 
ATOM     20  C   UNL     1      -1.530  12.608  21.694  0.00  0.00    +0.000 A 
ATOM     21  C   UNL     1      -0.713  11.486  21.482  0.00  0.00    +0.000 A 
BRANCH  19  22
ATOM     22  O   UNL     1      -3.217  14.135  20.766  0.00  0.00    +0.000 OA
ATOM     23  C   UNL     1      -2.558  15.393  20.833  0.00  0.00    +0.000 C 
ENDBRANCH  19  22
ENDBRANCH  14  16
ENDBRANCH   5  12
BRANCH  11  24
ATOM     24  O   UNL     1       5.854   3.628  17.452  0.00  0.00    +0.000 OA
ATOM     25  H   UNL     1       6.704   3.802  17.885  0.00  0.00    +0.000 HD
ENDBRANCH  11  24
BRANCH   1  26
ATOM     26  C   UNL     1       6.104   5.638  15.419  0.00  0.00    +0.000 C 
BRANCH  26  27
ATOM     27  C   UNL     1       5.509   4.895  14.223  0.00  0.00    +0.000 C 
BRANCH  27  28
ATOM     28  C   UNL     1       6.386   3.716  13.797  0.00  0.00    +0.000 C 
BRANCH  28  29
ATOM     29  C   UNL     1       6.359   3.560  12.276  0.00  0.00    +0.000 C 
BRANCH  29  31
ATOM     30  C   UNL     1       4.099   3.258  11.226  0.00  0.00    +0.000 C 
ATOM     31  C   UNL     1       5.304   2.552  11.828  0.00  0.00    +0.000 C 
ENDBRANCH  29  31
ENDBRANCH  28  29
ENDBRANCH  27  28
ENDBRANCH  26  27
ENDBRANCH   1  26
TORSDOF 9
ENDMDL
MODEL 5
REMARK VINA RESULT:      -7.3      0.903      1.346
REMARK  Name = 
REMARK  11 active torsions:
REMARK  status: ('A' for Active; 'I' for Inactive)
REMARK    1  A    between atoms: C_1  and  C_2
REMARK    2  A    between atoms: C_2  and  C_3
REMARK    3  A    between atoms: C_3  and  C_4
REMARK    4  A    between atoms: C_4  and  C_5
REMARK    5  A    between atoms: C_5  and  C_6
REMARK    6  A    between atoms: C_6  and  C_7
REMARK    7  A    between atoms: C_11  and  C_12
REMARK    8  A    between atoms: N_14  and  C_15
REMARK    9  A    between atoms: C_18  and  O_19
REMARK   10  A    between atoms: O_19  and  C_20
REMARK   11  A    between atoms: C_28  and  O_29
REMARK                            x       y       z     vdW  Elec       q    Type
REMARK                         _______ _______ _______ _____ _____    ______ ____
ROOT
ATOM      1  C   UNL     1       4.983   5.414  17.239  0.00  0.00    +0.000 A 
ATOM      2  C   UNL     1       4.231   6.587  17.080  0.00  0.00    +0.000 A 
ATOM      3  C   UNL     1       3.351   7.005  18.080  0.00  0.00    +0.000 A 
ATOM      4  C   UNL     1       2.596   8.232  17.956  0.00  0.00    +0.000 A 
ATOM      5  C   UNL     1       1.805   8.665  18.952  0.00  0.00    +0.000 A 
ATOM      6  C   UNL     1       1.678   7.891  20.201  0.00  0.00    +0.000 A 
ATOM      7  O   UNL     1       1.009   8.301  21.149  0.00  0.00    +0.000 OA
ATOM      8  O   UNL     1       2.352   6.671  20.267  0.00  0.00    +0.000 OA
ATOM      9  C   UNL     1       3.205   6.243  19.230  0.00  0.00    +0.000 A 
ATOM     10  C   UNL     1       3.918   5.063  19.409  0.00  0.00    +0.000 A 
ATOM     11  C   UNL     1       4.814   4.665  18.415  0.00  0.00    +0.000 A 
ENDROOT
BRANCH   5  12
ATOM     12  C   UNL     1       1.098   9.955  18.684  0.00  0.00    +0.000 C 
ATOM     13  O   UNL     1       0.389  10.042  17.684  0.00  0.00    +0.000 OA
ATOM     14  N   UNL     1       1.328  10.984  19.577  0.00  0.00    +0.000 N 
ATOM     15  H   UNL     1       2.030  10.837  20.303  0.00  0.00    +0.000 HD
BRANCH  14  16
ATOM     16  C   UNL     1       0.725  12.261  19.518  0.00  0.00    +0.000 A 
ATOM     17  C   UNL     1      -0.609  12.489  19.867  0.00  0.00    +0.000 A 
ATOM     18  C   UNL     1      -1.170  13.762  19.768  0.00  0.00    +0.000 A 
ATOM     19  C   UNL     1      -0.400  14.837  19.341  0.00  0.00    +0.000 A 
ATOM     20  C   UNL     1       0.934  14.629  18.994  0.00  0.00    +0.000 A 
ATOM     21  C   UNL     1       1.499  13.347  19.096  0.00  0.00    +0.000 A 
BRANCH  19  22
ATOM     22  O   UNL     1      -1.069  16.027  19.260  0.00  0.00    +0.000 OA
ATOM     23  C   UNL     1      -0.558  16.951  18.310  0.00  0.00    +0.000 C 
ENDBRANCH  19  22
ENDBRANCH  14  16
ENDBRANCH   5  12
BRANCH  11  24
ATOM     24  O   UNL     1       5.563   3.537  18.591  0.00  0.00    +0.000 OA
ATOM     25  H   UNL     1       5.134   2.968  19.249  0.00  0.00    +0.000 HD
ENDBRANCH  11  24
BRANCH   1  26
ATOM     26  C   UNL     1       5.972   5.014  16.165  0.00  0.00    +0.000 C 
BRANCH  26  27
ATOM     27  C   UNL     1       5.303   4.395  14.938  0.00  0.00    +0.000 C 
BRANCH  27  28
ATOM     28  C   UNL     1       6.297   4.191  13.794  0.00  0.00    +0.000 C 
BRANCH  28  29
ATOM     29  C   UNL     1       5.599   3.548  12.596  0.00  0.00    +0.000 C 
BRANCH  29  31
ATOM     30  C   UNL     1       6.241   1.488  11.315  0.00  0.00    +0.000 C 
ATOM     31  C   UNL     1       6.599   2.933  11.620  0.00  0.00    +0.000 C 
ENDBRANCH  29  31
ENDBRANCH  28  29
ENDBRANCH  27  28
ENDBRANCH  26  27
ENDBRANCH   1  26
TORSDOF 9
ENDMDL
MODEL 6
REMARK VINA RESULT:      -7.3      3.058      4.657
REMARK  Name = 
REMARK  11 active torsions:
REMARK  status: ('A' for Active; 'I' for Inactive)
REMARK    1  A    between atoms: C_1  and  C_2
REMARK    2  A    between atoms: C_2  and  C_3
REMARK    3  A    between atoms: C_3  and  C_4
REMARK    4  A    between atoms: C_4  and  C_5
REMARK    5  A    between atoms: C_5  and  C_6
REMARK    6  A    between atoms: C_6  and  C_7
REMARK    7  A    between atoms: C_11  and  C_12
REMARK    8  A    between atoms: N_14  and  C_15
REMARK    9  A    between atoms: C_18  and  O_19
REMARK   10  A    between atoms: O_19  and  C_20
REMARK   11  A    between atoms: C_28  and  O_29
REMARK                            x       y       z     vdW  Elec       q    Type
REMARK                         _______ _______ _______ _____ _____    ______ ____
ROOT
ATOM      1  C   UNL     1       4.271   5.228  18.607  0.00  0.00    +0.000 A 
ATOM      2  C   UNL     1       3.345   5.848  19.460  0.00  0.00    +0.000 A 
ATOM      3  C   UNL     1       2.772   7.072  19.111  0.00  0.00    +0.000 A 
ATOM      4  C   UNL     1       1.785   7.710  19.954  0.00  0.00    +0.000 A 
ATOM      5  C   UNL     1       1.184   8.852  19.580  0.00  0.00    +0.000 A 
ATOM      6  C   UNL     1       1.524   9.494  18.295  0.00  0.00    +0.000 A 
ATOM      7  O   UNL     1       0.941  10.504  17.905  0.00  0.00    +0.000 OA
ATOM      8  O   UNL     1       2.536   8.904  17.536  0.00  0.00    +0.000 OA
ATOM      9  C   UNL     1       3.135   7.689  17.923  0.00  0.00    +0.000 A 
ATOM     10  C   UNL     1       4.067   7.113  17.067  0.00  0.00    +0.000 A 
ATOM     11  C   UNL     1       4.617   5.877  17.410  0.00  0.00    +0.000 A 
ENDROOT
BRANCH   5  12
ATOM     12  C   UNL     1       0.178   9.386  20.547  0.00  0.00    +0.000 C 
ATOM     13  O   UNL     1      -0.321   8.615  21.364  0.00  0.00    +0.000 OA
ATOM     14  N   UNL     1      -0.150  10.722  20.425  0.00  0.00    +0.000 N 
ATOM     15  H   UNL     1       0.236  11.238  19.634  0.00  0.00    +0.000 HD
BRANCH  14  16
ATOM     16  C   UNL     1      -1.048  11.419  21.267  0.00  0.00    +0.000 A 
ATOM     17  C   UNL     1      -0.984  11.357  22.662  0.00  0.00    +0.000 A 
ATOM     18  C   UNL     1      -1.907  12.041  23.454  0.00  0.00    +0.000 A 
ATOM     19  C   UNL     1      -2.897  12.819  22.865  0.00  0.00    +0.000 A 
ATOM     20  C   UNL     1      -2.971  12.896  21.475  0.00  0.00    +0.000 A 
ATOM     21  C   UNL     1      -2.040  12.210  20.679  0.00  0.00    +0.000 A 
BRANCH  19  22
ATOM     22  O   UNL     1      -3.756  13.417  23.744  0.00  0.00    +0.000 OA
ATOM     23  C   UNL     1      -4.338  12.554  24.712  0.00  0.00    +0.000 C 
ENDBRANCH  19  22
ENDBRANCH  14  16
ENDBRANCH   5  12
BRANCH  11  24
ATOM     24  O   UNL     1       5.496   5.267  16.561  0.00  0.00    +0.000 OA
ATOM     25  H   UNL     1       5.743   5.888  15.857  0.00  0.00    +0.000 HD
ENDBRANCH  11  24
BRANCH   1  26
ATOM     26  C   UNL     1       4.834   3.874  18.982  0.00  0.00    +0.000 C 
BRANCH  26  27
ATOM     27  C   UNL     1       4.029   2.712  18.400  0.00  0.00    +0.000 C 
BRANCH  27  28
ATOM     28  C   UNL     1       3.223   1.987  19.480  0.00  0.00    +0.000 C 
BRANCH  28  29
ATOM     29  C   UNL     1       1.735   2.011  19.132  0.00  0.00    +0.000 C 
BRANCH  29  31
ATOM     30  C   UNL     1       1.365   3.107  21.359  0.00  0.00    +0.000 C 
ATOM     31  C   UNL     1       0.994   3.113  19.885  0.00  0.00    +0.000 C 
ENDBRANCH  29  31
ENDBRANCH  28  29
ENDBRANCH  27  28
ENDBRANCH  26  27
ENDBRANCH   1  26
TORSDOF 9
ENDMDL
MODEL 7
REMARK VINA RESULT:      -7.3      3.361      5.367
REMARK  Name = 
REMARK  11 active torsions:
REMARK  status: ('A' for Active; 'I' for Inactive)
REMARK    1  A    between atoms: C_1  and  C_2
REMARK    2  A    between atoms: C_2  and  C_3
REMARK    3  A    between atoms: C_3  and  C_4
REMARK    4  A    between atoms: C_4  and  C_5
REMARK    5  A    between atoms: C_5  and  C_6
REMARK    6  A    between atoms: C_6  and  C_7
REMARK    7  A    between atoms: C_11  and  C_12
REMARK    8  A    between atoms: N_14  and  C_15
REMARK    9  A    between atoms: C_18  and  O_19
REMARK   10  A    between atoms: O_19  and  C_20
REMARK   11  A    between atoms: C_28  and  O_29
REMARK                            x       y       z     vdW  Elec       q    Type
REMARK                         _______ _______ _______ _____ _____    ______ ____
ROOT
ATOM      1  C   UNL     1       2.223   6.350  19.945  0.00  0.00    +0.000 A 
ATOM      2  C   UNL     1       1.522   7.214  20.799  0.00  0.00    +0.000 A 
ATOM      3  C   UNL     1       1.220   8.516  20.397  0.00  0.00    +0.000 A 
ATOM      4  C   UNL     1       0.462   9.411  21.244  0.00  0.00    +0.000 A 
ATOM      5  C   UNL     1       0.113  10.638  20.823  0.00  0.00    +0.000 A 
ATOM      6  C   UNL     1       0.503  11.111  19.481  0.00  0.00    +0.000 A 
ATOM      7  O   UNL     1       0.140  12.205  19.053  0.00  0.00    +0.000 OA
ATOM      8  O   UNL     1       1.302  10.262  18.713  0.00  0.00    +0.000 OA
ATOM      9  C   UNL     1       1.633   8.965  19.151  0.00  0.00    +0.000 A 
ATOM     10  C   UNL     1       2.350   8.142  18.290  0.00  0.00    +0.000 A 
ATOM     11  C   UNL     1       2.627   6.834  18.689  0.00  0.00    +0.000 A 
ENDROOT
BRANCH   5  12
ATOM     12  C   UNL     1      -0.679  11.442  21.803  0.00  0.00    +0.000 C 
ATOM     13  O   UNL     1      -0.407  11.350  22.998  0.00  0.00    +0.000 OA
ATOM     14  N   UNL     1      -1.700  12.215  21.287  0.00  0.00    +0.000 N 
ATOM     15  H   UNL     1      -1.914  12.122  20.293  0.00  0.00    +0.000 HD
BRANCH  14  16
ATOM     16  C   UNL     1      -2.533  13.072  22.043  0.00  0.00    +0.000 A 
ATOM     17  C   UNL     1      -3.735  12.650  22.619  0.00  0.00    +0.000 A 
ATOM     18  C   UNL     1      -4.538  13.538  23.335  0.00  0.00    +0.000 A 
ATOM     19  C   UNL     1      -4.143  14.859  23.509  0.00  0.00    +0.000 A 
ATOM     20  C   UNL     1      -2.944  15.295  22.946  0.00  0.00    +0.000 A 
ATOM     21  C   UNL     1      -2.135  14.400  22.227  0.00  0.00    +0.000 A 
BRANCH  19  22
ATOM     22  O   UNL     1      -5.026  15.636  24.206  0.00  0.00    +0.000 OA
ATOM     23  C   UNL     1      -4.448  16.701  24.947  0.00  0.00    +0.000 C 
ENDBRANCH  19  22
ENDBRANCH  14  16
ENDBRANCH   5  12
BRANCH  11  24
ATOM     24  O   UNL     1       3.286   5.991  17.840  0.00  0.00    +0.000 OA
ATOM     25  H   UNL     1       3.127   6.272  16.924  0.00  0.00    +0.000 HD
ENDBRANCH  11  24
BRANCH   1  26
ATOM     26  C   UNL     1       2.488   4.926  20.383  0.00  0.00    +0.000 C 
BRANCH  26  27
ATOM     27  C   UNL     1       1.208   4.144  20.675  0.00  0.00    +0.000 C 
BRANCH  27  28
ATOM     28  C   UNL     1       1.090   2.902  19.789  0.00  0.00    +0.000 C 
BRANCH  28  29
ATOM     29  C   UNL     1       1.445   3.249  18.344  0.00  0.00    +0.000 C 
BRANCH  29  31
ATOM     30  C   UNL     1       3.609   1.986  18.495  0.00  0.00    +0.000 C 
ATOM     31  C   UNL     1       2.326   2.178  17.704  0.00  0.00    +0.000 C 
ENDBRANCH  29  31
ENDBRANCH  28  29
ENDBRANCH  27  28
ENDBRANCH  26  27
ENDBRANCH   1  26
TORSDOF 9
ENDMDL
MODEL 8
REMARK VINA RESULT:      -7.3      3.409      5.358
REMARK  Name = 
REMARK  11 active torsions:
REMARK  status: ('A' for Active; 'I' for Inactive)
REMARK    1  A    between atoms: C_1  and  C_2
REMARK    2  A    between atoms: C_2  and  C_3
REMARK    3  A    between atoms: C_3  and  C_4
REMARK    4  A    between atoms: C_4  and  C_5
REMARK    5  A    between atoms: C_5  and  C_6
REMARK    6  A    between atoms: C_6  and  C_7
REMARK    7  A    between atoms: C_11  and  C_12
REMARK    8  A    between atoms: N_14  and  C_15
REMARK    9  A    between atoms: C_18  and  O_19
REMARK   10  A    between atoms: O_19  and  C_20
REMARK   11  A    between atoms: C_28  and  O_29
REMARK                            x       y       z     vdW  Elec       q    Type
REMARK                         _______ _______ _______ _____ _____    ______ ____
ROOT
ATOM      1  C   UNL     1       2.179   6.404  19.995  0.00  0.00    +0.000 A 
ATOM      2  C   UNL     1       1.543   7.381  20.774  0.00  0.00    +0.000 A 
ATOM      3  C   UNL     1       1.254   8.637  20.237  0.00  0.00    +0.000 A 
ATOM      4  C   UNL     1       0.562   9.647  21.008  0.00  0.00    +0.000 A 
ATOM      5  C   UNL     1       0.224  10.827  20.463  0.00  0.00    +0.000 A 
ATOM      6  C   UNL     1       0.560  11.130  19.058  0.00  0.00    +0.000 A 
ATOM      7  O   UNL     1       0.204  12.178  18.523  0.00  0.00    +0.000 OA
ATOM      8  O   UNL     1       1.298  10.174  18.358  0.00  0.00    +0.000 OA
ATOM      9  C   UNL     1       1.618   8.926  18.929  0.00  0.00    +0.000 A 
ATOM     10  C   UNL     1       2.270   7.988  18.138  0.00  0.00    +0.000 A 
ATOM     11  C   UNL     1       2.533   6.727  18.674  0.00  0.00    +0.000 A 
ENDROOT
BRANCH   5  12
ATOM     12  C   UNL     1      -0.497  11.763  21.378  0.00  0.00    +0.000 C 
ATOM     13  O   UNL     1       0.143  12.345  22.251  0.00  0.00    +0.000 OA
ATOM     14  N   UNL     1      -1.861  11.878  21.195  0.00  0.00    +0.000 N 
ATOM     15  H   UNL     1      -2.307  11.257  20.519  0.00  0.00    +0.000 HD
BRANCH  14  16
ATOM     16  C   UNL     1      -2.711  12.737  21.930  0.00  0.00    +0.000 A 
ATOM     17  C   UNL     1      -3.176  13.957  21.430  0.00  0.00    +0.000 A 
ATOM     18  C   UNL     1      -3.991  14.784  22.201  0.00  0.00    +0.000 A 
ATOM     19  C   UNL     1      -4.377  14.398  23.479  0.00  0.00    +0.000 A 
ATOM     20  C   UNL     1      -3.926  13.182  23.992  0.00  0.00    +0.000 A 
ATOM     21  C   UNL     1      -3.108  12.348  23.213  0.00  0.00    +0.000 A 
BRANCH  19  22
ATOM     22  O   UNL     1      -5.153  15.305  24.145  0.00  0.00    +0.000 OA
ATOM     23  C   UNL     1      -6.150  15.946  23.361  0.00  0.00    +0.000 C 
ENDBRANCH  19  22
ENDBRANCH  14  16
ENDBRANCH   5  12
BRANCH  11  24
ATOM     24  O   UNL     1       3.127   5.771  17.899  0.00  0.00    +0.000 OA
ATOM     25  H   UNL     1       3.221   6.108  16.994  0.00  0.00    +0.000 HD
ENDBRANCH  11  24
BRANCH   1  26
ATOM     26  C   UNL     1       2.429   5.031  20.583  0.00  0.00    +0.000 C 
BRANCH  26  27
ATOM     27  C   UNL     1       1.179   4.151  20.595  0.00  0.00    +0.000 C 
BRANCH  27  28
ATOM     28  C   UNL     1       1.489   2.725  20.135  0.00  0.00    +0.000 C 
BRANCH  28  29
ATOM     29  C   UNL     1       1.081   2.542  18.673  0.00  0.00    +0.000 C 
BRANCH  29  31
ATOM     30  C   UNL     1       3.483   1.819  18.574  0.00  0.00    +0.000 C 
ATOM     31  C   UNL     1       2.292   2.317  17.771  0.00  0.00    +0.000 C 
ENDBRANCH  29  31
ENDBRANCH  28  29
ENDBRANCH  27  28
ENDBRANCH  26  27
ENDBRANCH   1  26
TORSDOF 9
ENDMDL
MODEL 9
REMARK VINA RESULT:      -7.2      1.880      2.141
REMARK  Name = 
REMARK  11 active torsions:
REMARK  status: ('A' for Active; 'I' for Inactive)
REMARK    1  A    between atoms: C_1  and  C_2
REMARK    2  A    between atoms: C_2  and  C_3
REMARK    3  A    between atoms: C_3  and  C_4
REMARK    4  A    between atoms: C_4  and  C_5
REMARK    5  A    between atoms: C_5  and  C_6
REMARK    6  A    between atoms: C_6  and  C_7
REMARK    7  A    between atoms: C_11  and  C_12
REMARK    8  A    between atoms: N_14  and  C_15
REMARK    9  A    between atoms: C_18  and  O_19
REMARK   10  A    between atoms: O_19  and  C_20
REMARK   11  A    between atoms: C_28  and  O_29
REMARK                            x       y       z     vdW  Elec       q    Type
REMARK                         _______ _______ _______ _____ _____    ______ ____
ROOT
ATOM      1  C   UNL     1       5.212   5.632  16.886  0.00  0.00    +0.000 A 
ATOM      2  C   UNL     1       4.334   6.726  16.890  0.00  0.00    +0.000 A 
ATOM      3  C   UNL     1       3.505   6.964  17.988  0.00  0.00    +0.000 A 
ATOM      4  C   UNL     1       2.623   8.109  18.033  0.00  0.00    +0.000 A 
ATOM      5  C   UNL     1       1.880   8.372  19.121  0.00  0.00    +0.000 A 
ATOM      6  C   UNL     1       1.938   7.489  20.302  0.00  0.00    +0.000 A 
ATOM      7  O   UNL     1       1.315   7.747  21.331  0.00  0.00    +0.000 OA
ATOM      8  O   UNL     1       2.735   6.347  20.206  0.00  0.00    +0.000 OA
ATOM      9  C   UNL     1       3.536   6.100  19.073  0.00  0.00    +0.000 A 
ATOM     10  C   UNL     1       4.376   4.993  19.090  0.00  0.00    +0.000 A 
ATOM     11  C   UNL     1       5.219   4.776  18.000  0.00  0.00    +0.000 A 
ENDROOT
BRANCH   5  12
ATOM     12  C   UNL     1       1.026   9.595  19.025  0.00  0.00    +0.000 C 
ATOM     13  O   UNL     1       1.282  10.425  18.155  0.00  0.00    +0.000 OA
ATOM     14  N   UNL     1       0.020   9.723  19.963  0.00  0.00    +0.000 N 
ATOM     15  H   UNL     1      -0.024   9.033  20.713  0.00  0.00    +0.000 HD
BRANCH  14  16
ATOM     16  C   UNL     1      -0.913  10.784  20.014  0.00  0.00    +0.000 A 
ATOM     17  C   UNL     1      -0.973  11.693  21.074  0.00  0.00    +0.000 A 
ATOM     18  C   UNL     1      -1.928  12.710  21.095  0.00  0.00    +0.000 A 
ATOM     19  C   UNL     1      -2.827  12.851  20.045  0.00  0.00    +0.000 A 
ATOM     20  C   UNL     1      -2.777  11.956  18.976  0.00  0.00    +0.000 A 
ATOM     21  C   UNL     1      -1.814  10.935  18.955  0.00  0.00    +0.000 A 
BRANCH  19  22
ATOM     22  O   UNL     1      -3.730  13.866  20.194  0.00  0.00    +0.000 OA
ATOM     23  C   UNL     1      -4.995  13.485  20.717  0.00  0.00    +0.000 C 
ENDBRANCH  19  22
ENDBRANCH  14  16
ENDBRANCH   5  12
BRANCH  11  24
ATOM     24  O   UNL     1       6.091   3.724  18.015  0.00  0.00    +0.000 OA
ATOM     25  H   UNL     1       6.455   3.598  17.125  0.00  0.00    +0.000 HD
ENDBRANCH  11  24
BRANCH   1  26
ATOM     26  C   UNL     1       6.141   5.430  15.708  0.00  0.00    +0.000 C 
BRANCH  26  27
ATOM     27  C   UNL     1       5.932   4.087  15.007  0.00  0.00    +0.000 C 
BRANCH  27  28
ATOM     28  C   UNL     1       5.408   4.270  13.581  0.00  0.00    +0.000 C 
BRANCH  28  29
ATOM     29  C   UNL     1       6.303   3.524  12.591  0.00  0.00    +0.000 C 
BRANCH  29  31
ATOM     30  C   UNL     1       4.179   3.236  11.284  0.00  0.00    +0.000 C 
ATOM     31  C   UNL     1       5.497   2.594  11.688  0.00  0.00    +0.000 C 
ENDBRANCH  29  31
ENDBRANCH  28  29
ENDBRANCH  27  28
ENDBRANCH  26  27
ENDBRANCH   1  26
TORSDOF 9
ENDMDL
