MODEL 1
REMARK VINA RESULT:      -7.3      0.000      0.000
REMARK  Name = 
REMARK  8 active torsions:
REMARK  status: ('A' for Active; 'I' for Inactive)
REMARK    1  A    between atoms: C_1  and  C_2
REMARK    2  A    between atoms: C_2  and  O_3
REMARK    3  A    between atoms: O_3  and  C_4
REMARK    4  A    between atoms: C_5  and  O_6
REMARK    5  A    between atoms: O_6  and  C_7
REMARK    6  A    between atoms: C_12  and  C_13
REMARK    7  A    between atoms: C_25  and  O_26
REMARK    8  A    between atoms: O_26  and  C_27
REMARK                            x       y       z     vdW  Elec       q    Type
REMARK                         _______ _______ _______ _____ _____    ______ ____
ROOT
ATOM      1  C   UNL     1      -0.579  11.076  20.465  0.00  0.00    +0.000 A 
ATOM      2  C   UNL     1      -0.405  11.685  19.206  0.00  0.00    +0.000 A 
ATOM      3  C   UNL     1       0.403  11.060  18.252  0.00  0.00    +0.000 A 
ATOM      4  C   UNL     1       1.066   9.872  18.542  0.00  0.00    +0.000 A 
ATOM      5  O   UNL     1       1.788   9.331  17.503  0.00  0.00    +0.000 OA
ATOM      6  C   UNL     1       2.321   8.080  17.679  0.00  0.00    +0.000 A 
ATOM      7  C   UNL     1       2.381   7.410  18.833  0.00  0.00    +0.000 A 
ATOM      8  C   UNL     1       1.828   8.101  20.028  0.00  0.00    +0.000 A 
ATOM      9  O   UNL     1       2.201   7.767  21.146  0.00  0.00    +0.000 OA
ATOM     10  C   UNL     1       0.950   9.273  19.799  0.00  0.00    +0.000 A 
ATOM     11  C   UNL     1       0.060   9.831  20.744  0.00  0.00    +0.000 A 
ENDROOT
BRANCH   7  12
ATOM     12  C   UNL     1       3.053   6.161  19.005  0.00  0.00    +0.000 A 
ATOM     13  C   UNL     1       4.388   6.011  18.698  0.00  0.00    +0.000 A 
ATOM     14  S   UNL     1       4.965   4.455  19.078  0.00  0.00    +0.000 S 
ATOM     15  C   UNL     1       3.436   3.956  19.695  0.00  0.00    +0.000 A 
ATOM     16  C   UNL     1       3.127   2.701  20.256  0.00  0.00    +0.000 A 
ATOM     17  C   UNL     1       1.831   2.464  20.715  0.00  0.00    +0.000 A 
ATOM     18  C   UNL     1       0.860   3.450  20.621  0.00  0.00    +0.000 A 
ATOM     19  C   UNL     1       1.171   4.698  20.066  0.00  0.00    +0.000 A 
ATOM     20  C   UNL     1       2.479   4.974  19.589  0.00  0.00    +0.000 A 
ENDBRANCH   7  12
BRANCH   2  21
ATOM     21  O   UNL     1      -0.947  12.844  18.716  0.00  0.00    +0.000 OA
ATOM     22  C   UNL     1      -0.158  14.022  18.656  0.00  0.00    +0.000 C 
ENDBRANCH   2  21
BRANCH  11  23
ATOM     23  O   UNL     1      -0.500   9.104  21.773  0.00  0.00    +0.000 OA
ATOM     24  C   UNL     1      -0.063   9.357  23.103  0.00  0.00    +0.000 C 
ENDBRANCH  11  23
BRANCH   1  25
ATOM     25  O   UNL     1      -1.436  11.696  21.347  0.00  0.00    +0.000 OA
BRANCH  25  27
ATOM     26  C   UNL     1      -1.853  13.029  23.296  0.00  0.00    +0.000 C 
ATOM     27  C   UNL     1      -0.887  12.735  22.161  0.00  0.00    +0.000 C 
ENDBRANCH  25  27
ENDBRANCH   1  25
TORSDOF 5
ENDMDL
MODEL 2
REMARK VINA RESULT:      -7.0      1.631      3.160
REMARK  Name = 
REMARK  8 active torsions:
REMARK  status: ('A' for Active; 'I' for Inactive)
REMARK    1  A    between atoms: C_1  and  C_2
REMARK    2  A    between atoms: C_2  and  O_3
REMARK    3  A    between atoms: O_3  and  C_4
REMARK    4  A    between atoms: C_5  and  O_6
REMARK    5  A    between atoms: O_6  and  C_7
REMARK    6  A    between atoms: C_12  and  C_13
REMARK    7  A    between atoms: C_25  and  O_26
REMARK    8  A    between atoms: O_26  and  C_27
REMARK                            x       y       z     vdW  Elec       q    Type
REMARK                         _______ _______ _______ _____ _____    ______ ____
ROOT
ATOM      1  C   UNL     1      -0.101  12.089  20.243  0.00  0.00    +0.000 A 
ATOM      2  C   UNL     1      -0.332  11.605  21.546  0.00  0.00    +0.000 A 
ATOM      3  C   UNL     1       0.115  10.325  21.888  0.00  0.00    +0.000 A 
ATOM      4  C   UNL     1       0.745   9.512  20.951  0.00  0.00    +0.000 A 
ATOM      5  O   UNL     1       1.183   8.297  21.424  0.00  0.00    +0.000 OA
ATOM      6  C   UNL     1       1.957   7.529  20.593  0.00  0.00    +0.000 A 
ATOM      7  C   UNL     1       2.166   7.751  19.292  0.00  0.00    +0.000 A 
ATOM      8  C   UNL     1       1.481   8.932  18.704  0.00  0.00    +0.000 A 
ATOM      9  O   UNL     1       1.277   8.974  17.497  0.00  0.00    +0.000 OA
ATOM     10  C   UNL     1       0.942   9.949  19.638  0.00  0.00    +0.000 A 
ATOM     11  C   UNL     1       0.592  11.275  19.297  0.00  0.00    +0.000 A 
ENDROOT
BRANCH   7  12
ATOM     12  C   UNL     1       2.878   6.863  18.428  0.00  0.00    +0.000 A 
ATOM     13  C   UNL     1       4.017   7.262  17.764  0.00  0.00    +0.000 A 
ATOM     14  S   UNL     1       4.722   5.993  16.875  0.00  0.00    +0.000 S 
ATOM     15  C   UNL     1       3.524   4.866  17.388  0.00  0.00    +0.000 A 
ATOM     16  C   UNL     1       3.460   3.500  17.054  0.00  0.00    +0.000 A 
ATOM     17  C   UNL     1       2.419   2.725  17.565  0.00  0.00    +0.000 A 
ATOM     18  C   UNL     1       1.460   3.292  18.391  0.00  0.00    +0.000 A 
ATOM     19  C   UNL     1       1.528   4.650  18.725  0.00  0.00    +0.000 A 
ATOM     20  C   UNL     1       2.574   5.468  18.223  0.00  0.00    +0.000 A 
ENDBRANCH   7  12
BRANCH   2  21
ATOM     21  O   UNL     1      -0.934  12.222  22.611  0.00  0.00    +0.000 OA
ATOM     22  C   UNL     1      -2.118  11.673  23.168  0.00  0.00    +0.000 C 
ENDBRANCH   2  21
BRANCH  11  23
ATOM     23  O   UNL     1       1.160  11.958  18.243  0.00  0.00    +0.000 OA
ATOM     24  C   UNL     1       2.492  12.437  18.379  0.00  0.00    +0.000 C 
ENDBRANCH  11  23
BRANCH   1  25
ATOM     25  O   UNL     1      -0.500  13.379  19.975  0.00  0.00    +0.000 OA
BRANCH  25  27
ATOM     26  C   UNL     1       0.418  15.525  19.426  0.00  0.00    +0.000 C 
ATOM     27  C   UNL     1       0.329  14.430  20.475  0.00  0.00    +0.000 C 
ENDBRANCH  25  27
ENDBRANCH   1  25
TORSDOF 5
ENDMDL
MODEL 3
REMARK VINA RESULT:      -6.6      2.865      7.690
REMARK  Name = 
REMARK  8 active torsions:
REMARK  status: ('A' for Active; 'I' for Inactive)
REMARK    1  A    between atoms: C_1  and  C_2
REMARK    2  A    between atoms: C_2  and  O_3
REMARK    3  A    between atoms: O_3  and  C_4
REMARK    4  A    between atoms: C_5  and  O_6
REMARK    5  A    between atoms: O_6  and  C_7
REMARK    6  A    between atoms: C_12  and  C_13
REMARK    7  A    between atoms: C_25  and  O_26
REMARK    8  A    between atoms: O_26  and  C_27
REMARK                            x       y       z     vdW  Elec       q    Type
REMARK                         _______ _______ _______ _____ _____    ______ ____
ROOT
ATOM      1  C   UNL     1       3.973   4.073  18.948  0.00  0.00    +0.000 A 
ATOM      2  C   UNL     1       4.497   4.542  17.727  0.00  0.00    +0.000 A 
ATOM      3  C   UNL     1       4.164   5.827  17.290  0.00  0.00    +0.000 A 
ATOM      4  C   UNL     1       3.293   6.629  18.021  0.00  0.00    +0.000 A 
ATOM      5  O   UNL     1       3.085   7.890  17.513  0.00  0.00    +0.000 OA
ATOM      6  C   UNL     1       2.374   8.778  18.278  0.00  0.00    +0.000 A 
ATOM      7  C   UNL     1       1.687   8.482  19.385  0.00  0.00    +0.000 A 
ATOM      8  C   UNL     1       1.694   7.057  19.806  0.00  0.00    +0.000 A 
ATOM      9  O   UNL     1       0.796   6.635  20.525  0.00  0.00    +0.000 OA
ATOM     10  C   UNL     1       2.720   6.169  19.210  0.00  0.00    +0.000 A 
ATOM     11  C   UNL     1       3.121   4.915  19.724  0.00  0.00    +0.000 A 
ENDROOT
BRANCH   7  12
ATOM     12  C   UNL     1       0.858   9.408  20.089  0.00  0.00    +0.000 A 
ATOM     13  C   UNL     1       1.090   9.726  21.409  0.00  0.00    +0.000 A 
ATOM     14  S   UNL     1       0.017  10.917  21.983  0.00  0.00    +0.000 S 
ATOM     15  C   UNL     1      -0.767  11.055  20.456  0.00  0.00    +0.000 A 
ATOM     16  C   UNL     1      -1.822  11.930  20.131  0.00  0.00    +0.000 A 
ATOM     17  C   UNL     1      -2.340  11.916  18.836  0.00  0.00    +0.000 A 
ATOM     18  C   UNL     1      -1.824  11.052  17.881  0.00  0.00    +0.000 A 
ATOM     19  C   UNL     1      -0.773  10.186  18.206  0.00  0.00    +0.000 A 
ATOM     20  C   UNL     1      -0.221  10.174  19.514  0.00  0.00    +0.000 A 
ENDBRANCH   7  12
BRANCH   2  21
ATOM     21  O   UNL     1       5.353   3.926  16.852  0.00  0.00    +0.000 OA
ATOM     22  C   UNL     1       6.623   4.500  16.585  0.00  0.00    +0.000 C 
ENDBRANCH   2  21
BRANCH  11  23
ATOM     23  O   UNL     1       3.026   4.581  21.058  0.00  0.00    +0.000 OA
ATOM     24  C   UNL     1       1.993   3.694  21.467  0.00  0.00    +0.000 C 
ENDBRANCH  11  23
BRANCH   1  25
ATOM     25  O   UNL     1       4.383   2.827  19.368  0.00  0.00    +0.000 OA
BRANCH  25  27
ATOM     26  C   UNL     1       2.356   1.855  18.534  0.00  0.00    +0.000 C 
ATOM     27  C   UNL     1       3.862   1.701  18.658  0.00  0.00    +0.000 C 
ENDBRANCH  25  27
ENDBRANCH   1  25
TORSDOF 5
ENDMDL
MODEL 4
REMARK VINA RESULT:      -6.5      1.564      2.519
REMARK  Name = 
REMARK  8 active torsions:
REMARK  status: ('A' for Active; 'I' for Inactive)
REMARK    1  A    between atoms: C_1  and  C_2
REMARK    2  A    between atoms: C_2  and  O_3
REMARK    3  A    between atoms: O_3  and  C_4
REMARK    4  A    between atoms: C_5  and  O_6
REMARK    5  A    between atoms: O_6  and  C_7
REMARK    6  A    between atoms: C_12  and  C_13
REMARK    7  A    between atoms: C_25  and  O_26
REMARK    8  A    between atoms: O_26  and  C_27
REMARK                            x       y       z     vdW  Elec       q    Type
REMARK                         _______ _______ _______ _____ _____    ______ ____
ROOT
ATOM      1  C   UNL     1       0.117  11.473  21.041  0.00  0.00    +0.000 A 
ATOM      2  C   UNL     1       0.479  12.321  19.976  0.00  0.00    +0.000 A 
ATOM      3  C   UNL     1       1.147  11.783  18.872  0.00  0.00    +0.000 A 
ATOM      4  C   UNL     1       1.494  10.437  18.831  0.00  0.00    +0.000 A 
ATOM      5  O   UNL     1       2.102  10.020  17.669  0.00  0.00    +0.000 OA
ATOM      6  C   UNL     1       2.312   8.675  17.505  0.00  0.00    +0.000 A 
ATOM      7  C   UNL     1       2.167   7.740  18.447  0.00  0.00    +0.000 A 
ATOM      8  C   UNL     1       1.753   8.216  19.793  0.00  0.00    +0.000 A 
ATOM      9  O   UNL     1       1.992   7.528  20.778  0.00  0.00    +0.000 OA
ATOM     10  C   UNL     1       1.192   9.584  19.895  0.00  0.00    +0.000 A 
ATOM     11  C   UNL     1       0.427  10.081  20.976  0.00  0.00    +0.000 A 
ENDROOT
BRANCH   7  12
ATOM     12  C   UNL     1       2.511   6.364  18.276  0.00  0.00    +0.000 A 
ATOM     13  C   UNL     1       1.682   5.353  18.709  0.00  0.00    +0.000 A 
ATOM     14  S   UNL     1       2.279   3.811  18.303  0.00  0.00    +0.000 S 
ATOM     15  C   UNL     1       3.657   4.471  17.507  0.00  0.00    +0.000 A 
ATOM     16  C   UNL     1       4.672   3.748  16.850  0.00  0.00    +0.000 A 
ATOM     17  C   UNL     1       5.720   4.445  16.249  0.00  0.00    +0.000 A 
ATOM     18  C   UNL     1       5.763   5.831  16.298  0.00  0.00    +0.000 A 
ATOM     19  C   UNL     1       4.751   6.547  16.949  0.00  0.00    +0.000 A 
ATOM     20  C   UNL     1       3.669   5.870  17.572  0.00  0.00    +0.000 A 
ENDBRANCH   7  12
BRANCH   2  21
ATOM     21  O   UNL     1       0.251  13.662  19.814  0.00  0.00    +0.000 OA
ATOM     22  C   UNL     1      -0.473  14.123  18.683  0.00  0.00    +0.000 C 
ENDBRANCH   2  21
BRANCH  11  23
ATOM     23  O   UNL     1      -0.328   9.274  21.799  0.00  0.00    +0.000 OA
ATOM     24  C   UNL     1      -0.013   9.228  23.185  0.00  0.00    +0.000 C 
ENDBRANCH  11  23
BRANCH   1  25
ATOM     25  O   UNL     1      -0.597  12.036  22.075  0.00  0.00    +0.000 OA
BRANCH  25  27
ATOM     26  C   UNL     1      -2.689  12.225  23.231  0.00  0.00    +0.000 C 
ATOM     27  C   UNL     1      -2.004  12.197  21.876  0.00  0.00    +0.000 C 
ENDBRANCH  25  27
ENDBRANCH   1  25
TORSDOF 5
ENDMDL
MODEL 5
REMARK VINA RESULT:      -6.3      1.789      3.958
REMARK  Name = 
REMARK  8 active torsions:
REMARK  status: ('A' for Active; 'I' for Inactive)
REMARK    1  A    between atoms: C_1  and  C_2
REMARK    2  A    between atoms: C_2  and  O_3
REMARK    3  A    between atoms: O_3  and  C_4
REMARK    4  A    between atoms: C_5  and  O_6
REMARK    5  A    between atoms: O_6  and  C_7
REMARK    6  A    between atoms: C_12  and  C_13
REMARK    7  A    between atoms: C_25  and  O_26
REMARK    8  A    between atoms: O_26  and  C_27
REMARK                            x       y       z     vdW  Elec       q    Type
REMARK                         _______ _______ _______ _____ _____    ______ ____
ROOT
ATOM      1  C   UNL     1       0.702  11.360  19.881  0.00  0.00    +0.000 A 
ATOM      2  C   UNL     1       0.367  10.970  21.193  0.00  0.00    +0.000 A 
ATOM      3  C   UNL     1       0.626   9.659  21.602  0.00  0.00    +0.000 A 
ATOM      4  C   UNL     1       1.168   8.727  20.722  0.00  0.00    +0.000 A 
ATOM      5  O   UNL     1       1.422   7.487  21.259  0.00  0.00    +0.000 OA
ATOM      6  C   UNL     1       2.110   6.585  20.488  0.00  0.00    +0.000 A 
ATOM      7  C   UNL     1       2.387   6.718  19.189  0.00  0.00    +0.000 A 
ATOM      8  C   UNL     1       1.887   7.953  18.529  0.00  0.00    +0.000 A 
ATOM      9  O   UNL     1       1.728   7.968  17.314  0.00  0.00    +0.000 OA
ATOM     10  C   UNL     1       1.463   9.074  19.401  0.00  0.00    +0.000 A 
ATOM     11  C   UNL     1       1.306  10.419  18.994  0.00  0.00    +0.000 A 
ENDROOT
BRANCH   7  12
ATOM     12  C   UNL     1       2.998   5.705  18.388  0.00  0.00    +0.000 A 
ATOM     13  C   UNL     1       2.349   4.525  18.097  0.00  0.00    +0.000 A 
ATOM     14  S   UNL     1       3.256   3.531  17.055  0.00  0.00    +0.000 S 
ATOM     15  C   UNL     1       4.534   4.681  16.946  0.00  0.00    +0.000 A 
ATOM     16  C   UNL     1       5.709   4.558  16.181  0.00  0.00    +0.000 A 
ATOM     17  C   UNL     1       6.644   5.593  16.202  0.00  0.00    +0.000 A 
ATOM     18  C   UNL     1       6.418   6.729  16.967  0.00  0.00    +0.000 A 
ATOM     19  C   UNL     1       5.247   6.850  17.724  0.00  0.00    +0.000 A 
ATOM     20  C   UNL     1       4.274   5.816  17.725  0.00  0.00    +0.000 A 
ENDBRANCH   7  12
BRANCH   2  21
ATOM     21  O   UNL     1      -0.178  11.709  22.210  0.00  0.00    +0.000 OA
ATOM     22  C   UNL     1      -1.174  11.138  23.042  0.00  0.00    +0.000 C 
ENDBRANCH   2  21
BRANCH  11  23
ATOM     23  O   UNL     1       1.994  10.971  17.935  0.00  0.00    +0.000 OA
ATOM     24  C   UNL     1       2.687  12.196  18.137  0.00  0.00    +0.000 C 
ENDBRANCH  11  23
BRANCH   1  25
ATOM     25  O   UNL     1       0.490  12.679  19.546  0.00  0.00    +0.000 OA
BRANCH  25  27
ATOM     26  C   UNL     1      -1.356  12.348  18.053  0.00  0.00    +0.000 C 
ATOM     27  C   UNL     1      -0.860  13.073  19.292  0.00  0.00    +0.000 C 
ENDBRANCH  25  27
ENDBRANCH   1  25
TORSDOF 5
ENDMDL
MODEL 6
REMARK VINA RESULT:      -6.2      1.377      3.143
REMARK  Name = 
REMARK  8 active torsions:
REMARK  status: ('A' for Active; 'I' for Inactive)
REMARK    1  A    between atoms: C_1  and  C_2
REMARK    2  A    between atoms: C_2  and  O_3
REMARK    3  A    between atoms: O_3  and  C_4
REMARK    4  A    between atoms: C_5  and  O_6
REMARK    5  A    between atoms: O_6  and  C_7
REMARK    6  A    between atoms: C_12  and  C_13
REMARK    7  A    between atoms: C_25  and  O_26
REMARK    8  A    between atoms: O_26  and  C_27
REMARK                            x       y       z     vdW  Elec       q    Type
REMARK                         _______ _______ _______ _____ _____    ______ ____
ROOT
ATOM      1  C   UNL     1      -0.534  12.720  20.405  0.00  0.00    +0.000 A 
ATOM      2  C   UNL     1      -0.826  12.400  21.746  0.00  0.00    +0.000 A 
ATOM      3  C   UNL     1      -0.439  11.154  22.249  0.00  0.00    +0.000 A 
ATOM      4  C   UNL     1       0.190  10.217  21.437  0.00  0.00    +0.000 A 
ATOM      5  O   UNL     1       0.566   9.051  22.063  0.00  0.00    +0.000 OA
ATOM      6  C   UNL     1       1.337   8.165  21.355  0.00  0.00    +0.000 A 
ATOM      7  C   UNL     1       1.596   8.226  20.046  0.00  0.00    +0.000 A 
ATOM      8  C   UNL     1       0.976   9.353  19.301  0.00  0.00    +0.000 A 
ATOM      9  O   UNL     1       0.814   9.261  18.090  0.00  0.00    +0.000 OA
ATOM     10  C   UNL     1       0.446  10.490  20.090  0.00  0.00    +0.000 A 
ATOM     11  C   UNL     1       0.158  11.778  19.585  0.00  0.00    +0.000 A 
ENDROOT
BRANCH   7  12
ATOM     12  C   UNL     1       2.302   7.220  19.318  0.00  0.00    +0.000 A 
ATOM     13  C   UNL     1       3.213   7.545  18.336  0.00  0.00    +0.000 A 
ATOM     14  S   UNL     1       3.979   6.169  17.688  0.00  0.00    +0.000 S 
ATOM     15  C   UNL     1       3.122   5.104  18.736  0.00  0.00    +0.000 A 
ATOM     16  C   UNL     1       3.259   3.704  18.803  0.00  0.00    +0.000 A 
ATOM     17  C   UNL     1       2.487   2.991  19.720  0.00  0.00    +0.000 A 
ATOM     18  C   UNL     1       1.596   3.651  20.554  0.00  0.00    +0.000 A 
ATOM     19  C   UNL     1       1.464   5.043  20.487  0.00  0.00    +0.000 A 
ATOM     20  C   UNL     1       2.235   5.801  19.567  0.00  0.00    +0.000 A 
ENDBRANCH   7  12
BRANCH   2  21
ATOM     21  O   UNL     1      -1.438  13.157  22.709  0.00  0.00    +0.000 OA
ATOM     22  C   UNL     1      -2.681  12.739  23.252  0.00  0.00    +0.000 C 
ENDBRANCH   2  21
BRANCH  11  23
ATOM     23  O   UNL     1       0.786  12.314  18.481  0.00  0.00    +0.000 OA
ATOM     24  C   UNL     1       2.153  12.689  18.589  0.00  0.00    +0.000 C 
ENDBRANCH  11  23
BRANCH   1  25
ATOM     25  O   UNL     1      -0.875  13.983  19.975  0.00  0.00    +0.000 OA
BRANCH  25  27
ATOM     26  C   UNL     1      -0.433  16.314  19.625  0.00  0.00    +0.000 C 
ATOM     27  C   UNL     1      -0.007  15.053  20.357  0.00  0.00    +0.000 C 
ENDBRANCH  25  27
ENDBRANCH   1  25
TORSDOF 5
ENDMDL
MODEL 7
REMARK VINA RESULT:      -6.2      1.206      1.211
REMARK  Name = 
REMARK  8 active torsions:
REMARK  status: ('A' for Active; 'I' for Inactive)
REMARK    1  A    between atoms: C_1  and  C_2
REMARK    2  A    between atoms: C_2  and  O_3
REMARK    3  A    between atoms: O_3  and  C_4
REMARK    4  A    between atoms: C_5  and  O_6
REMARK    5  A    between atoms: O_6  and  C_7
REMARK    6  A    between atoms: C_12  and  C_13
REMARK    7  A    between atoms: C_25  and  O_26
REMARK    8  A    between atoms: O_26  and  C_27
REMARK                            x       y       z     vdW  Elec       q    Type
REMARK                         _______ _______ _______ _____ _____    ______ ____
ROOT
ATOM      1  C   UNL     1       0.740  10.801  20.999  0.00  0.00    +0.000 A 
ATOM      2  C   UNL     1       0.770  11.592  19.833  0.00  0.00    +0.000 A 
ATOM      3  C   UNL     1       1.211  11.023  18.635  0.00  0.00    +0.000 A 
ATOM      4  C   UNL     1       1.658   9.706  18.588  0.00  0.00    +0.000 A 
ATOM      5  O   UNL     1       2.018   9.249  17.342  0.00  0.00    +0.000 OA
ATOM      6  C   UNL     1       2.303   7.914  17.208  0.00  0.00    +0.000 A 
ATOM      7  C   UNL     1       2.462   7.045  18.209  0.00  0.00    +0.000 A 
ATOM      8  C   UNL     1       2.328   7.589  19.586  0.00  0.00    +0.000 A 
ATOM      9  O   UNL     1       2.848   6.997  20.524  0.00  0.00    +0.000 OA
ATOM     10  C   UNL     1       1.686   8.916  19.741  0.00  0.00    +0.000 A 
ATOM     11  C   UNL     1       1.149   9.435  20.941  0.00  0.00    +0.000 A 
ENDROOT
BRANCH   7  12
ATOM     12  C   UNL     1       2.879   5.689  18.039  0.00  0.00    +0.000 A 
ATOM     13  C   UNL     1       4.005   5.365  17.314  0.00  0.00    +0.000 A 
ATOM     14  S   UNL     1       4.331   3.695  17.341  0.00  0.00    +0.000 S 
ATOM     15  C   UNL     1       2.978   3.370  18.356  0.00  0.00    +0.000 A 
ATOM     16  C   UNL     1       2.591   2.114  18.861  0.00  0.00    +0.000 A 
ATOM     17  C   UNL     1       1.465   2.030  19.680  0.00  0.00    +0.000 A 
ATOM     18  C   UNL     1       0.736   3.168  19.993  0.00  0.00    +0.000 A 
ATOM     19  C   UNL     1       1.125   4.416  19.492  0.00  0.00    +0.000 A 
ATOM     20  C   UNL     1       2.266   4.539  18.656  0.00  0.00    +0.000 A 
ENDBRANCH   7  12
BRANCH   2  21
ATOM     21  O   UNL     1       0.392  12.896  19.654  0.00  0.00    +0.000 OA
ATOM     22  C   UNL     1      -0.560  13.224  18.653  0.00  0.00    +0.000 C 
ENDBRANCH   2  21
BRANCH  11  23
ATOM     23  O   UNL     1       0.678   8.639  21.963  0.00  0.00    +0.000 OA
ATOM     24  C   UNL     1      -0.649   8.137  21.880  0.00  0.00    +0.000 C 
ENDBRANCH  11  23
BRANCH   1  25
ATOM     25  O   UNL     1       0.235  11.387  22.139  0.00  0.00    +0.000 OA
BRANCH  25  27
ATOM     26  C   UNL     1      -1.396  12.952  22.938  0.00  0.00    +0.000 C 
ATOM     27  C   UNL     1      -1.166  11.673  22.152  0.00  0.00    +0.000 C 
ENDBRANCH  25  27
ENDBRANCH   1  25
TORSDOF 5
ENDMDL
MODEL 8
REMARK VINA RESULT:      -6.0      3.242      8.320
REMARK  Name = 
REMARK  8 active torsions:
REMARK  status: ('A' for Active; 'I' for Inactive)
REMARK    1  A    between atoms: C_1  and  C_2
REMARK    2  A    between atoms: C_2  and  O_3
REMARK    3  A    between atoms: O_3  and  C_4
REMARK    4  A    between atoms: C_5  and  O_6
REMARK    5  A    between atoms: O_6  and  C_7
REMARK    6  A    between atoms: C_12  and  C_13
REMARK    7  A    between atoms: C_25  and  O_26
REMARK    8  A    between atoms: O_26  and  C_27
REMARK                            x       y       z     vdW  Elec       q    Type
REMARK                         _______ _______ _______ _____ _____    ______ ____
ROOT
ATOM      1  C   UNL     1       1.509   8.529  19.111  0.00  0.00    +0.000 A 
ATOM      2  C   UNL     1       1.687   7.666  20.211  0.00  0.00    +0.000 A 
ATOM      3  C   UNL     1       1.179   8.037  21.459  0.00  0.00    +0.000 A 
ATOM      4  C   UNL     1       0.540   9.260  21.637  0.00  0.00    +0.000 A 
ATOM      5  O   UNL     1       0.040   9.486  22.899  0.00  0.00    +0.000 OA
ATOM      6  C   UNL     1      -0.743  10.595  23.087  0.00  0.00    +0.000 A 
ATOM      7  C   UNL     1      -0.910  11.592  22.214  0.00  0.00    +0.000 A 
ATOM      8  C   UNL     1      -0.162  11.482  20.934  0.00  0.00    +0.000 A 
ATOM      9  O   UNL     1       0.074  12.493  20.283  0.00  0.00    +0.000 OA
ATOM     10  C   UNL     1       0.395  10.156  20.575  0.00  0.00    +0.000 A 
ATOM     11  C   UNL     1       0.808   9.760  19.283  0.00  0.00    +0.000 A 
ENDROOT
BRANCH   7  12
ATOM     12  C   UNL     1      -1.636  12.791  22.490  0.00  0.00    +0.000 A 
ATOM     13  C   UNL     1      -1.168  13.728  23.386  0.00  0.00    +0.000 A 
ATOM     14  S   UNL     1      -2.172  15.101  23.464  0.00  0.00    +0.000 S 
ATOM     15  C   UNL     1      -3.246  14.478  22.270  0.00  0.00    +0.000 A 
ATOM     16  C   UNL     1      -4.391  15.118  21.757  0.00  0.00    +0.000 A 
ATOM     17  C   UNL     1      -5.150  14.469  20.783  0.00  0.00    +0.000 A 
ATOM     18  C   UNL     1      -4.784  13.211  20.327  0.00  0.00    +0.000 A 
ATOM     19  C   UNL     1      -3.644  12.579  20.837  0.00  0.00    +0.000 A 
ATOM     20  C   UNL     1      -2.846  13.210  21.828  0.00  0.00    +0.000 A 
ENDBRANCH   7  12
BRANCH   2  21
ATOM     21  O   UNL     1       2.286   6.435  20.265  0.00  0.00    +0.000 OA
ATOM     22  C   UNL     1       1.522   5.292  20.615  0.00  0.00    +0.000 C 
ENDBRANCH   2  21
BRANCH  11  23
ATOM     23  O   UNL     1       0.295  10.307  18.126  0.00  0.00    +0.000 OA
ATOM     24  C   UNL     1      -1.060  10.042  17.788  0.00  0.00    +0.000 C 
ENDBRANCH  11  23
BRANCH   1  25
ATOM     25  O   UNL     1       1.968   8.089  17.889  0.00  0.00    +0.000 OA
BRANCH  25  27
ATOM     26  C   UNL     1       4.029   6.983  17.362  0.00  0.00    +0.000 C 
ATOM     27  C   UNL     1       3.348   8.320  17.596  0.00  0.00    +0.000 C 
ENDBRANCH  25  27
ENDBRANCH   1  25
TORSDOF 5
ENDMDL
MODEL 9
REMARK VINA RESULT:      -5.9      3.990      8.876
REMARK  Name = 
REMARK  8 active torsions:
REMARK  status: ('A' for Active; 'I' for Inactive)
REMARK    1  A    between atoms: C_1  and  C_2
REMARK    2  A    between atoms: C_2  and  O_3
REMARK    3  A    between atoms: O_3  and  C_4
REMARK    4  A    between atoms: C_5  and  O_6
REMARK    5  A    between atoms: O_6  and  C_7
REMARK    6  A    between atoms: C_12  and  C_13
REMARK    7  A    between atoms: C_25  and  O_26
REMARK    8  A    between atoms: O_26  and  C_27
REMARK                            x       y       z     vdW  Elec       q    Type
REMARK                         _______ _______ _______ _____ _____    ______ ____
ROOT
ATOM      1  C   UNL     1       0.474   9.665  19.323  0.00  0.00    +0.000 A 
ATOM      2  C   UNL     1       0.917   9.071  20.522  0.00  0.00    +0.000 A 
ATOM      3  C   UNL     1       0.388   9.513  21.738  0.00  0.00    +0.000 A 
ATOM      4  C   UNL     1      -0.533  10.554  21.782  0.00  0.00    +0.000 A 
ATOM      5  O   UNL     1      -1.017  10.861  23.033  0.00  0.00    +0.000 OA
ATOM      6  C   UNL     1      -2.048  11.761  23.117  0.00  0.00    +0.000 A 
ATOM      7  C   UNL     1      -2.503  12.524  22.120  0.00  0.00    +0.000 A 
ATOM      8  C   UNL     1      -1.811  12.385  20.812  0.00  0.00    +0.000 A 
ATOM      9  O   UNL     1      -1.871  13.297  19.996  0.00  0.00    +0.000 OA
ATOM     10  C   UNL     1      -0.951  11.194  20.613  0.00  0.00    +0.000 A 
ATOM     11  C   UNL     1      -0.510  10.698  19.365  0.00  0.00    +0.000 A 
ENDROOT
BRANCH   7  12
ATOM     12  C   UNL     1      -3.498  13.538  22.272  0.00  0.00    +0.000 A 
ATOM     13  C   UNL     1      -3.212  14.747  22.869  0.00  0.00    +0.000 A 
ATOM     14  S   UNL     1      -4.542  15.809  22.843  0.00  0.00    +0.000 S 
ATOM     15  C   UNL     1      -5.528  14.675  22.000  0.00  0.00    +0.000 A 
ATOM     16  C   UNL     1      -6.855  14.873  21.573  0.00  0.00    +0.000 A 
ATOM     17  C   UNL     1      -7.509  13.845  20.893  0.00  0.00    +0.000 A 
ATOM     18  C   UNL     1      -6.861  12.645  20.641  0.00  0.00    +0.000 A 
ATOM     19  C   UNL     1      -5.540  12.452  21.064  0.00  0.00    +0.000 A 
ATOM     20  C   UNL     1      -4.844  13.477  21.758  0.00  0.00    +0.000 A 
ENDBRANCH   7  12
BRANCH   2  21
ATOM     21  O   UNL     1       1.812   8.052  20.710  0.00  0.00    +0.000 OA
ATOM     22  C   UNL     1       1.345   6.720  20.857  0.00  0.00    +0.000 C 
ENDBRANCH   2  21
BRANCH  11  23
ATOM     23  O   UNL     1      -1.197  10.900  18.187  0.00  0.00    +0.000 OA
ATOM     24  C   UNL     1      -2.341  10.098  17.919  0.00  0.00    +0.000 C 
ENDBRANCH  11  23
BRANCH   1  25
ATOM     25  O   UNL     1       0.974   9.151  18.147  0.00  0.00    +0.000 OA
BRANCH  25  27
ATOM     26  C   UNL     1       3.014   8.018  17.594  0.00  0.00    +0.000 C 
ATOM     27  C   UNL     1       2.365   9.359  17.890  0.00  0.00    +0.000 C 
ENDBRANCH  25  27
ENDBRANCH   1  25
TORSDOF 5
ENDMDL
