MODEL 1
REMARK VINA RESULT:      -8.2      0.000      0.000
REMARK  Name = 
REMARK  8 active torsions:
REMARK  status: ('A' for Active; 'I' for Inactive)
REMARK    1  A    between atoms: C_1  and  C_2
REMARK    2  A    between atoms: C_2  and  C_3
REMARK    3  A    between atoms: C_9  and  C_10
REMARK    4  A    between atoms: C_11  and  O_12
REMARK    5  A    between atoms: O_12  and  C_13
REMARK    6  A    between atoms: C_13  and  C_14
REMARK    7  A    between atoms: C_20  and  C_21
REMARK    8  A    between atoms: C_21  and  O_23
REMARK                            x       y       z     vdW  Elec       q    Type
REMARK                         _______ _______ _______ _____ _____    ______ ____
ROOT
ATOM      1  C   UNL     1       6.228   3.793  13.261  0.00  0.00    +0.000 A 
ATOM      2  C   UNL     1       7.143   4.517  12.600  0.00  0.00    +0.000 A 
ATOM      3  C   UNL     1       8.015   5.507  13.246  0.00  0.00    +0.000 A 
ATOM      4  O   UNL     1       8.866   6.110  12.606  0.00  0.00    +0.000 OA
ATOM      5  O   UNL     1       7.813   5.713  14.595  0.00  0.00    +0.000 OA
ATOM      6  C   UNL     1       6.858   4.982  15.337  0.00  0.00    +0.000 A 
ATOM      7  C   UNL     1       6.759   5.274  16.709  0.00  0.00    +0.000 A 
ATOM      8  C   UNL     1       7.605   6.360  17.320  0.00  0.00    +0.000 C 
ATOM      9  C   UNL     1       5.874   4.513  17.489  0.00  0.00    +0.000 A 
ATOM     10  C   UNL     1       5.068   3.546  16.879  0.00  0.00    +0.000 A 
ATOM     11  C   UNL     1       5.167   3.302  15.506  0.00  0.00    +0.000 A 
ATOM     12  C   UNL     1       6.071   4.009  14.708  0.00  0.00    +0.000 A 
ENDROOT
BRANCH   1  14
ATOM     13  C   UNL     1       4.494   3.471  11.478  0.00  0.00    +0.000 C 
ATOM     14  C   UNL     1       5.374   2.794  12.519  0.00  0.00    +0.000 C 
ENDBRANCH   1  14
BRANCH   9  15
ATOM     15  O   UNL     1       5.817   4.794  18.828  0.00  0.00    +0.000 OA
BRANCH  15  16
ATOM     16  C   UNL     1       4.735   5.605  19.272  0.00  0.00    +0.000 C 
BRANCH  16  17
ATOM     17  C   UNL     1       3.306   5.137  18.931  0.00  0.00    +0.000 C 
ATOM     18  O   UNL     1       2.708   5.586  17.953  0.00  0.00    +0.000 OA
ATOM     19  N   UNL     1       2.722   4.186  19.746  0.00  0.00    +0.000 N 
ATOM     20  C   UNL     1       3.229   3.799  21.049  0.00  0.00    +0.000 C 
ATOM     21  C   UNL     1       2.379   2.598  21.391  0.00  0.00    +0.000 C 
ATOM     22  C   UNL     1       0.995   3.038  20.915  0.00  0.00    +0.000 C 
ATOM     23  C   UNL     1       1.266   3.940  19.690  0.00  0.00    +0.000 C 
BRANCH  23  24
ATOM     24  C   UNL     1       0.720   3.254  18.435  0.00  0.00    +0.000 C 
ATOM     25  O   UNL     1       0.359   2.083  18.412  0.00  0.00    +0.000 OA
BRANCH  24  26
ATOM     26  O   UNL     1       0.787   4.012  17.318  0.00  0.00    +0.000 OA
ATOM     27  H   UNL     1       1.429   4.740  17.441  0.00  0.00    +0.000 HD
ENDBRANCH  24  26
ENDBRANCH  23  24
ENDBRANCH  16  17
ENDBRANCH  15  16
ENDBRANCH   9  15
TORSDOF 6
ENDMDL
MODEL 2
REMARK VINA RESULT:      -8.0      5.125      8.399
REMARK  Name = 
REMARK  8 active torsions:
REMARK  status: ('A' for Active; 'I' for Inactive)
REMARK    1  A    between atoms: C_1  and  C_2
REMARK    2  A    between atoms: C_2  and  C_3
REMARK    3  A    between atoms: C_9  and  C_10
REMARK    4  A    between atoms: C_11  and  O_12
REMARK    5  A    between atoms: O_12  and  C_13
REMARK    6  A    between atoms: C_13  and  C_14
REMARK    7  A    between atoms: C_20  and  C_21
REMARK    8  A    between atoms: C_21  and  O_23
REMARK                            x       y       z     vdW  Elec       q    Type
REMARK                         _______ _______ _______ _____ _____    ______ ____
ROOT
ATOM      1  C   UNL     1      -0.584  11.095  21.547  0.00  0.00    +0.000 A 
ATOM      2  C   UNL     1      -0.853  12.194  20.826  0.00  0.00    +0.000 A 
ATOM      3  C   UNL     1      -0.404  12.384  19.441  0.00  0.00    +0.000 A 
ATOM      4  O   UNL     1      -0.715  13.387  18.811  0.00  0.00    +0.000 OA
ATOM      5  O   UNL     1       0.378  11.382  18.907  0.00  0.00    +0.000 OA
ATOM      6  C   UNL     1       0.696  10.207  19.625  0.00  0.00    +0.000 A 
ATOM      7  C   UNL     1       1.489   9.252  18.964  0.00  0.00    +0.000 A 
ATOM      8  C   UNL     1       2.008   9.522  17.576  0.00  0.00    +0.000 C 
ATOM      9  C   UNL     1       1.759   8.042  19.622  0.00  0.00    +0.000 A 
ATOM     10  C   UNL     1       1.302   7.845  20.929  0.00  0.00    +0.000 A 
ATOM     11  C   UNL     1       0.543   8.829  21.571  0.00  0.00    +0.000 A 
ATOM     12  C   UNL     1       0.216  10.026  20.928  0.00  0.00    +0.000 A 
ENDROOT
BRANCH   1  14
ATOM     13  C   UNL     1      -2.276  11.894  23.216  0.00  0.00    +0.000 C 
ATOM     14  C   UNL     1      -1.087  10.978  22.965  0.00  0.00    +0.000 C 
ENDBRANCH   1  14
BRANCH   9  15
ATOM     15  O   UNL     1       2.508   7.114  18.946  0.00  0.00    +0.000 OA
BRANCH  15  16
ATOM     16  C   UNL     1       3.481   6.399  19.698  0.00  0.00    +0.000 C 
BRANCH  16  17
ATOM     17  C   UNL     1       3.780   4.946  19.276  0.00  0.00    +0.000 C 
ATOM     18  O   UNL     1       4.806   4.664  18.656  0.00  0.00    +0.000 OA
ATOM     19  N   UNL     1       2.871   3.967  19.628  0.00  0.00    +0.000 N 
ATOM     20  C   UNL     1       1.529   4.229  20.115  0.00  0.00    +0.000 C 
ATOM     21  C   UNL     1       1.066   2.862  20.558  0.00  0.00    +0.000 C 
ATOM     22  C   UNL     1       1.598   1.964  19.442  0.00  0.00    +0.000 C 
ATOM     23  C   UNL     1       2.911   2.637  18.986  0.00  0.00    +0.000 C 
BRANCH  23  24
ATOM     24  C   UNL     1       4.089   1.724  19.339  0.00  0.00    +0.000 C 
ATOM     25  O   UNL     1       4.819   1.912  20.305  0.00  0.00    +0.000 OA
BRANCH  24  26
ATOM     26  O   UNL     1       4.336   0.763  18.421  0.00  0.00    +0.000 OA
ATOM     27  H   UNL     1       3.532   0.582  17.895  0.00  0.00    +0.000 HD
ENDBRANCH  24  26
ENDBRANCH  23  24
ENDBRANCH  16  17
ENDBRANCH  15  16
ENDBRANCH   9  15
TORSDOF 6
ENDMDL
MODEL 3
REMARK VINA RESULT:      -8.0      5.511      7.232
REMARK  Name = 
REMARK  8 active torsions:
REMARK  status: ('A' for Active; 'I' for Inactive)
REMARK    1  A    between atoms: C_1  and  C_2
REMARK    2  A    between atoms: C_2  and  C_3
REMARK    3  A    between atoms: C_9  and  C_10
REMARK    4  A    between atoms: C_11  and  O_12
REMARK    5  A    between atoms: O_12  and  C_13
REMARK    6  A    between atoms: C_13  and  C_14
REMARK    7  A    between atoms: C_20  and  C_21
REMARK    8  A    between atoms: C_21  and  O_23
REMARK                            x       y       z     vdW  Elec       q    Type
REMARK                         _______ _______ _______ _____ _____    ______ ____
ROOT
ATOM      1  C   UNL     1       4.575   4.771  16.700  0.00  0.00    +0.000 A 
ATOM      2  C   UNL     1       4.548   3.455  16.954  0.00  0.00    +0.000 A 
ATOM      3  C   UNL     1       3.772   2.855  18.047  0.00  0.00    +0.000 A 
ATOM      4  O   UNL     1       3.744   1.642  18.209  0.00  0.00    +0.000 OA
ATOM      5  O   UNL     1       3.092   3.731  18.868  0.00  0.00    +0.000 OA
ATOM      6  C   UNL     1       3.093   5.128  18.649  0.00  0.00    +0.000 A 
ATOM      7  C   UNL     1       2.348   5.913  19.546  0.00  0.00    +0.000 A 
ATOM      8  C   UNL     1       1.639   5.273  20.711  0.00  0.00    +0.000 C 
ATOM      9  C   UNL     1       2.267   7.295  19.312  0.00  0.00    +0.000 A 
ATOM     10  C   UNL     1       2.978   7.861  18.249  0.00  0.00    +0.000 A 
ATOM     11  C   UNL     1       3.737   7.057  17.394  0.00  0.00    +0.000 A 
ATOM     12  C   UNL     1       3.802   5.672  17.570  0.00  0.00    +0.000 A 
ENDROOT
BRANCH   1  14
ATOM     13  C   UNL     1       6.094   4.183  14.793  0.00  0.00    +0.000 C 
ATOM     14  C   UNL     1       5.398   5.304  15.552  0.00  0.00    +0.000 C 
ENDBRANCH   1  14
BRANCH   9  15
ATOM     15  O   UNL     1       1.511   8.035  20.182  0.00  0.00    +0.000 OA
BRANCH  15  16
ATOM     16  C   UNL     1       1.266   9.392  19.831  0.00  0.00    +0.000 C 
BRANCH  16  17
ATOM     17  C   UNL     1       0.622  10.299  20.899  0.00  0.00    +0.000 C 
ATOM     18  O   UNL     1       1.009  10.277  22.067  0.00  0.00    +0.000 OA
ATOM     19  N   UNL     1      -0.394  11.149  20.503  0.00  0.00    +0.000 N 
ATOM     20  C   UNL     1      -1.091  11.059  19.234  0.00  0.00    +0.000 C 
ATOM     21  C   UNL     1      -1.910  12.327  19.217  0.00  0.00    +0.000 C 
ATOM     22  C   UNL     1      -2.407  12.409  20.660  0.00  0.00    +0.000 C 
ATOM     23  C   UNL     1      -1.272  11.788  21.504  0.00  0.00    +0.000 C 
BRANCH  23  24
ATOM     24  C   UNL     1      -0.654  12.876  22.386  0.00  0.00    +0.000 C 
ATOM     25  O   UNL     1      -1.225  13.360  23.356  0.00  0.00    +0.000 OA
BRANCH  24  26
ATOM     26  O   UNL     1       0.526  13.353  21.929  0.00  0.00    +0.000 OA
ATOM     27  H   UNL     1       0.666  13.077  21.001  0.00  0.00    +0.000 HD
ENDBRANCH  24  26
ENDBRANCH  23  24
ENDBRANCH  16  17
ENDBRANCH  15  16
ENDBRANCH   9  15
TORSDOF 6
ENDMDL
MODEL 4
REMARK VINA RESULT:      -7.9      2.635      3.338
REMARK  Name = 
REMARK  8 active torsions:
REMARK  status: ('A' for Active; 'I' for Inactive)
REMARK    1  A    between atoms: C_1  and  C_2
REMARK    2  A    between atoms: C_2  and  C_3
REMARK    3  A    between atoms: C_9  and  C_10
REMARK    4  A    between atoms: C_11  and  O_12
REMARK    5  A    between atoms: O_12  and  C_13
REMARK    6  A    between atoms: C_13  and  C_14
REMARK    7  A    between atoms: C_20  and  C_21
REMARK    8  A    between atoms: C_21  and  O_23
REMARK                            x       y       z     vdW  Elec       q    Type
REMARK                         _______ _______ _______ _____ _____    ______ ____
ROOT
ATOM      1  C   UNL     1       6.041   4.038  13.301  0.00  0.00    +0.000 A 
ATOM      2  C   UNL     1       7.168   4.579  12.817  0.00  0.00    +0.000 A 
ATOM      3  C   UNL     1       8.051   5.451  13.601  0.00  0.00    +0.000 A 
ATOM      4  O   UNL     1       9.094   5.883  13.127  0.00  0.00    +0.000 OA
ATOM      5  O   UNL     1       7.637   5.750  14.883  0.00  0.00    +0.000 OA
ATOM      6  C   UNL     1       6.454   5.211  15.440  0.00  0.00    +0.000 A 
ATOM      7  C   UNL     1       6.148   5.580  16.762  0.00  0.00    +0.000 A 
ATOM      8  C   UNL     1       7.029   6.550  17.505  0.00  0.00    +0.000 C 
ATOM      9  C   UNL     1       5.022   5.004  17.369  0.00  0.00    +0.000 A 
ATOM     10  C   UNL     1       4.199   4.145  16.633  0.00  0.00    +0.000 A 
ATOM     11  C   UNL     1       4.513   3.824  15.308  0.00  0.00    +0.000 A 
ATOM     12  C   UNL     1       5.653   4.343  14.688  0.00  0.00    +0.000 A 
ENDROOT
BRANCH   1  14
ATOM     13  C   UNL     1       6.032   2.109  11.699  0.00  0.00    +0.000 C 
ATOM     14  C   UNL     1       5.191   3.148  12.427  0.00  0.00    +0.000 C 
ENDBRANCH   1  14
BRANCH   9  15
ATOM     15  O   UNL     1       4.761   5.354  18.667  0.00  0.00    +0.000 OA
BRANCH  15  16
ATOM     16  C   UNL     1       3.417   5.690  18.988  0.00  0.00    +0.000 C 
BRANCH  16  17
ATOM     17  C   UNL     1       2.952   7.131  18.694  0.00  0.00    +0.000 C 
ATOM     18  O   UNL     1       3.398   7.757  17.733  0.00  0.00    +0.000 OA
ATOM     19  N   UNL     1       2.010   7.694  19.534  0.00  0.00    +0.000 N 
ATOM     20  C   UNL     1       1.630   7.149  20.824  0.00  0.00    +0.000 C 
ATOM     21  C   UNL     1       0.435   7.993  21.200  0.00  0.00    +0.000 C 
ATOM     22  C   UNL     1       0.878   9.389  20.763  0.00  0.00    +0.000 C 
ATOM     23  C   UNL     1       1.770   9.151  19.524  0.00  0.00    +0.000 C 
BRANCH  23  24
ATOM     24  C   UNL     1       1.078   9.739  18.291  0.00  0.00    +0.000 C 
ATOM     25  O   UNL     1      -0.139   9.753  18.146  0.00  0.00    +0.000 OA
BRANCH  24  26
ATOM     26  O   UNL     1       1.927  10.128  17.314  0.00  0.00    +0.000 OA
ATOM     27  H   UNL     1       1.800   9.577  16.516  0.00  0.00    +0.000 HD
ENDBRANCH  24  26
ENDBRANCH  23  24
ENDBRANCH  16  17
ENDBRANCH  15  16
ENDBRANCH   9  15
TORSDOF 6
ENDMDL
MODEL 5
REMARK VINA RESULT:      -7.8      5.372      7.190
REMARK  Name = 
REMARK  8 active torsions:
REMARK  status: ('A' for Active; 'I' for Inactive)
REMARK    1  A    between atoms: C_1  and  C_2
REMARK    2  A    between atoms: C_2  and  C_3
REMARK    3  A    between atoms: C_9  and  C_10
REMARK    4  A    between atoms: C_11  and  O_12
REMARK    5  A    between atoms: O_12  and  C_13
REMARK    6  A    between atoms: C_13  and  C_14
REMARK    7  A    between atoms: C_20  and  C_21
REMARK    8  A    between atoms: C_21  and  O_23
REMARK                            x       y       z     vdW  Elec       q    Type
REMARK                         _______ _______ _______ _____ _____    ______ ____
ROOT
ATOM      1  C   UNL     1       4.662   4.197  16.896  0.00  0.00    +0.000 A 
ATOM      2  C   UNL     1       4.462   2.970  17.399  0.00  0.00    +0.000 A 
ATOM      3  C   UNL     1       3.554   2.692  18.519  0.00  0.00    +0.000 A 
ATOM      4  O   UNL     1       3.371   1.547  18.912  0.00  0.00    +0.000 OA
ATOM      5  O   UNL     1       2.935   3.783  19.092  0.00  0.00    +0.000 OA
ATOM      6  C   UNL     1       3.116   5.098  18.605  0.00  0.00    +0.000 A 
ATOM      7  C   UNL     1       2.417   6.124  19.266  0.00  0.00    +0.000 A 
ATOM      8  C   UNL     1       1.567   5.813  20.469  0.00  0.00    +0.000 C 
ATOM      9  C   UNL     1       2.517   7.429  18.759  0.00  0.00    +0.000 A 
ATOM     10  C   UNL     1       3.355   7.689  17.670  0.00  0.00    +0.000 A 
ATOM     11  C   UNL     1       4.063   6.651  17.055  0.00  0.00    +0.000 A 
ATOM     12  C   UNL     1       3.950   5.333  17.504  0.00  0.00    +0.000 A 
ENDROOT
BRANCH   1  14
ATOM     13  C   UNL     1       7.046   4.573  16.216  0.00  0.00    +0.000 C 
ATOM     14  C   UNL     1       5.612   4.395  15.739  0.00  0.00    +0.000 C 
ENDBRANCH   1  14
BRANCH   9  15
ATOM     15  O   UNL     1       1.803   8.406  19.400  0.00  0.00    +0.000 OA
BRANCH  15  16
ATOM     16  C   UNL     1       1.320   9.481  18.603  0.00  0.00    +0.000 C 
BRANCH  16  17
ATOM     17  C   UNL     1       0.441  10.542  19.295  0.00  0.00    +0.000 C 
ATOM     18  O   UNL     1       0.797  11.073  20.348  0.00  0.00    +0.000 OA
ATOM     19  N   UNL     1      -0.753  10.892  18.692  0.00  0.00    +0.000 N 
ATOM     20  C   UNL     1      -1.376  10.147  17.614  0.00  0.00    +0.000 C 
ATOM     21  C   UNL     1      -2.497  11.064  17.185  0.00  0.00    +0.000 C 
ATOM     22  C   UNL     1      -3.027  11.574  18.523  0.00  0.00    +0.000 C 
ATOM     23  C   UNL     1      -1.787  11.631  19.443  0.00  0.00    +0.000 C 
BRANCH  23  24
ATOM     24  C   UNL     1      -1.491  13.093  19.790  0.00  0.00    +0.000 C 
ATOM     25  O   UNL     1      -1.779  13.600  20.868  0.00  0.00    +0.000 OA
BRANCH  24  26
ATOM     26  O   UNL     1      -0.998  13.816  18.760  0.00  0.00    +0.000 OA
ATOM     27  H   UNL     1      -1.322  13.458  17.910  0.00  0.00    +0.000 HD
ENDBRANCH  24  26
ENDBRANCH  23  24
ENDBRANCH  16  17
ENDBRANCH  15  16
ENDBRANCH   9  15
TORSDOF 6
ENDMDL
MODEL 6
REMARK VINA RESULT:      -7.8      5.080      6.699
REMARK  Name = 
REMARK  8 active torsions:
REMARK  status: ('A' for Active; 'I' for Inactive)
REMARK    1  A    between atoms: C_1  and  C_2
REMARK    2  A    between atoms: C_2  and  C_3
REMARK    3  A    between atoms: C_9  and  C_10
REMARK    4  A    between atoms: C_11  and  O_12
REMARK    5  A    between atoms: O_12  and  C_13
REMARK    6  A    between atoms: C_13  and  C_14
REMARK    7  A    between atoms: C_20  and  C_21
REMARK    8  A    between atoms: C_21  and  O_23
REMARK                            x       y       z     vdW  Elec       q    Type
REMARK                         _______ _______ _______ _____ _____    ______ ____
ROOT
ATOM      1  C   UNL     1       4.635   4.661  16.738  0.00  0.00    +0.000 A 
ATOM      2  C   UNL     1       4.560   3.346  16.990  0.00  0.00    +0.000 A 
ATOM      3  C   UNL     1       3.710   2.768  18.038  0.00  0.00    +0.000 A 
ATOM      4  O   UNL     1       3.642   1.556  18.198  0.00  0.00    +0.000 OA
ATOM      5  O   UNL     1       3.007   3.662  18.820  0.00  0.00    +0.000 OA
ATOM      6  C   UNL     1       3.055   5.057  18.601  0.00  0.00    +0.000 A 
ATOM      7  C   UNL     1       2.282   5.862  19.457  0.00  0.00    +0.000 A 
ATOM      8  C   UNL     1       1.493   5.242  20.579  0.00  0.00    +0.000 C 
ATOM      9  C   UNL     1       2.249   7.245  19.218  0.00  0.00    +0.000 A 
ATOM     10  C   UNL     1       3.032   7.792  18.197  0.00  0.00    +0.000 A 
ATOM     11  C   UNL     1       3.817   6.968  17.385  0.00  0.00    +0.000 A 
ATOM     12  C   UNL     1       3.837   5.582  17.564  0.00  0.00    +0.000 A 
ENDROOT
BRANCH   1  14
ATOM     13  C   UNL     1       5.924   4.062  14.673  0.00  0.00    +0.000 C 
ATOM     14  C   UNL     1       5.533   5.172  15.638  0.00  0.00    +0.000 C 
ENDBRANCH   1  14
BRANCH   9  15
ATOM     15  O   UNL     1       1.464   8.005  20.044  0.00  0.00    +0.000 OA
BRANCH  15  16
ATOM     16  C   UNL     1       1.514   9.415  19.865  0.00  0.00    +0.000 C 
BRANCH  16  17
ATOM     17  C   UNL     1       0.423  10.061  18.985  0.00  0.00    +0.000 C 
ATOM     18  O   UNL     1       0.366   9.835  17.777  0.00  0.00    +0.000 OA
ATOM     19  N   UNL     1      -0.499  10.890  19.597  0.00  0.00    +0.000 N 
ATOM     20  C   UNL     1      -0.360  11.422  20.939  0.00  0.00    +0.000 C 
ATOM     21  C   UNL     1      -1.711  12.050  21.187  0.00  0.00    +0.000 C 
ATOM     22  C   UNL     1      -2.009  12.713  19.843  0.00  0.00    +0.000 C 
ATOM     23  C   UNL     1      -1.347  11.794  18.793  0.00  0.00    +0.000 C 
BRANCH  23  24
ATOM     24  C   UNL     1      -2.439  11.150  17.934  0.00  0.00    +0.000 C 
ATOM     25  O   UNL     1      -2.931  10.056  18.182  0.00  0.00    +0.000 OA
BRANCH  24  26
ATOM     26  O   UNL     1      -2.725  11.832  16.803  0.00  0.00    +0.000 OA
ATOM     27  H   UNL     1      -3.677  11.753  16.592  0.00  0.00    +0.000 HD
ENDBRANCH  24  26
ENDBRANCH  23  24
ENDBRANCH  16  17
ENDBRANCH  15  16
ENDBRANCH   9  15
TORSDOF 6
ENDMDL
MODEL 7
REMARK VINA RESULT:      -7.8      4.691      8.393
REMARK  Name = 
REMARK  8 active torsions:
REMARK  status: ('A' for Active; 'I' for Inactive)
REMARK    1  A    between atoms: C_1  and  C_2
REMARK    2  A    between atoms: C_2  and  C_3
REMARK    3  A    between atoms: C_9  and  C_10
REMARK    4  A    between atoms: C_11  and  O_12
REMARK    5  A    between atoms: O_12  and  C_13
REMARK    6  A    between atoms: C_13  and  C_14
REMARK    7  A    between atoms: C_20  and  C_21
REMARK    8  A    between atoms: C_21  and  O_23
REMARK                            x       y       z     vdW  Elec       q    Type
REMARK                         _______ _______ _______ _____ _____    ______ ____
ROOT
ATOM      1  C   UNL     1       3.498   4.077  17.966  0.00  0.00    +0.000 A 
ATOM      2  C   UNL     1       3.670   3.124  18.892  0.00  0.00    +0.000 A 
ATOM      3  C   UNL     1       4.876   3.007  19.722  0.00  0.00    +0.000 A 
ATOM      4  O   UNL     1       4.965   2.145  20.587  0.00  0.00    +0.000 OA
ATOM      5  O   UNL     1       5.886   3.911  19.465  0.00  0.00    +0.000 OA
ATOM      6  C   UNL     1       5.759   4.932  18.495  0.00  0.00    +0.000 A 
ATOM      7  C   UNL     1       6.853   5.801  18.339  0.00  0.00    +0.000 A 
ATOM      8  C   UNL     1       8.110   5.595  19.142  0.00  0.00    +0.000 C 
ATOM      9  C   UNL     1       6.729   6.870  17.438  0.00  0.00    +0.000 A 
ATOM     10  C   UNL     1       5.566   7.001  16.672  0.00  0.00    +0.000 A 
ATOM     11  C   UNL     1       4.508   6.100  16.828  0.00  0.00    +0.000 A 
ATOM     12  C   UNL     1       4.579   5.053  17.750  0.00  0.00    +0.000 A 
ENDROOT
BRANCH   1  14
ATOM     13  C   UNL     1       1.007   3.797  18.010  0.00  0.00    +0.000 C 
ATOM     14  C   UNL     1       2.224   4.127  17.158  0.00  0.00    +0.000 C 
ENDBRANCH   1  14
BRANCH   9  15
ATOM     15  O   UNL     1       7.796   7.721  17.325  0.00  0.00    +0.000 OA
BRANCH  15  16
ATOM     16  C   UNL     1       7.559   9.095  17.608  0.00  0.00    +0.000 C 
BRANCH  16  17
ATOM     17  C   UNL     1       8.644   9.858  18.394  0.00  0.00    +0.000 C 
ATOM     18  O   UNL     1       9.372   9.277  19.199  0.00  0.00    +0.000 OA
ATOM     19  N   UNL     1       8.786  11.213  18.158  0.00  0.00    +0.000 N 
ATOM     20  C   UNL     1       7.821  12.027  17.443  0.00  0.00    +0.000 C 
ATOM     21  C   UNL     1       8.555  13.335  17.271  0.00  0.00    +0.000 C 
ATOM     22  C   UNL     1       9.237  13.502  18.628  0.00  0.00    +0.000 C 
ATOM     23  C   UNL     1       9.552  12.063  19.092  0.00  0.00    +0.000 C 
BRANCH  23  24
ATOM     24  C   UNL     1      11.071  11.872  19.128  0.00  0.00    +0.000 C 
ATOM     25  O   UNL     1      11.799  12.085  18.165  0.00  0.00    +0.000 OA
BRANCH  24  26
ATOM     26  O   UNL     1      11.532  11.323  20.274  0.00  0.00    +0.000 OA
ATOM     27  H   UNL     1      12.231  11.887  20.662  0.00  0.00    +0.000 HD
ENDBRANCH  24  26
ENDBRANCH  23  24
ENDBRANCH  16  17
ENDBRANCH  15  16
ENDBRANCH   9  15
TORSDOF 6
ENDMDL
MODEL 8
REMARK VINA RESULT:      -7.7      5.578      7.543
REMARK  Name = 
REMARK  8 active torsions:
REMARK  status: ('A' for Active; 'I' for Inactive)
REMARK    1  A    between atoms: C_1  and  C_2
REMARK    2  A    between atoms: C_2  and  C_3
REMARK    3  A    between atoms: C_9  and  C_10
REMARK    4  A    between atoms: C_11  and  O_12
REMARK    5  A    between atoms: O_12  and  C_13
REMARK    6  A    between atoms: C_13  and  C_14
REMARK    7  A    between atoms: C_20  and  C_21
REMARK    8  A    between atoms: C_21  and  O_23
REMARK                            x       y       z     vdW  Elec       q    Type
REMARK                         _______ _______ _______ _____ _____    ______ ____
ROOT
ATOM      1  C   UNL     1       4.510   4.787  16.776  0.00  0.00    +0.000 A 
ATOM      2  C   UNL     1       4.460   3.483  17.084  0.00  0.00    +0.000 A 
ATOM      3  C   UNL     1       3.682   2.944  18.206  0.00  0.00    +0.000 A 
ATOM      4  O   UNL     1       3.633   1.739  18.417  0.00  0.00    +0.000 OA
ATOM      5  O   UNL     1       3.026   3.865  18.996  0.00  0.00    +0.000 OA
ATOM      6  C   UNL     1       3.051   5.251  18.720  0.00  0.00    +0.000 A 
ATOM      7  C   UNL     1       2.329   6.086  19.591  0.00  0.00    +0.000 A 
ATOM      8  C   UNL     1       1.618   5.508  20.786  0.00  0.00    +0.000 C 
ATOM      9  C   UNL     1       2.272   7.458  19.301  0.00  0.00    +0.000 A 
ATOM     10  C   UNL     1       2.984   7.968  18.211  0.00  0.00    +0.000 A 
ATOM     11  C   UNL     1       3.720   7.115  17.383  0.00  0.00    +0.000 A 
ATOM     12  C   UNL     1       3.761   5.737  17.615  0.00  0.00    +0.000 A 
ENDROOT
BRANCH   1  14
ATOM     13  C   UNL     1       6.809   4.937  15.787  0.00  0.00    +0.000 C 
ATOM     14  C   UNL     1       5.333   5.258  15.602  0.00  0.00    +0.000 C 
ENDBRANCH   1  14
BRANCH   9  15
ATOM     15  O   UNL     1       1.537   8.247  20.146  0.00  0.00    +0.000 OA
BRANCH  15  16
ATOM     16  C   UNL     1       0.932   9.406  19.585  0.00  0.00    +0.000 C 
BRANCH  16  17
ATOM     17  C   UNL     1       0.844  10.665  20.471  0.00  0.00    +0.000 C 
ATOM     18  O   UNL     1       1.208  10.639  21.647  0.00  0.00    +0.000 OA
ATOM     19  N   UNL     1       0.357  11.828  19.903  0.00  0.00    +0.000 N 
ATOM     20  C   UNL     1      -0.334  11.892  18.630  0.00  0.00    +0.000 C 
ATOM     21  C   UNL     1      -0.434  13.378  18.383  0.00  0.00    +0.000 C 
ATOM     22  C   UNL     1      -0.783  13.912  19.771  0.00  0.00    +0.000 C 
ATOM     23  C   UNL     1      -0.068  12.958  20.753  0.00  0.00    +0.000 C 
BRANCH  23  24
ATOM     24  C   UNL     1       1.029  13.732  21.490  0.00  0.00    +0.000 C 
ATOM     25  O   UNL     1       0.808  14.461  22.450  0.00  0.00    +0.000 OA
BRANCH  24  26
ATOM     26  O   UNL     1       2.248  13.646  20.913  0.00  0.00    +0.000 OA
ATOM     27  H   UNL     1       2.221  13.031  20.154  0.00  0.00    +0.000 HD
ENDBRANCH  24  26
ENDBRANCH  23  24
ENDBRANCH  16  17
ENDBRANCH  15  16
ENDBRANCH   9  15
TORSDOF 6
ENDMDL
MODEL 9
REMARK VINA RESULT:      -7.7      3.168      7.495
REMARK  Name = 
REMARK  8 active torsions:
REMARK  status: ('A' for Active; 'I' for Inactive)
REMARK    1  A    between atoms: C_1  and  C_2
REMARK    2  A    between atoms: C_2  and  C_3
REMARK    3  A    between atoms: C_9  and  C_10
REMARK    4  A    between atoms: C_11  and  O_12
REMARK    5  A    between atoms: O_12  and  C_13
REMARK    6  A    between atoms: C_13  and  C_14
REMARK    7  A    between atoms: C_20  and  C_21
REMARK    8  A    between atoms: C_21  and  O_23
REMARK                            x       y       z     vdW  Elec       q    Type
REMARK                         _______ _______ _______ _____ _____    ______ ____
ROOT
ATOM      1  C   UNL     1       1.647   8.921  19.129  0.00  0.00    +0.000 A 
ATOM      2  C   UNL     1       1.367   9.395  20.351  0.00  0.00    +0.000 A 
ATOM      3  C   UNL     1       1.279   8.550  21.548  0.00  0.00    +0.000 A 
ATOM      4  O   UNL     1       1.066   9.038  22.651  0.00  0.00    +0.000 OA
ATOM      5  O   UNL     1       1.444   7.194  21.354  0.00  0.00    +0.000 OA
ATOM      6  C   UNL     1       1.733   6.641  20.086  0.00  0.00    +0.000 A 
ATOM      7  C   UNL     1       1.894   5.246  20.021  0.00  0.00    +0.000 A 
ATOM      8  C   UNL     1       1.705   4.399  21.252  0.00  0.00    +0.000 C 
ATOM      9  C   UNL     1       2.256   4.675  18.791  0.00  0.00    +0.000 A 
ATOM     10  C   UNL     1       2.375   5.485  17.657  0.00  0.00    +0.000 A 
ATOM     11  C   UNL     1       2.176   6.866  17.748  0.00  0.00    +0.000 A 
ATOM     12  C   UNL     1       1.861   7.474  18.966  0.00  0.00    +0.000 A 
ENDROOT
BRANCH   1  14
ATOM     13  C   UNL     1       1.731  11.317  18.395  0.00  0.00    +0.000 C 
ATOM     14  C   UNL     1       1.722   9.862  17.950  0.00  0.00    +0.000 C 
ENDBRANCH   1  14
BRANCH   9  15
ATOM     15  O   UNL     1       2.438   3.317  18.759  0.00  0.00    +0.000 OA
BRANCH  15  16
ATOM     16  C   UNL     1       3.673   2.843  18.238  0.00  0.00    +0.000 C 
BRANCH  16  17
ATOM     17  C   UNL     1       4.939   3.670  18.541  0.00  0.00    +0.000 C 
ATOM     18  O   UNL     1       5.337   3.820  19.696  0.00  0.00    +0.000 OA
ATOM     19  N   UNL     1       5.624   4.225  17.476  0.00  0.00    +0.000 N 
ATOM     20  C   UNL     1       5.099   4.329  16.128  0.00  0.00    +0.000 C 
ATOM     21  C   UNL     1       6.304   4.782  15.338  0.00  0.00    +0.000 C 
ATOM     22  C   UNL     1       6.937   5.807  16.277  0.00  0.00    +0.000 C 
ATOM     23  C   UNL     1       6.626   5.287  17.698  0.00  0.00    +0.000 C 
BRANCH  23  24
ATOM     24  C   UNL     1       7.937   4.882  18.379  0.00  0.00    +0.000 C 
ATOM     25  O   UNL     1       8.699   4.038  17.921  0.00  0.00    +0.000 OA
BRANCH  24  26
ATOM     26  O   UNL     1       8.123   5.440  19.595  0.00  0.00    +0.000 OA
ATOM     27  H   UNL     1       8.289   6.400  19.506  0.00  0.00    +0.000 HD
ENDBRANCH  24  26
ENDBRANCH  23  24
ENDBRANCH  16  17
ENDBRANCH  15  16
ENDBRANCH   9  15
TORSDOF 6
ENDMDL
