MODEL 1
REMARK VINA RESULT:      -8.2      0.000      0.000
REMARK  Name = 
REMARK  8 active torsions:
REMARK  status: ('A' for Active; 'I' for Inactive)
REMARK    1  A    between atoms: C_1  and  C_2
REMARK    2  A    between atoms: C_4  and  N_5
REMARK    3  A    between atoms: N_5  and  S_6
REMARK    4  A    between atoms: S_6  and  C_9
REMARK    5  A    between atoms: N_19  and  C_20
REMARK    6  A    between atoms: C_20  and  C_21
REMARK    7  A    between atoms: C_21  and  C_22
REMARK    8  A    between atoms: C_22  and  C_23
REMARK                            x       y       z     vdW  Elec       q    Type
REMARK                         _______ _______ _______ _____ _____    ______ ____
ROOT
ATOM      1  C   UNL     1       6.793   4.744  15.176  0.00  0.00    +0.000 C 
ATOM      2  C   UNL     1       6.060   5.491  16.295  0.00  0.00    +0.000 C 
ATOM      3  C   UNL     1       5.095   4.562  17.050  0.00  0.00    +0.000 C 
ATOM      4  C   UNL     1       5.290   4.870  18.535  0.00  0.00    +0.000 C 
ATOM      5  C   UNL     1       6.760   5.278  18.542  0.00  0.00    +0.000 C 
ATOM      6  N   UNL     1       7.029   6.000  17.286  0.00  0.00    +0.000 NA
ENDROOT
BRANCH   4   7
ATOM      7  N   UNL     1       4.392   5.957  19.021  0.00  0.00    +0.000 NA
ATOM      8  H   UNL     1       4.755   6.492  19.809  0.00  0.00    +0.000 HD
BRANCH   7   9
ATOM      9  S   UNL     1       2.763   5.549  19.344  0.00  0.00    +0.000 S 
ATOM     10  O   UNL     1       2.067   5.275  18.119  0.00  0.00    +0.000 OA
ATOM     11  O   UNL     1       2.803   4.603  20.442  0.00  0.00    +0.000 OA
BRANCH   9  12
ATOM     12  C   UNL     1       1.919   6.906  19.985  0.00  0.00    +0.000 A 
ATOM     13  C   UNL     1       1.290   6.862  21.213  0.00  0.00    +0.000 A 
ATOM     14  S   UNL     1       0.594   8.351  21.621  0.00  0.00    +0.000 S 
ATOM     15  C   UNL     1       1.113   9.088  20.151  0.00  0.00    +0.000 A 
ATOM     16  C   UNL     1       0.875  10.422  19.763  0.00  0.00    +0.000 A 
ATOM     17  C   UNL     1       1.357  10.873  18.535  0.00  0.00    +0.000 A 
ATOM     18  C   UNL     1       2.056  10.010  17.702  0.00  0.00    +0.000 A 
ATOM     19  C   UNL     1       2.289   8.684  18.089  0.00  0.00    +0.000 A 
ATOM     20  C   UNL     1       1.819   8.194  19.340  0.00  0.00    +0.000 A 
ENDBRANCH   9  12
ENDBRANCH   7   9
ENDBRANCH   4   7
BRANCH   6  21
ATOM     21  C   UNL     1       6.960   7.465  17.439  0.00  0.00    +0.000 C 
BRANCH  21  22
ATOM     22  C   UNL     1       8.199   8.084  18.101  0.00  0.00    +0.000 C 
BRANCH  22  23
ATOM     23  C   UNL     1       8.430   9.524  17.650  0.00  0.00    +0.000 C 
BRANCH  23  24
ATOM     24  C   UNL     1       9.101  10.331  18.703  0.00  0.00    +0.000 A 
ATOM     25  N   UNL     1       8.945  10.016  19.997  0.00  0.00    +0.000 NA
ATOM     26  O   UNL     1       9.672  10.961  20.702  0.00  0.00    +0.000 OA
ATOM     27  C   UNL     1      10.257  11.827  19.832  0.00  0.00    +0.000 A 
ATOM     28  C   UNL     1      11.055  12.914  20.170  0.00  0.00    +0.000 A 
ATOM     29  C   UNL     1      11.550  13.649  19.096  0.00  0.00    +0.000 A 
ATOM     30  F   UNL     1      12.330  14.712  19.343  0.00  0.00    +0.000 F 
ATOM     31  C   UNL     1      11.265  13.320  17.770  0.00  0.00    +0.000 A 
ATOM     32  C   UNL     1      10.449  12.221  17.468  0.00  0.00    +0.000 A 
ATOM     33  C   UNL     1       9.935  11.464  18.537  0.00  0.00    +0.000 A 
ENDBRANCH  23  24
ENDBRANCH  22  23
ENDBRANCH  21  22
ENDBRANCH   6  21
TORSDOF 7
ENDMDL
MODEL 2
REMARK VINA RESULT:      -7.8      8.943     12.850
REMARK  Name = 
REMARK  8 active torsions:
REMARK  status: ('A' for Active; 'I' for Inactive)
REMARK    1  A    between atoms: C_1  and  C_2
REMARK    2  A    between atoms: C_4  and  N_5
REMARK    3  A    between atoms: N_5  and  S_6
REMARK    4  A    between atoms: S_6  and  C_9
REMARK    5  A    between atoms: N_19  and  C_20
REMARK    6  A    between atoms: C_20  and  C_21
REMARK    7  A    between atoms: C_21  and  C_22
REMARK    8  A    between atoms: C_22  and  C_23
REMARK                            x       y       z     vdW  Elec       q    Type
REMARK                         _______ _______ _______ _____ _____    ______ ____
ROOT
ATOM      1  C   UNL     1      -2.415  10.447  16.007  0.00  0.00    +0.000 C 
ATOM      2  C   UNL     1      -2.407  10.440  17.539  0.00  0.00    +0.000 C 
ATOM      3  C   UNL     1      -0.975  10.365  18.092  0.00  0.00    +0.000 C 
ATOM      4  C   UNL     1      -0.912  11.376  19.238  0.00  0.00    +0.000 C 
ATOM      5  C   UNL     1      -1.919  12.411  18.748  0.00  0.00    +0.000 C 
ATOM      6  N   UNL     1      -3.002  11.689  18.056  0.00  0.00    +0.000 NA
ENDROOT
BRANCH   4   7
ATOM      7  N   UNL     1      -1.294  10.783  20.551  0.00  0.00    +0.000 NA
ATOM      8  H   UNL     1      -2.285  10.852  20.780  0.00  0.00    +0.000 HD
BRANCH   7   9
ATOM      9  S   UNL     1      -0.384  11.249  21.922  0.00  0.00    +0.000 S 
ATOM     10  O   UNL     1      -0.816  10.516  23.078  0.00  0.00    +0.000 OA
ATOM     11  O   UNL     1       0.999  11.272  21.490  0.00  0.00    +0.000 OA
BRANCH   9  12
ATOM     12  C   UNL     1      -0.723  12.885  22.340  0.00  0.00    +0.000 A 
ATOM     13  C   UNL     1       0.149  13.912  22.038  0.00  0.00    +0.000 A 
ATOM     14  S   UNL     1      -0.463  15.420  22.508  0.00  0.00    +0.000 S 
ATOM     15  C   UNL     1      -1.911  14.727  23.137  0.00  0.00    +0.000 A 
ATOM     16  C   UNL     1      -2.974  15.430  23.740  0.00  0.00    +0.000 A 
ATOM     17  C   UNL     1      -4.082  14.726  24.207  0.00  0.00    +0.000 A 
ATOM     18  C   UNL     1      -4.130  13.343  24.086  0.00  0.00    +0.000 A 
ATOM     19  C   UNL     1      -3.071  12.646  23.489  0.00  0.00    +0.000 A 
ATOM     20  C   UNL     1      -1.929  13.336  22.994  0.00  0.00    +0.000 A 
ENDBRANCH   9  12
ENDBRANCH   7   9
ENDBRANCH   4   7
BRANCH   6  21
ATOM     21  C   UNL     1      -4.171  11.441  18.920  0.00  0.00    +0.000 C 
BRANCH  21  22
ATOM     22  C   UNL     1      -5.285  10.628  18.246  0.00  0.00    +0.000 C 
BRANCH  22  23
ATOM     23  C   UNL     1      -6.668  11.207  18.532  0.00  0.00    +0.000 C 
BRANCH  23  24
ATOM     24  C   UNL     1      -7.043  11.059  19.963  0.00  0.00    +0.000 A 
ATOM     25  N   UNL     1      -7.309   9.846  20.469  0.00  0.00    +0.000 NA
ATOM     26  O   UNL     1      -7.638  10.059  21.798  0.00  0.00    +0.000 OA
ATOM     27  C   UNL     1      -7.564  11.387  22.077  0.00  0.00    +0.000 A 
ATOM     28  C   UNL     1      -7.834  11.984  23.304  0.00  0.00    +0.000 A 
ATOM     29  C   UNL     1      -7.676  13.367  23.345  0.00  0.00    +0.000 A 
ATOM     30  F   UNL     1      -7.916  14.012  24.495  0.00  0.00    +0.000 F 
ATOM     31  C   UNL     1      -7.275  14.106  22.231  0.00  0.00    +0.000 A 
ATOM     32  C   UNL     1      -7.019  13.472  21.008  0.00  0.00    +0.000 A 
ATOM     33  C   UNL     1      -7.175  12.075  20.941  0.00  0.00    +0.000 A 
ENDBRANCH  23  24
ENDBRANCH  22  23
ENDBRANCH  21  22
ENDBRANCH   6  21
TORSDOF 7
ENDMDL
MODEL 3
REMARK VINA RESULT:      -7.8      5.271      8.770
REMARK  Name = 
REMARK  8 active torsions:
REMARK  status: ('A' for Active; 'I' for Inactive)
REMARK    1  A    between atoms: C_1  and  C_2
REMARK    2  A    between atoms: C_4  and  N_5
REMARK    3  A    between atoms: N_5  and  S_6
REMARK    4  A    between atoms: S_6  and  C_9
REMARK    5  A    between atoms: N_19  and  C_20
REMARK    6  A    between atoms: C_20  and  C_21
REMARK    7  A    between atoms: C_21  and  C_22
REMARK    8  A    between atoms: C_22  and  C_23
REMARK                            x       y       z     vdW  Elec       q    Type
REMARK                         _______ _______ _______ _____ _____    ______ ____
ROOT
ATOM      1  C   UNL     1      -1.993  10.543  17.351  0.00  0.00    +0.000 C 
ATOM      2  C   UNL     1      -0.831  11.072  18.198  0.00  0.00    +0.000 C 
ATOM      3  C   UNL     1      -1.332  11.986  19.329  0.00  0.00    +0.000 C 
ATOM      4  C   UNL     1      -0.552  11.576  20.578  0.00  0.00    +0.000 C 
ATOM      5  C   UNL     1      -0.327  10.095  20.290  0.00  0.00    +0.000 C 
ATOM      6  N   UNL     1      -0.117   9.949  18.839  0.00  0.00    +0.000 NA
ENDROOT
BRANCH   4   7
ATOM      7  N   UNL     1       0.725  12.330  20.733  0.00  0.00    +0.000 NA
ATOM      8  H   UNL     1       1.466  11.823  21.217  0.00  0.00    +0.000 HD
BRANCH   7   9
ATOM      9  S   UNL     1       0.635  13.910  21.380  0.00  0.00    +0.000 S 
ATOM     10  O   UNL     1      -0.683  14.165  21.888  0.00  0.00    +0.000 OA
ATOM     11  O   UNL     1       1.824  14.074  22.192  0.00  0.00    +0.000 OA
BRANCH   9  12
ATOM     12  C   UNL     1       0.812  15.082  20.131  0.00  0.00    +0.000 A 
ATOM     13  C   UNL     1      -0.130  16.068  19.915  0.00  0.00    +0.000 A 
ATOM     14  S   UNL     1       0.328  17.118  18.666  0.00  0.00    +0.000 S 
ATOM     15  C   UNL     1       1.799  16.265  18.380  0.00  0.00    +0.000 A 
ATOM     16  C   UNL     1       2.768  16.587  17.408  0.00  0.00    +0.000 A 
ATOM     17  C   UNL     1       3.909  15.796  17.293  0.00  0.00    +0.000 A 
ATOM     18  C   UNL     1       4.082  14.697  18.124  0.00  0.00    +0.000 A 
ATOM     19  C   UNL     1       3.116  14.378  19.088  0.00  0.00    +0.000 A 
ATOM     20  C   UNL     1       1.943  15.170  19.237  0.00  0.00    +0.000 A 
ENDBRANCH   9  12
ENDBRANCH   7   9
ENDBRANCH   4   7
BRANCH   6  21
ATOM     21  C   UNL     1       1.309   9.903  18.466  0.00  0.00    +0.000 C 
BRANCH  21  22
ATOM     22  C   UNL     1       1.765   8.549  17.903  0.00  0.00    +0.000 C 
BRANCH  22  23
ATOM     23  C   UNL     1       2.430   7.682  18.968  0.00  0.00    +0.000 C 
BRANCH  23  24
ATOM     24  C   UNL     1       2.772   6.332  18.445  0.00  0.00    +0.000 A 
ATOM     25  N   UNL     1       2.082   5.257  18.849  0.00  0.00    +0.000 NA
ATOM     26  O   UNL     1       2.658   4.177  18.200  0.00  0.00    +0.000 OA
ATOM     27  C   UNL     1       3.680   4.610  17.415  0.00  0.00    +0.000 A 
ATOM     28  C   UNL     1       4.499   3.815  16.622  0.00  0.00    +0.000 A 
ATOM     29  C   UNL     1       5.474   4.495  15.897  0.00  0.00    +0.000 A 
ATOM     30  F   UNL     1       6.301   3.795  15.107  0.00  0.00    +0.000 F 
ATOM     31  C   UNL     1       5.622   5.882  15.962  0.00  0.00    +0.000 A 
ATOM     32  C   UNL     1       4.783   6.651  16.780  0.00  0.00    +0.000 A 
ATOM     33  C   UNL     1       3.791   5.985  17.523  0.00  0.00    +0.000 A 
ENDBRANCH  23  24
ENDBRANCH  22  23
ENDBRANCH  21  22
ENDBRANCH   6  21
TORSDOF 7
ENDMDL
MODEL 4
REMARK VINA RESULT:      -7.7      5.338      8.954
REMARK  Name = 
REMARK  8 active torsions:
REMARK  status: ('A' for Active; 'I' for Inactive)
REMARK    1  A    between atoms: C_1  and  C_2
REMARK    2  A    between atoms: C_4  and  N_5
REMARK    3  A    between atoms: N_5  and  S_6
REMARK    4  A    between atoms: S_6  and  C_9
REMARK    5  A    between atoms: N_19  and  C_20
REMARK    6  A    between atoms: C_20  and  C_21
REMARK    7  A    between atoms: C_21  and  C_22
REMARK    8  A    between atoms: C_22  and  C_23
REMARK                            x       y       z     vdW  Elec       q    Type
REMARK                         _______ _______ _______ _____ _____    ______ ____
ROOT
ATOM      1  C   UNL     1      -2.785  11.166  18.213  0.00  0.00    +0.000 C 
ATOM      2  C   UNL     1      -1.317  11.483  18.516  0.00  0.00    +0.000 C 
ATOM      3  C   UNL     1      -1.190  12.555  19.611  0.00  0.00    +0.000 C 
ATOM      4  C   UNL     1      -0.088  12.067  20.553  0.00  0.00    +0.000 C 
ATOM      5  C   UNL     1      -0.255  10.558  20.414  0.00  0.00    +0.000 C 
ATOM      6  N   UNL     1      -0.629  10.276  19.017  0.00  0.00    +0.000 NA
ENDROOT
BRANCH   4   7
ATOM      7  N   UNL     1       1.267  12.534  20.143  0.00  0.00    +0.000 NA
ATOM      8  H   UNL     1       1.982  11.806  20.120  0.00  0.00    +0.000 HD
BRANCH   7   9
ATOM      9  S   UNL     1       1.908  13.900  20.948  0.00  0.00    +0.000 S 
ATOM     10  O   UNL     1       0.893  14.528  21.745  0.00  0.00    +0.000 OA
ATOM     11  O   UNL     1       3.177  13.473  21.503  0.00  0.00    +0.000 OA
BRANCH   9  12
ATOM     12  C   UNL     1       2.334  15.122  19.811  0.00  0.00    +0.000 A 
ATOM     13  C   UNL     1       3.644  15.357  19.447  0.00  0.00    +0.000 A 
ATOM     14  S   UNL     1       3.766  16.569  18.271  0.00  0.00    +0.000 S 
ATOM     15  C   UNL     1       2.060  16.816  18.231  0.00  0.00    +0.000 A 
ATOM     16  C   UNL     1       1.375  17.746  17.423  0.00  0.00    +0.000 A 
ATOM     17  C   UNL     1      -0.014  17.831  17.508  0.00  0.00    +0.000 A 
ATOM     18  C   UNL     1      -0.710  17.012  18.387  0.00  0.00    +0.000 A 
ATOM     19  C   UNL     1      -0.026  16.090  19.190  0.00  0.00    +0.000 A 
ATOM     20  C   UNL     1       1.390  15.972  19.123  0.00  0.00    +0.000 A 
ENDBRANCH   9  12
ENDBRANCH   7   9
ENDBRANCH   4   7
BRANCH   6  21
ATOM     21  C   UNL     1       0.523   9.897  18.178  0.00  0.00    +0.000 C 
BRANCH  21  22
ATOM     22  C   UNL     1       1.509   8.941  18.866  0.00  0.00    +0.000 C 
BRANCH  22  23
ATOM     23  C   UNL     1       2.685   8.584  17.961  0.00  0.00    +0.000 C 
BRANCH  23  24
ATOM     24  C   UNL     1       2.993   7.130  18.006  0.00  0.00    +0.000 A 
ATOM     25  N   UNL     1       2.355   6.331  18.872  0.00  0.00    +0.000 NA
ATOM     26  O   UNL     1       2.881   5.065  18.672  0.00  0.00    +0.000 OA
ATOM     27  C   UNL     1       3.821   5.114  17.691  0.00  0.00    +0.000 A 
ATOM     28  C   UNL     1       4.573   4.042  17.222  0.00  0.00    +0.000 A 
ATOM     29  C   UNL     1       5.469   4.342  16.199  0.00  0.00    +0.000 A 
ATOM     30  F   UNL     1       6.228   3.359  15.694  0.00  0.00    +0.000 F 
ATOM     31  C   UNL     1       5.606   5.630  15.680  0.00  0.00    +0.000 A 
ATOM     32  C   UNL     1       4.837   6.688  16.183  0.00  0.00    +0.000 A 
ATOM     33  C   UNL     1       3.926   6.410  17.219  0.00  0.00    +0.000 A 
ENDBRANCH  23  24
ENDBRANCH  22  23
ENDBRANCH  21  22
ENDBRANCH   6  21
TORSDOF 7
ENDMDL
MODEL 5
REMARK VINA RESULT:      -7.7      5.914      9.595
REMARK  Name = 
REMARK  8 active torsions:
REMARK  status: ('A' for Active; 'I' for Inactive)
REMARK    1  A    between atoms: C_1  and  C_2
REMARK    2  A    between atoms: C_4  and  N_5
REMARK    3  A    between atoms: N_5  and  S_6
REMARK    4  A    between atoms: S_6  and  C_9
REMARK    5  A    between atoms: N_19  and  C_20
REMARK    6  A    between atoms: C_20  and  C_21
REMARK    7  A    between atoms: C_21  and  C_22
REMARK    8  A    between atoms: C_22  and  C_23
REMARK                            x       y       z     vdW  Elec       q    Type
REMARK                         _______ _______ _______ _____ _____    ______ ____
ROOT
ATOM      1  C   UNL     1       0.399   9.450  17.865  0.00  0.00    +0.000 C 
ATOM      2  C   UNL     1       0.739  10.231  19.139  0.00  0.00    +0.000 C 
ATOM      3  C   UNL     1       0.861  11.737  18.856  0.00  0.00    +0.000 C 
ATOM      4  C   UNL     1       0.121  12.441  19.994  0.00  0.00    +0.000 C 
ATOM      5  C   UNL     1      -0.944  11.399  20.317  0.00  0.00    +0.000 C 
ATOM      6  N   UNL     1      -0.338  10.069  20.137  0.00  0.00    +0.000 NA
ENDROOT
BRANCH   4   7
ATOM      7  N   UNL     1       1.005  12.736  21.159  0.00  0.00    +0.000 NA
ATOM      8  H   UNL     1       0.876  12.119  21.961  0.00  0.00    +0.000 HD
BRANCH   7   9
ATOM      9  S   UNL     1       1.059  14.352  21.718  0.00  0.00    +0.000 S 
ATOM     10  O   UNL     1      -0.155  14.679  22.409  0.00  0.00    +0.000 OA
ATOM     11  O   UNL     1       2.365  14.517  22.323  0.00  0.00    +0.000 OA
BRANCH   9  12
ATOM     12  C   UNL     1       1.068  15.447  20.389  0.00  0.00    +0.000 A 
ATOM     13  C   UNL     1       0.120  16.442  20.257  0.00  0.00    +0.000 A 
ATOM     14  S   UNL     1       0.404  17.409  18.895  0.00  0.00    +0.000 S 
ATOM     15  C   UNL     1       1.802  16.506  18.445  0.00  0.00    +0.000 A 
ATOM     16  C   UNL     1       2.621  16.749  17.324  0.00  0.00    +0.000 A 
ATOM     17  C   UNL     1       3.720  15.925  17.089  0.00  0.00    +0.000 A 
ATOM     18  C   UNL     1       3.997  14.870  17.949  0.00  0.00    +0.000 A 
ATOM     19  C   UNL     1       3.179  14.630  19.062  0.00  0.00    +0.000 A 
ATOM     20  C   UNL     1       2.055  15.457  19.335  0.00  0.00    +0.000 A 
ENDBRANCH   9  12
ENDBRANCH   7   9
ENDBRANCH   4   7
BRANCH   6  21
ATOM     21  C   UNL     1       0.150   9.484  21.400  0.00  0.00    +0.000 C 
BRANCH  21  22
ATOM     22  C   UNL     1       1.439   8.663  21.252  0.00  0.00    +0.000 C 
BRANCH  22  23
ATOM     23  C   UNL     1       1.160   7.164  21.197  0.00  0.00    +0.000 C 
BRANCH  23  24
ATOM     24  C   UNL     1       1.846   6.516  20.048  0.00  0.00    +0.000 A 
ATOM     25  N   UNL     1       2.667   7.229  19.263  0.00  0.00    +0.000 NA
ATOM     26  O   UNL     1       3.117   6.347  18.294  0.00  0.00    +0.000 OA
ATOM     27  C   UNL     1       2.569   5.121  18.505  0.00  0.00    +0.000 A 
ATOM     28  C   UNL     1       2.777   3.985  17.731  0.00  0.00    +0.000 A 
ATOM     29  C   UNL     1       2.111   2.840  18.157  0.00  0.00    +0.000 A 
ATOM     30  F   UNL     1       2.265   1.704  17.461  0.00  0.00    +0.000 F 
ATOM     31  C   UNL     1       1.287   2.830  19.284  0.00  0.00    +0.000 A 
ATOM     32  C   UNL     1       1.094   3.996  20.036  0.00  0.00    +0.000 A 
ATOM     33  C   UNL     1       1.756   5.168  19.624  0.00  0.00    +0.000 A 
ENDBRANCH  23  24
ENDBRANCH  22  23
ENDBRANCH  21  22
ENDBRANCH   6  21
TORSDOF 7
ENDMDL
MODEL 6
REMARK VINA RESULT:      -7.7      5.716      9.366
REMARK  Name = 
REMARK  8 active torsions:
REMARK  status: ('A' for Active; 'I' for Inactive)
REMARK    1  A    between atoms: C_1  and  C_2
REMARK    2  A    between atoms: C_4  and  N_5
REMARK    3  A    between atoms: N_5  and  S_6
REMARK    4  A    between atoms: S_6  and  C_9
REMARK    5  A    between atoms: N_19  and  C_20
REMARK    6  A    between atoms: C_20  and  C_21
REMARK    7  A    between atoms: C_21  and  C_22
REMARK    8  A    between atoms: C_22  and  C_23
REMARK                            x       y       z     vdW  Elec       q    Type
REMARK                         _______ _______ _______ _____ _____    ______ ____
ROOT
ATOM      1  C   UNL     1      -1.519  10.043  17.568  0.00  0.00    +0.000 C 
ATOM      2  C   UNL     1      -0.305  10.599  18.321  0.00  0.00    +0.000 C 
ATOM      3  C   UNL     1      -0.472  12.097  18.623  0.00  0.00    +0.000 C 
ATOM      4  C   UNL     1      -0.016  12.289  20.070  0.00  0.00    +0.000 C 
ATOM      5  C   UNL     1      -0.392  10.933  20.659  0.00  0.00    +0.000 C 
ATOM      6  N   UNL     1      -0.157   9.914  19.621  0.00  0.00    +0.000 NA
ENDROOT
BRANCH   4   7
ATOM      7  N   UNL     1       1.443  12.577  20.181  0.00  0.00    +0.000 NA
ATOM      8  H   UNL     1       2.003  11.811  20.553  0.00  0.00    +0.000 HD
BRANCH   7   9
ATOM      9  S   UNL     1       1.903  14.022  20.970  0.00  0.00    +0.000 S 
ATOM     10  O   UNL     1       0.768  14.620  21.615  0.00  0.00    +0.000 OA
ATOM     11  O   UNL     1       3.126  13.712  21.683  0.00  0.00    +0.000 OA
BRANCH   9  12
ATOM     12  C   UNL     1       2.376  15.212  19.818  0.00  0.00    +0.000 A 
ATOM     13  C   UNL     1       3.701  15.439  19.504  0.00  0.00    +0.000 A 
ATOM     14  S   UNL     1       3.872  16.617  18.299  0.00  0.00    +0.000 S 
ATOM     15  C   UNL     1       2.169  16.858  18.179  0.00  0.00    +0.000 A 
ATOM     16  C   UNL     1       1.518  17.763  17.315  0.00  0.00    +0.000 A 
ATOM     17  C   UNL     1       0.127  17.847  17.337  0.00  0.00    +0.000 A 
ATOM     18  C   UNL     1      -0.606  17.053  18.209  0.00  0.00    +0.000 A 
ATOM     19  C   UNL     1       0.044  16.157  19.068  0.00  0.00    +0.000 A 
ATOM     20  C   UNL     1       1.462  16.039  19.065  0.00  0.00    +0.000 A 
ENDBRANCH   9  12
ENDBRANCH   7   9
ENDBRANCH   4   7
BRANCH   6  21
ATOM     21  C   UNL     1       1.151   9.245  19.758  0.00  0.00    +0.000 C 
BRANCH  21  22
ATOM     22  C   UNL     1       1.868   8.996  18.423  0.00  0.00    +0.000 C 
BRANCH  22  23
ATOM     23  C   UNL     1       1.508   7.640  17.823  0.00  0.00    +0.000 C 
BRANCH  23  24
ATOM     24  C   UNL     1       2.649   6.689  17.885  0.00  0.00    +0.000 A 
ATOM     25  N   UNL     1       3.908   7.147  17.929  0.00  0.00    +0.000 NA
ATOM     26  O   UNL     1       4.715   6.021  17.959  0.00  0.00    +0.000 OA
ATOM     27  C   UNL     1       3.939   4.905  17.938  0.00  0.00    +0.000 A 
ATOM     28  C   UNL     1       4.393   3.591  17.948  0.00  0.00    +0.000 A 
ATOM     29  C   UNL     1       3.400   2.615  17.933  0.00  0.00    +0.000 A 
ATOM     30  F   UNL     1       3.761   1.323  17.943  0.00  0.00    +0.000 F 
ATOM     31  C   UNL     1       2.041   2.932  17.908  0.00  0.00    +0.000 A 
ATOM     32  C   UNL     1       1.620   4.268  17.891  0.00  0.00    +0.000 A 
ATOM     33  C   UNL     1       2.606   5.273  17.904  0.00  0.00    +0.000 A 
ENDBRANCH  23  24
ENDBRANCH  22  23
ENDBRANCH  21  22
ENDBRANCH   6  21
TORSDOF 7
ENDMDL
MODEL 7
REMARK VINA RESULT:      -7.6      6.170      9.294
REMARK  Name = 
REMARK  8 active torsions:
REMARK  status: ('A' for Active; 'I' for Inactive)
REMARK    1  A    between atoms: C_1  and  C_2
REMARK    2  A    between atoms: C_4  and  N_5
REMARK    3  A    between atoms: N_5  and  S_6
REMARK    4  A    between atoms: S_6  and  C_9
REMARK    5  A    between atoms: N_19  and  C_20
REMARK    6  A    between atoms: C_20  and  C_21
REMARK    7  A    between atoms: C_21  and  C_22
REMARK    8  A    between atoms: C_22  and  C_23
REMARK                            x       y       z     vdW  Elec       q    Type
REMARK                         _______ _______ _______ _____ _____    ______ ____
ROOT
ATOM      1  C   UNL     1       1.462   9.105  22.240  0.00  0.00    +0.000 C 
ATOM      2  C   UNL     1       0.623   9.098  20.958  0.00  0.00    +0.000 C 
ATOM      3  C   UNL     1      -0.419  10.229  20.965  0.00  0.00    +0.000 C 
ATOM      4  C   UNL     1      -0.375  10.851  19.569  0.00  0.00    +0.000 C 
ATOM      5  C   UNL     1       1.088  10.618  19.209  0.00  0.00    +0.000 C 
ATOM      6  N   UNL     1       1.489   9.321  19.782  0.00  0.00    +0.000 NA
ENDROOT
BRANCH   4   7
ATOM      7  N   UNL     1      -1.312  10.191  18.615  0.00  0.00    +0.000 NA
ATOM      8  H   UNL     1      -0.922   9.391  18.116  0.00  0.00    +0.000 HD
BRANCH   7   9
ATOM      9  S   UNL     1      -2.126  11.190  17.490  0.00  0.00    +0.000 S 
ATOM     10  O   UNL     1      -1.536  12.498  17.470  0.00  0.00    +0.000 OA
ATOM     11  O   UNL     1      -2.282  10.391  16.291  0.00  0.00    +0.000 OA
BRANCH   9  12
ATOM     12  C   UNL     1      -3.740  11.490  18.011  0.00  0.00    +0.000 A 
ATOM     13  C   UNL     1      -4.832  11.139  17.244  0.00  0.00    +0.000 A 
ATOM     14  S   UNL     1      -6.293  11.493  18.024  0.00  0.00    +0.000 S 
ATOM     15  C   UNL     1      -5.492  12.136  19.409  0.00  0.00    +0.000 A 
ATOM     16  C   UNL     1      -6.115  12.667  20.556  0.00  0.00    +0.000 A 
ATOM     17  C   UNL     1      -5.328  13.156  21.597  0.00  0.00    +0.000 A 
ATOM     18  C   UNL     1      -3.943  13.127  21.496  0.00  0.00    +0.000 A 
ATOM     19  C   UNL     1      -3.326  12.601  20.353  0.00  0.00    +0.000 A 
ATOM     20  C   UNL     1      -4.100  12.086  19.276  0.00  0.00    +0.000 A 
ENDBRANCH   9  12
ENDBRANCH   7   9
ENDBRANCH   4   7
BRANCH   6  21
ATOM     21  C   UNL     1       1.412   8.214  18.810  0.00  0.00    +0.000 C 
BRANCH  21  22
ATOM     22  C   UNL     1       2.558   8.199  17.789  0.00  0.00    +0.000 C 
BRANCH  22  23
ATOM     23  C   UNL     1       3.734   7.348  18.259  0.00  0.00    +0.000 C 
BRANCH  23  24
ATOM     24  C   UNL     1       3.607   5.936  17.809  0.00  0.00    +0.000 A 
ATOM     25  N   UNL     1       4.368   5.477  16.806  0.00  0.00    +0.000 NA
ATOM     26  O   UNL     1       3.993   4.155  16.627  0.00  0.00    +0.000 OA
ATOM     27  C   UNL     1       3.022   3.833  17.521  0.00  0.00    +0.000 A 
ATOM     28  C   UNL     1       2.391   2.599  17.638  0.00  0.00    +0.000 A 
ATOM     29  C   UNL     1       1.430   2.511  18.642  0.00  0.00    +0.000 A 
ATOM     30  F   UNL     1       0.781   1.351  18.816  0.00  0.00    +0.000 F 
ATOM     31  C   UNL     1       1.119   3.587  19.475  0.00  0.00    +0.000 A 
ATOM     32  C   UNL     1       1.770   4.818  19.323  0.00  0.00    +0.000 A 
ATOM     33  C   UNL     1       2.743   4.933  18.313  0.00  0.00    +0.000 A 
ENDBRANCH  23  24
ENDBRANCH  22  23
ENDBRANCH  21  22
ENDBRANCH   6  21
TORSDOF 7
ENDMDL
MODEL 8
REMARK VINA RESULT:      -7.6      5.814      9.279
REMARK  Name = 
REMARK  8 active torsions:
REMARK  status: ('A' for Active; 'I' for Inactive)
REMARK    1  A    between atoms: C_1  and  C_2
REMARK    2  A    between atoms: C_4  and  N_5
REMARK    3  A    between atoms: N_5  and  S_6
REMARK    4  A    between atoms: S_6  and  C_9
REMARK    5  A    between atoms: N_19  and  C_20
REMARK    6  A    between atoms: C_20  and  C_21
REMARK    7  A    between atoms: C_21  and  C_22
REMARK    8  A    between atoms: C_22  and  C_23
REMARK                            x       y       z     vdW  Elec       q    Type
REMARK                         _______ _______ _______ _____ _____    ______ ____
ROOT
ATOM      1  C   UNL     1      -1.514  10.046  17.573  0.00  0.00    +0.000 C 
ATOM      2  C   UNL     1      -0.380  10.635  18.419  0.00  0.00    +0.000 C 
ATOM      3  C   UNL     1      -0.677  12.090  18.818  0.00  0.00    +0.000 C 
ATOM      4  C   UNL     1      -0.298  12.207  20.295  0.00  0.00    +0.000 C 
ATOM      5  C   UNL     1      -0.588  10.787  20.768  0.00  0.00    +0.000 C 
ATOM      6  N   UNL     1      -0.231   9.869  19.672  0.00  0.00    +0.000 NA
ENDROOT
BRANCH   4   7
ATOM      7  N   UNL     1       1.128  12.597  20.493  0.00  0.00    +0.000 NA
ATOM      8  H   UNL     1       1.731  11.852  20.843  0.00  0.00    +0.000 HD
BRANCH   7   9
ATOM      9  S   UNL     1       1.439  14.017  21.394  0.00  0.00    +0.000 S 
ATOM     10  O   UNL     1       0.494  14.143  22.466  0.00  0.00    +0.000 OA
ATOM     11  O   UNL     1       2.871  14.039  21.616  0.00  0.00    +0.000 OA
BRANCH   9  12
ATOM     12  C   UNL     1       1.139  15.415  20.434  0.00  0.00    +0.000 A 
ATOM     13  C   UNL     1       0.178  16.344  20.778  0.00  0.00    +0.000 A 
ATOM     14  S   UNL     1       0.140  17.645  19.694  0.00  0.00    +0.000 S 
ATOM     15  C   UNL     1       1.408  16.985  18.730  0.00  0.00    +0.000 A 
ATOM     16  C   UNL     1       1.951  17.562  17.564  0.00  0.00    +0.000 A 
ATOM     17  C   UNL     1       2.975  16.902  16.888  0.00  0.00    +0.000 A 
ATOM     18  C   UNL     1       3.446  15.683  17.357  0.00  0.00    +0.000 A 
ATOM     19  C   UNL     1       2.903  15.110  18.515  0.00  0.00    +0.000 A 
ATOM     20  C   UNL     1       1.863  15.762  19.234  0.00  0.00    +0.000 A 
ENDBRANCH   9  12
ENDBRANCH   7   9
ENDBRANCH   4   7
BRANCH   6  21
ATOM     21  C   UNL     1       1.119   9.293  19.822  0.00  0.00    +0.000 C 
BRANCH  21  22
ATOM     22  C   UNL     1       1.871   9.112  18.496  0.00  0.00    +0.000 C 
BRANCH  22  23
ATOM     23  C   UNL     1       1.520   7.793  17.814  0.00  0.00    +0.000 C 
BRANCH  23  24
ATOM     24  C   UNL     1       2.665   6.845  17.823  0.00  0.00    +0.000 A 
ATOM     25  N   UNL     1       3.924   7.306  17.814  0.00  0.00    +0.000 NA
ATOM     26  O   UNL     1       4.734   6.182  17.807  0.00  0.00    +0.000 OA
ATOM     27  C   UNL     1       3.962   5.064  17.815  0.00  0.00    +0.000 A 
ATOM     28  C   UNL     1       4.419   3.751  17.801  0.00  0.00    +0.000 A 
ATOM     29  C   UNL     1       3.429   2.772  17.825  0.00  0.00    +0.000 A 
ATOM     30  F   UNL     1       3.793   1.482  17.815  0.00  0.00    +0.000 F 
ATOM     31  C   UNL     1       2.069   3.086  17.859  0.00  0.00    +0.000 A 
ATOM     32  C   UNL     1       1.645   4.421  17.865  0.00  0.00    +0.000 A 
ATOM     33  C   UNL     1       2.627   5.429  17.839  0.00  0.00    +0.000 A 
ENDBRANCH  23  24
ENDBRANCH  22  23
ENDBRANCH  21  22
ENDBRANCH   6  21
TORSDOF 7
ENDMDL
MODEL 9
REMARK VINA RESULT:      -7.5      5.617      6.948
REMARK  Name = 
REMARK  8 active torsions:
REMARK  status: ('A' for Active; 'I' for Inactive)
REMARK    1  A    between atoms: C_1  and  C_2
REMARK    2  A    between atoms: C_4  and  N_5
REMARK    3  A    between atoms: N_5  and  S_6
REMARK    4  A    between atoms: S_6  and  C_9
REMARK    5  A    between atoms: N_19  and  C_20
REMARK    6  A    between atoms: C_20  and  C_21
REMARK    7  A    between atoms: C_21  and  C_22
REMARK    8  A    between atoms: C_22  and  C_23
REMARK                            x       y       z     vdW  Elec       q    Type
REMARK                         _______ _______ _______ _____ _____    ______ ____
ROOT
ATOM      1  C   UNL     1       0.965   2.564  19.168  0.00  0.00    +0.000 C 
ATOM      2  C   UNL     1       1.249   4.069  19.181  0.00  0.00    +0.000 C 
ATOM      3  C   UNL     1       0.851   4.703  20.524  0.00  0.00    +0.000 C 
ATOM      4  C   UNL     1       1.994   5.646  20.900  0.00  0.00    +0.000 C 
ATOM      5  C   UNL     1       3.173   4.921  20.258  0.00  0.00    +0.000 C 
ATOM      6  N   UNL     1       2.694   4.316  19.003  0.00  0.00    +0.000 NA
ENDROOT
BRANCH   4   7
ATOM      7  N   UNL     1       1.807   7.023  20.361  0.00  0.00    +0.000 NA
ATOM      8  H   UNL     1       2.659   7.471  20.024  0.00  0.00    +0.000 HD
BRANCH   7   9
ATOM      9  S   UNL     1       0.952   8.141  21.332  0.00  0.00    +0.000 S 
ATOM     10  O   UNL     1      -0.380   7.667  21.580  0.00  0.00    +0.000 OA
ATOM     11  O   UNL     1       1.857   8.507  22.404  0.00  0.00    +0.000 OA
BRANCH   9  12
ATOM     12  C   UNL     1       0.697   9.612  20.474  0.00  0.00    +0.000 A 
ATOM     13  C   UNL     1       1.102   9.772  19.164  0.00  0.00    +0.000 A 
ATOM     14  S   UNL     1       0.670  11.291  18.550  0.00  0.00    +0.000 S 
ATOM     15  C   UNL     1      -0.062  11.773  20.035  0.00  0.00    +0.000 A 
ATOM     16  C   UNL     1      -0.680  13.014  20.291  0.00  0.00    +0.000 A 
ATOM     17  C   UNL     1      -1.225  13.259  21.550  0.00  0.00    +0.000 A 
ATOM     18  C   UNL     1      -1.151  12.290  22.542  0.00  0.00    +0.000 A 
ATOM     19  C   UNL     1      -0.534  11.058  22.285  0.00  0.00    +0.000 A 
ATOM     20  C   UNL     1       0.025  10.773  21.009  0.00  0.00    +0.000 A 
ENDBRANCH   9  12
ENDBRANCH   7   9
ENDBRANCH   4   7
BRANCH   6  21
ATOM     21  C   UNL     1       2.981   5.146  17.818  0.00  0.00    +0.000 C 
BRANCH  21  22
ATOM     22  C   UNL     1       3.892   4.468  16.784  0.00  0.00    +0.000 C 
BRANCH  22  23
ATOM     23  C   UNL     1       5.348   4.433  17.239  0.00  0.00    +0.000 C 
BRANCH  23  24
ATOM     24  C   UNL     1       6.273   4.873  16.162  0.00  0.00    +0.000 A 
ATOM     25  N   UNL     1       7.235   5.770  16.421  0.00  0.00    +0.000 NA
ATOM     26  O   UNL     1       7.893   5.971  15.219  0.00  0.00    +0.000 OA
ATOM     27  C   UNL     1       7.329   5.196  14.256  0.00  0.00    +0.000 A 
ATOM     28  C   UNL     1       7.713   5.137  12.921  0.00  0.00    +0.000 A 
ATOM     29  C   UNL     1       6.985   4.254  12.127  0.00  0.00    +0.000 A 
ATOM     30  F   UNL     1       7.300   4.141  10.829  0.00  0.00    +0.000 F 
ATOM     31  C   UNL     1       5.939   3.482  12.634  0.00  0.00    +0.000 A 
ATOM     32  C   UNL     1       5.573   3.574  13.984  0.00  0.00    +0.000 A 
ATOM     33  C   UNL     1       6.293   4.461  14.806  0.00  0.00    +0.000 A 
ENDBRANCH  23  24
ENDBRANCH  22  23
ENDBRANCH  21  22
ENDBRANCH   6  21
TORSDOF 7
ENDMDL
