MODEL 1
REMARK VINA RESULT:      -8.3      0.000      0.000
REMARK  Name = 
REMARK  6 active torsions:
REMARK  status: ('A' for Active; 'I' for Inactive)
REMARK    1  A    between atoms: C_1  and  S_2
REMARK    2  A    between atoms: S_2  and  N_5
REMARK    3  A    between atoms: C_8  and  N_9
REMARK    4  A    between atoms: C_13  and  C_14
REMARK    5  A    between atoms: C_14  and  C_16
REMARK    6  A    between atoms: C_24  and  N_25
REMARK                            x       y       z     vdW  Elec       q    Type
REMARK                         _______ _______ _______ _____ _____    ______ ____
ROOT
ATOM      1  N   UNL     1       0.726  10.822  18.189  0.00  0.00    +0.000 N 
ATOM      2  C   UNL     1       1.309   9.600  18.492  0.00  0.00    +0.000 A 
ATOM      3  N   UNL     1       1.992   9.017  17.502  0.00  0.00    +0.000 NA
ATOM      4  C   UNL     1       2.560   7.825  17.775  0.00  0.00    +0.000 A 
ATOM      5  C   UNL     1       2.507   7.207  19.004  0.00  0.00    +0.000 A 
ATOM      6  C   UNL     1       1.829   7.920  19.980  0.00  0.00    +0.000 A 
ATOM      7  N   UNL     1       1.218   9.094  19.724  0.00  0.00    +0.000 NA
ATOM      8  H   UNL     1       1.506  11.473  18.198  0.00  0.00    +0.000 HD
ENDROOT
BRANCH   1  12
ATOM      9  N   UNL     1       0.293  14.091  19.373  0.00  0.00    +0.000 NA
ATOM     10  C   UNL     1      -0.321  13.607  18.110  0.00  0.00    +0.000 C 
ATOM     11  C   UNL     1      -1.192  12.385  18.371  0.00  0.00    +0.000 C 
ATOM     12  C   UNL     1      -0.388  11.263  19.037  0.00  0.00    +0.000 C 
ATOM     13  C   UNL     1       0.179  11.806  20.354  0.00  0.00    +0.000 C 
ATOM     14  C   UNL     1       1.036  13.048  20.130  0.00  0.00    +0.000 C 
BRANCH   9  16
ATOM     15  C   UNL     1       1.819  15.790  20.880  0.00  0.00    +0.000 C 
ATOM     16  S   UNL     1       1.088  15.594  19.256  0.00  0.00    +0.000 S 
ATOM     17  O   UNL     1       0.081  16.621  19.109  0.00  0.00    +0.000 OA
ATOM     18  O   UNL     1       2.165  15.468  18.298  0.00  0.00    +0.000 OA
ENDBRANCH   9  16
ENDBRANCH   1  12
BRANCH   6  19
ATOM     19  N   UNL     1       1.794   7.561  21.320  0.00  0.00    +0.000 N 
ATOM     20  H   UNL     1       2.214   8.229  21.956  0.00  0.00    +0.000 HD
ATOM     21  H   UNL     1       2.082   6.597  21.444  0.00  0.00    +0.000 HD
ENDBRANCH   6  19
BRANCH   5  22
ATOM     22  C   UNL     1       3.141   5.886  19.243  0.00  0.00    +0.000 C 
ATOM     23  O   UNL     1       4.271   5.821  19.717  0.00  0.00    +0.000 OA
BRANCH  22  24
ATOM     24  C   UNL     1       2.435   4.613  18.976  0.00  0.00    +0.000 A 
ATOM     25  C   UNL     1       1.466   4.119  19.852  0.00  0.00    +0.000 A 
ATOM     26  F   UNL     1       1.125   4.803  20.953  0.00  0.00    +0.000 F 
ATOM     27  C   UNL     1       0.834   2.898  19.618  0.00  0.00    +0.000 A 
ATOM     28  C   UNL     1       1.189   2.134  18.507  0.00  0.00    +0.000 A 
ATOM     29  C   UNL     1       2.168   2.605  17.633  0.00  0.00    +0.000 A 
ATOM     30  C   UNL     1       2.783   3.836  17.871  0.00  0.00    +0.000 A 
ATOM     31  F   UNL     1       3.696   4.261  16.986  0.00  0.00    +0.000 F 
ENDBRANCH  22  24
ENDBRANCH   5  22
TORSDOF 5
ENDMDL
MODEL 2
REMARK VINA RESULT:      -8.3      0.959      1.109
REMARK  Name = 
REMARK  6 active torsions:
REMARK  status: ('A' for Active; 'I' for Inactive)
REMARK    1  A    between atoms: C_1  and  S_2
REMARK    2  A    between atoms: S_2  and  N_5
REMARK    3  A    between atoms: C_8  and  N_9
REMARK    4  A    between atoms: C_13  and  C_14
REMARK    5  A    between atoms: C_14  and  C_16
REMARK    6  A    between atoms: C_24  and  N_25
REMARK                            x       y       z     vdW  Elec       q    Type
REMARK                         _______ _______ _______ _____ _____    ______ ____
ROOT
ATOM      1  N   UNL     1       0.819  10.868  18.243  0.00  0.00    +0.000 N 
ATOM      2  C   UNL     1       1.365   9.635  18.570  0.00  0.00    +0.000 A 
ATOM      3  N   UNL     1       2.065   9.031  17.606  0.00  0.00    +0.000 NA
ATOM      4  C   UNL     1       2.598   7.828  17.903  0.00  0.00    +0.000 A 
ATOM      5  C   UNL     1       2.491   7.218  19.133  0.00  0.00    +0.000 A 
ATOM      6  C   UNL     1       1.798   7.953  20.083  0.00  0.00    +0.000 A 
ATOM      7  N   UNL     1       1.222   9.139  19.801  0.00  0.00    +0.000 NA
ATOM      8  H   UNL     1       1.614  11.501  18.273  0.00  0.00    +0.000 HD
ENDROOT
BRANCH   1  12
ATOM      9  N   UNL     1       0.468  14.131  19.471  0.00  0.00    +0.000 NA
ATOM     10  C   UNL     1      -0.111  13.695  18.174  0.00  0.00    +0.000 C 
ATOM     11  C   UNL     1      -1.040  12.504  18.375  0.00  0.00    +0.000 C 
ATOM     12  C   UNL     1      -0.311  11.339  19.052  0.00  0.00    +0.000 C 
ATOM     13  C   UNL     1       0.221  11.835  20.401  0.00  0.00    +0.000 C 
ATOM     14  C   UNL     1       1.136  13.045  20.237  0.00  0.00    +0.000 C 
BRANCH   9  16
ATOM     15  C   UNL     1       0.035  16.813  19.151  0.00  0.00    +0.000 C 
ATOM     16  S   UNL     1       1.327  15.602  19.417  0.00  0.00    +0.000 S 
ATOM     17  O   UNL     1       2.158  15.589  18.234  0.00  0.00    +0.000 OA
ATOM     18  O   UNL     1       1.900  15.845  20.723  0.00  0.00    +0.000 OA
ENDBRANCH   9  16
ENDBRANCH   1  12
BRANCH   6  19
ATOM     19  N   UNL     1       1.712   7.602  21.422  0.00  0.00    +0.000 N 
ATOM     20  H   UNL     1       1.206   6.745  21.612  0.00  0.00    +0.000 HD
ATOM     21  H   UNL     1       1.450   8.400  21.990  0.00  0.00    +0.000 HD
ENDBRANCH   6  19
BRANCH   5  22
ATOM     22  C   UNL     1       3.086   5.885  19.399  0.00  0.00    +0.000 C 
ATOM     23  O   UNL     1       4.297   5.773  19.565  0.00  0.00    +0.000 OA
BRANCH  22  24
ATOM     24  C   UNL     1       2.260   4.663  19.526  0.00  0.00    +0.000 A 
ATOM     25  C   UNL     1       2.031   4.065  20.766  0.00  0.00    +0.000 A 
ATOM     26  F   UNL     1       2.532   4.599  21.888  0.00  0.00    +0.000 F 
ATOM     27  C   UNL     1       1.287   2.890  20.875  0.00  0.00    +0.000 A 
ATOM     28  C   UNL     1       0.782   2.278  19.729  0.00  0.00    +0.000 A 
ATOM     29  C   UNL     1       1.019   2.854  18.481  0.00  0.00    +0.000 A 
ATOM     30  C   UNL     1       1.754   4.039  18.387  0.00  0.00    +0.000 A 
ATOM     31  F   UNL     1       1.929   4.571  17.169  0.00  0.00    +0.000 F 
ENDBRANCH  22  24
ENDBRANCH   5  22
TORSDOF 5
ENDMDL
MODEL 3
REMARK VINA RESULT:      -8.2      0.687      1.815
REMARK  Name = 
REMARK  6 active torsions:
REMARK  status: ('A' for Active; 'I' for Inactive)
REMARK    1  A    between atoms: C_1  and  S_2
REMARK    2  A    between atoms: S_2  and  N_5
REMARK    3  A    between atoms: C_8  and  N_9
REMARK    4  A    between atoms: C_13  and  C_14
REMARK    5  A    between atoms: C_14  and  C_16
REMARK    6  A    between atoms: C_24  and  N_25
REMARK                            x       y       z     vdW  Elec       q    Type
REMARK                         _______ _______ _______ _____ _____    ______ ____
ROOT
ATOM      1  N   UNL     1       0.678  10.772  18.175  0.00  0.00    +0.000 N 
ATOM      2  C   UNL     1       1.289   9.565  18.484  0.00  0.00    +0.000 A 
ATOM      3  N   UNL     1       1.998   9.001  17.503  0.00  0.00    +0.000 NA
ATOM      4  C   UNL     1       2.594   7.824  17.782  0.00  0.00    +0.000 A 
ATOM      5  C   UNL     1       2.543   7.203  19.011  0.00  0.00    +0.000 A 
ATOM      6  C   UNL     1       1.835   7.899  19.979  0.00  0.00    +0.000 A 
ATOM      7  N   UNL     1       1.196   9.057  19.716  0.00  0.00    +0.000 NA
ATOM      8  H   UNL     1       1.442  11.443  18.193  0.00  0.00    +0.000 HD
ENDROOT
BRANCH   1  12
ATOM      9  N   UNL     1       0.167  14.021  19.384  0.00  0.00    +0.000 NA
ATOM     10  C   UNL     1      -0.419  13.538  18.107  0.00  0.00    +0.000 C 
ATOM     11  C   UNL     1      -1.271  12.297  18.342  0.00  0.00    +0.000 C 
ATOM     12  C   UNL     1      -0.457  11.183  19.010  0.00  0.00    +0.000 C 
ATOM     13  C   UNL     1       0.080  11.724  20.341  0.00  0.00    +0.000 C 
ATOM     14  C   UNL     1       0.917  12.984  20.142  0.00  0.00    +0.000 C 
BRANCH   9  16
ATOM     15  C   UNL     1      -0.277  16.555  18.455  0.00  0.00    +0.000 C 
ATOM     16  S   UNL     1       0.935  15.539  19.295  0.00  0.00    +0.000 S 
ATOM     17  O   UNL     1       2.076  15.410  18.416  0.00  0.00    +0.000 OA
ATOM     18  O   UNL     1       1.089  16.053  20.639  0.00  0.00    +0.000 OA
ENDBRANCH   9  16
ENDBRANCH   1  12
BRANCH   6  19
ATOM     19  N   UNL     1       1.793   7.538  21.318  0.00  0.00    +0.000 N 
ATOM     20  H   UNL     1       1.764   8.312  21.972  0.00  0.00    +0.000 HD
ATOM     21  H   UNL     1       2.478   6.819  21.520  0.00  0.00    +0.000 HD
ENDBRANCH   6  19
BRANCH   5  22
ATOM     22  C   UNL     1       3.207   5.899  19.257  0.00  0.00    +0.000 C 
ATOM     23  O   UNL     1       4.346   5.864  19.711  0.00  0.00    +0.000 OA
BRANCH  22  24
ATOM     24  C   UNL     1       2.522   4.608  19.021  0.00  0.00    +0.000 A 
ATOM     25  C   UNL     1       2.742   3.869  17.857  0.00  0.00    +0.000 A 
ATOM     26  F   UNL     1       3.607   4.297  16.927  0.00  0.00    +0.000 F 
ATOM     27  C   UNL     1       2.063   2.674  17.621  0.00  0.00    +0.000 A 
ATOM     28  C   UNL     1       1.124   2.214  18.543  0.00  0.00    +0.000 A 
ATOM     29  C   UNL     1       0.880   2.951  19.701  0.00  0.00    +0.000 A 
ATOM     30  C   UNL     1       1.578   4.139  19.934  0.00  0.00    +0.000 A 
ATOM     31  F   UNL     1       1.331   4.796  21.076  0.00  0.00    +0.000 F 
ENDBRANCH  22  24
ENDBRANCH   5  22
TORSDOF 5
ENDMDL
MODEL 4
REMARK VINA RESULT:      -8.2      2.205      2.886
REMARK  Name = 
REMARK  6 active torsions:
REMARK  status: ('A' for Active; 'I' for Inactive)
REMARK    1  A    between atoms: C_1  and  S_2
REMARK    2  A    between atoms: S_2  and  N_5
REMARK    3  A    between atoms: C_8  and  N_9
REMARK    4  A    between atoms: C_13  and  C_14
REMARK    5  A    between atoms: C_14  and  C_16
REMARK    6  A    between atoms: C_24  and  N_25
REMARK                            x       y       z     vdW  Elec       q    Type
REMARK                         _______ _______ _______ _____ _____    ______ ____
ROOT
ATOM      1  N   UNL     1       1.224   9.837  18.874  0.00  0.00    +0.000 N 
ATOM      2  C   UNL     1       1.853   8.600  18.890  0.00  0.00    +0.000 A 
ATOM      3  N   UNL     1       2.656   8.341  17.854  0.00  0.00    +0.000 NA
ATOM      4  C   UNL     1       3.272   7.141  17.847  0.00  0.00    +0.000 A 
ATOM      5  C   UNL     1       3.148   6.203  18.849  0.00  0.00    +0.000 A 
ATOM      6  C   UNL     1       2.343   6.593  19.907  0.00  0.00    +0.000 A 
ATOM      7  N   UNL     1       1.685   7.769  19.921  0.00  0.00    +0.000 NA
ATOM      8  H   UNL     1       1.958  10.487  19.141  0.00  0.00    +0.000 HD
ENDROOT
BRANCH   1  12
ATOM      9  N   UNL     1      -0.100  12.901  19.941  0.00  0.00    +0.000 NA
ATOM     10  C   UNL     1      -0.533  12.233  18.687  0.00  0.00    +0.000 C 
ATOM     11  C   UNL     1      -1.048  10.828  18.977  0.00  0.00    +0.000 C 
ATOM     12  C   UNL     1       0.014   9.985  19.692  0.00  0.00    +0.000 C 
ATOM     13  C   UNL     1       0.384  10.699  20.997  0.00  0.00    +0.000 C 
ATOM     14  C   UNL     1       0.879  12.120  20.743  0.00  0.00    +0.000 C 
BRANCH   9  16
ATOM     15  C   UNL     1       1.125  14.927  21.311  0.00  0.00    +0.000 C 
ATOM     16  S   UNL     1       0.263  14.559  19.785  0.00  0.00    +0.000 S 
ATOM     17  O   UNL     1      -0.983  15.292  19.803  0.00  0.00    +0.000 OA
ATOM     18  O   UNL     1       1.202  14.720  18.696  0.00  0.00    +0.000 OA
ENDBRANCH   9  16
ENDBRANCH   1  12
BRANCH   6  19
ATOM     19  N   UNL     1       2.212   5.874  21.087  0.00  0.00    +0.000 N 
ATOM     20  H   UNL     1       1.308   5.950  21.540  0.00  0.00    +0.000 HD
ATOM     21  H   UNL     1       3.016   6.015  21.688  0.00  0.00    +0.000 HD
ENDBRANCH   6  19
BRANCH   5  22
ATOM     22  C   UNL     1       3.839   4.891  18.781  0.00  0.00    +0.000 C 
ATOM     23  O   UNL     1       3.368   3.917  19.359  0.00  0.00    +0.000 OA
BRANCH  22  24
ATOM     24  C   UNL     1       5.073   4.689  17.989  0.00  0.00    +0.000 A 
ATOM     25  C   UNL     1       6.325   5.055  18.485  0.00  0.00    +0.000 A 
ATOM     26  F   UNL     1       6.450   5.577  19.712  0.00  0.00    +0.000 F 
ATOM     27  C   UNL     1       7.480   4.900  17.717  0.00  0.00    +0.000 A 
ATOM     28  C   UNL     1       7.389   4.399  16.420  0.00  0.00    +0.000 A 
ATOM     29  C   UNL     1       6.143   4.047  15.904  0.00  0.00    +0.000 A 
ATOM     30  C   UNL     1       4.996   4.193  16.688  0.00  0.00    +0.000 A 
ATOM     31  F   UNL     1       3.825   3.812  16.159  0.00  0.00    +0.000 F 
ENDBRANCH  22  24
ENDBRANCH   5  22
TORSDOF 5
ENDMDL
MODEL 5
REMARK VINA RESULT:      -8.1      2.238      3.119
REMARK  Name = 
REMARK  6 active torsions:
REMARK  status: ('A' for Active; 'I' for Inactive)
REMARK    1  A    between atoms: C_1  and  S_2
REMARK    2  A    between atoms: S_2  and  N_5
REMARK    3  A    between atoms: C_8  and  N_9
REMARK    4  A    between atoms: C_13  and  C_14
REMARK    5  A    between atoms: C_14  and  C_16
REMARK    6  A    between atoms: C_24  and  N_25
REMARK                            x       y       z     vdW  Elec       q    Type
REMARK                         _______ _______ _______ _____ _____    ______ ____
ROOT
ATOM      1  N   UNL     1       1.286  10.096  18.699  0.00  0.00    +0.000 N 
ATOM      2  C   UNL     1       1.876   8.840  18.677  0.00  0.00    +0.000 A 
ATOM      3  N   UNL     1       2.606   8.556  17.596  0.00  0.00    +0.000 NA
ATOM      4  C   UNL     1       3.181   7.337  17.552  0.00  0.00    +0.000 A 
ATOM      5  C   UNL     1       3.089   6.403  18.560  0.00  0.00    +0.000 A 
ATOM      6  C   UNL     1       2.362   6.817  19.666  0.00  0.00    +0.000 A 
ATOM      7  N   UNL     1       1.743   8.013  19.718  0.00  0.00    +0.000 NA
ATOM      8  H   UNL     1       2.056  10.722  18.920  0.00  0.00    +0.000 HD
ENDROOT
BRANCH   1  12
ATOM      9  N   UNL     1       0.131  13.199  19.846  0.00  0.00    +0.000 NA
ATOM     10  C   UNL     1      -0.398  12.549  18.620  0.00  0.00    +0.000 C 
ATOM     11  C   UNL     1      -0.941  11.161  18.939  0.00  0.00    +0.000 C 
ATOM     12  C   UNL     1       0.133  10.281  19.588  0.00  0.00    +0.000 C 
ATOM     13  C   UNL     1       0.604  10.979  20.869  0.00  0.00    +0.000 C 
ATOM     14  C   UNL     1       1.130  12.383  20.587  0.00  0.00    +0.000 C 
BRANCH   9  16
ATOM     15  C   UNL     1       2.054  14.783  18.718  0.00  0.00    +0.000 C 
ATOM     16  S   UNL     1       0.538  14.844  19.669  0.00  0.00    +0.000 S 
ATOM     17  O   UNL     1       0.869  15.365  20.977  0.00  0.00    +0.000 OA
ATOM     18  O   UNL     1      -0.472  15.480  18.851  0.00  0.00    +0.000 OA
ENDBRANCH   9  16
ENDBRANCH   1  12
BRANCH   6  19
ATOM     19  N   UNL     1       2.279   6.101  20.851  0.00  0.00    +0.000 N 
ATOM     20  H   UNL     1       3.130   6.080  21.403  0.00  0.00    +0.000 HD
ATOM     21  H   UNL     1       1.832   5.204  20.703  0.00  0.00    +0.000 HD
ENDBRANCH   6  19
BRANCH   5  22
ATOM     22  C   UNL     1       3.732   5.070  18.452  0.00  0.00    +0.000 C 
ATOM     23  O   UNL     1       3.149   4.070  18.861  0.00  0.00    +0.000 OA
BRANCH  22  24
ATOM     24  C   UNL     1       5.054   4.881  17.815  0.00  0.00    +0.000 A 
ATOM     25  C   UNL     1       5.174   4.359  16.526  0.00  0.00    +0.000 A 
ATOM     26  F   UNL     1       4.086   4.039  15.812  0.00  0.00    +0.000 F 
ATOM     27  C   UNL     1       6.424   4.143  15.946  0.00  0.00    +0.000 A 
ATOM     28  C   UNL     1       7.583   4.424  16.669  0.00  0.00    +0.000 A 
ATOM     29  C   UNL     1       7.480   4.927  17.965  0.00  0.00    +0.000 A 
ATOM     30  C   UNL     1       6.222   5.153  18.529  0.00  0.00    +0.000 A 
ATOM     31  F   UNL     1       6.173   5.667  19.766  0.00  0.00    +0.000 F 
ENDBRANCH  22  24
ENDBRANCH   5  22
TORSDOF 5
ENDMDL
MODEL 6
REMARK VINA RESULT:      -8.0      2.168      2.885
REMARK  Name = 
REMARK  6 active torsions:
REMARK  status: ('A' for Active; 'I' for Inactive)
REMARK    1  A    between atoms: C_1  and  S_2
REMARK    2  A    between atoms: S_2  and  N_5
REMARK    3  A    between atoms: C_8  and  N_9
REMARK    4  A    between atoms: C_13  and  C_14
REMARK    5  A    between atoms: C_14  and  C_16
REMARK    6  A    between atoms: C_24  and  N_25
REMARK                            x       y       z     vdW  Elec       q    Type
REMARK                         _______ _______ _______ _____ _____    ______ ____
ROOT
ATOM      1  N   UNL     1       1.300  10.144  18.452  0.00  0.00    +0.000 N 
ATOM      2  C   UNL     1       1.873   8.882  18.526  0.00  0.00    +0.000 A 
ATOM      3  N   UNL     1       2.629   8.522  17.486  0.00  0.00    +0.000 NA
ATOM      4  C   UNL     1       3.189   7.296  17.537  0.00  0.00    +0.000 A 
ATOM      5  C   UNL     1       3.057   6.429  18.599  0.00  0.00    +0.000 A 
ATOM      6  C   UNL     1       2.305   6.921  19.655  0.00  0.00    +0.000 A 
ATOM      7  N   UNL     1       1.701   8.126  19.613  0.00  0.00    +0.000 NA
ATOM      8  H   UNL     1       2.071  10.774  18.654  0.00  0.00    +0.000 HD
ENDROOT
BRANCH   1  12
ATOM      9  N   UNL     1       0.412  13.280  19.739  0.00  0.00    +0.000 NA
ATOM     10  C   UNL     1      -0.114  12.764  18.449  0.00  0.00    +0.000 C 
ATOM     11  C   UNL     1      -0.814  11.426  18.651  0.00  0.00    +0.000 C 
ATOM     12  C   UNL     1       0.125  10.399  19.294  0.00  0.00    +0.000 C 
ATOM     13  C   UNL     1       0.595  10.966  20.638  0.00  0.00    +0.000 C 
ATOM     14  C   UNL     1       1.279  12.320  20.473  0.00  0.00    +0.000 C 
BRANCH   9  16
ATOM     15  C   UNL     1      -0.375  15.788  18.982  0.00  0.00    +0.000 C 
ATOM     16  S   UNL     1       0.997  14.880  19.689  0.00  0.00    +0.000 S 
ATOM     17  O   UNL     1       2.084  14.927  18.737  0.00  0.00    +0.000 OA
ATOM     18  O   UNL     1       1.180  15.342  21.048  0.00  0.00    +0.000 OA
ENDBRANCH   9  16
ENDBRANCH   1  12
BRANCH   6  19
ATOM     19  N   UNL     1       2.180   6.284  20.881  0.00  0.00    +0.000 N 
ATOM     20  H   UNL     1       1.730   6.830  21.607  0.00  0.00    +0.000 HD
ATOM     21  H   UNL     1       3.050   5.835  21.146  0.00  0.00    +0.000 HD
ENDBRANCH   6  19
BRANCH   5  22
ATOM     22  C   UNL     1       3.685   5.085  18.594  0.00  0.00    +0.000 C 
ATOM     23  O   UNL     1       3.110   4.134  19.116  0.00  0.00    +0.000 OA
BRANCH  22  24
ATOM     24  C   UNL     1       4.982   4.822  17.931  0.00  0.00    +0.000 A 
ATOM     25  C   UNL     1       6.193   5.150  18.542  0.00  0.00    +0.000 A 
ATOM     26  F   UNL     1       6.218   5.690  19.768  0.00  0.00    +0.000 F 
ATOM     27  C   UNL     1       7.410   4.939  17.894  0.00  0.00    +0.000 A 
ATOM     28  C   UNL     1       7.428   4.417  16.601  0.00  0.00    +0.000 A 
ATOM     29  C   UNL     1       6.225   4.102  15.971  0.00  0.00    +0.000 A 
ATOM     30  C   UNL     1       5.014   4.304  16.635  0.00  0.00    +0.000 A 
ATOM     31  F   UNL     1       3.885   3.957  16.000  0.00  0.00    +0.000 F 
ENDBRANCH  22  24
ENDBRANCH   5  22
TORSDOF 5
ENDMDL
MODEL 7
REMARK VINA RESULT:      -8.0      2.289      3.088
REMARK  Name = 
REMARK  6 active torsions:
REMARK  status: ('A' for Active; 'I' for Inactive)
REMARK    1  A    between atoms: C_1  and  S_2
REMARK    2  A    between atoms: S_2  and  N_5
REMARK    3  A    between atoms: C_8  and  N_9
REMARK    4  A    between atoms: C_13  and  C_14
REMARK    5  A    between atoms: C_14  and  C_16
REMARK    6  A    between atoms: C_24  and  N_25
REMARK                            x       y       z     vdW  Elec       q    Type
REMARK                         _______ _______ _______ _____ _____    ______ ____
ROOT
ATOM      1  N   UNL     1       1.100   9.927  18.764  0.00  0.00    +0.000 N 
ATOM      2  C   UNL     1       1.766   8.710  18.811  0.00  0.00    +0.000 A 
ATOM      3  N   UNL     1       2.602   8.462  17.799  0.00  0.00    +0.000 NA
ATOM      4  C   UNL     1       3.254   7.281  17.824  0.00  0.00    +0.000 A 
ATOM      5  C   UNL     1       3.133   6.353  18.834  0.00  0.00    +0.000 A 
ATOM      6  C   UNL     1       2.289   6.731  19.867  0.00  0.00    +0.000 A 
ATOM      7  N   UNL     1       1.596   7.887  19.848  0.00  0.00    +0.000 NA
ATOM      8  H   UNL     1       1.808  10.602  19.040  0.00  0.00    +0.000 HD
ENDROOT
BRANCH   1  12
ATOM      9  N   UNL     1      -0.207  12.945  19.972  0.00  0.00    +0.000 NA
ATOM     10  C   UNL     1      -0.608  12.362  18.665  0.00  0.00    +0.000 C 
ATOM     11  C   UNL     1      -1.156  10.953  18.851  0.00  0.00    +0.000 C 
ATOM     12  C   UNL     1      -0.134  10.048  19.548  0.00  0.00    +0.000 C 
ATOM     13  C   UNL     1       0.203  10.674  20.906  0.00  0.00    +0.000 C 
ATOM     14  C   UNL     1       0.731  12.098  20.756  0.00  0.00    +0.000 C 
BRANCH   9  16
ATOM     15  C   UNL     1      -1.319  15.391  20.488  0.00  0.00    +0.000 C 
ATOM     16  S   UNL     1       0.189  14.602  19.929  0.00  0.00    +0.000 S 
ATOM     17  O   UNL     1       0.387  14.977  18.547  0.00  0.00    +0.000 OA
ATOM     18  O   UNL     1       1.213  14.852  20.920  0.00  0.00    +0.000 OA
ENDBRANCH   9  16
ENDBRANCH   1  12
BRANCH   6  19
ATOM     19  N   UNL     1       2.150   6.024  21.052  0.00  0.00    +0.000 N 
ATOM     20  H   UNL     1       2.726   6.350  21.820  0.00  0.00    +0.000 HD
ATOM     21  H   UNL     1       2.171   5.024  20.882  0.00  0.00    +0.000 HD
ENDBRANCH   6  19
BRANCH   5  22
ATOM     22  C   UNL     1       3.864   5.062  18.802  0.00  0.00    +0.000 C 
ATOM     23  O   UNL     1       3.458   4.107  19.457  0.00  0.00    +0.000 OA
BRANCH  22  24
ATOM     24  C   UNL     1       5.062   4.854  17.957  0.00  0.00    +0.000 A 
ATOM     25  C   UNL     1       4.965   4.293  16.682  0.00  0.00    +0.000 A 
ATOM     26  F   UNL     1       3.774   3.950  16.173  0.00  0.00    +0.000 F 
ATOM     27  C   UNL     1       6.101   4.060  15.907  0.00  0.00    +0.000 A 
ATOM     28  C   UNL     1       7.363   4.364  16.415  0.00  0.00    +0.000 A 
ATOM     29  C   UNL     1       7.477   4.908  17.694  0.00  0.00    +0.000 A 
ATOM     30  C   UNL     1       6.331   5.150  18.455  0.00  0.00    +0.000 A 
ATOM     31  F   UNL     1       6.489   5.702  19.666  0.00  0.00    +0.000 F 
ENDBRANCH  22  24
ENDBRANCH   5  22
TORSDOF 5
ENDMDL
MODEL 8
REMARK VINA RESULT:      -8.0      1.766      2.381
REMARK  Name = 
REMARK  6 active torsions:
REMARK  status: ('A' for Active; 'I' for Inactive)
REMARK    1  A    between atoms: C_1  and  S_2
REMARK    2  A    between atoms: S_2  and  N_5
REMARK    3  A    between atoms: C_8  and  N_9
REMARK    4  A    between atoms: C_13  and  C_14
REMARK    5  A    between atoms: C_14  and  C_16
REMARK    6  A    between atoms: C_24  and  N_25
REMARK                            x       y       z     vdW  Elec       q    Type
REMARK                         _______ _______ _______ _____ _____    ______ ____
ROOT
ATOM      1  N   UNL     1       0.208  10.923  19.898  0.00  0.00    +0.000 N 
ATOM      2  C   UNL     1       0.882   9.715  19.790  0.00  0.00    +0.000 A 
ATOM      3  N   UNL     1       0.773   8.889  20.834  0.00  0.00    +0.000 NA
ATOM      4  C   UNL     1       1.426   7.712  20.751  0.00  0.00    +0.000 A 
ATOM      5  C   UNL     1       2.155   7.309  19.654  0.00  0.00    +0.000 A 
ATOM      6  C   UNL     1       2.156   8.209  18.600  0.00  0.00    +0.000 A 
ATOM      7  N   UNL     1       1.544   9.408  18.672  0.00  0.00    +0.000 NA
ATOM      8  H   UNL     1      -0.764  10.674  19.739  0.00  0.00    +0.000 HD
ENDROOT
BRANCH   1  12
ATOM      9  N   UNL     1       0.262  14.298  20.839  0.00  0.00    +0.000 NA
ATOM     10  C   UNL     1       1.434  13.400  21.004  0.00  0.00    +0.000 C 
ATOM     11  C   UNL     1       1.831  12.785  19.668  0.00  0.00    +0.000 C 
ATOM     12  C   UNL     1       0.660  12.023  19.038  0.00  0.00    +0.000 C 
ATOM     13  C   UNL     1      -0.498  13.009  18.850  0.00  0.00    +0.000 C 
ATOM     14  C   UNL     1      -0.903  13.663  20.167  0.00  0.00    +0.000 C 
BRANCH   9  16
ATOM     15  C   UNL     1      -1.055  14.093  23.228  0.00  0.00    +0.000 C 
ATOM     16  S   UNL     1      -0.124  15.235  22.210  0.00  0.00    +0.000 S 
ATOM     17  O   UNL     1      -1.030  16.281  21.793  0.00  0.00    +0.000 OA
ATOM     18  O   UNL     1       1.104  15.550  22.907  0.00  0.00    +0.000 OA
ENDBRANCH   9  16
ENDBRANCH   1  12
BRANCH   6  19
ATOM     19  N   UNL     1       2.687   7.936  17.348  0.00  0.00    +0.000 N 
ATOM     20  H   UNL     1       2.330   8.510  16.592  0.00  0.00    +0.000 HD
ATOM     21  H   UNL     1       2.701   6.938  17.170  0.00  0.00    +0.000 HD
ENDBRANCH   6  19
BRANCH   5  22
ATOM     22  C   UNL     1       2.867   6.007  19.623  0.00  0.00    +0.000 C 
ATOM     23  O   UNL     1       4.092   5.976  19.578  0.00  0.00    +0.000 OA
BRANCH  22  24
ATOM     24  C   UNL     1       2.150   4.714  19.696  0.00  0.00    +0.000 A 
ATOM     25  C   UNL     1       2.022   4.019  20.900  0.00  0.00    +0.000 A 
ATOM     26  F   UNL     1       2.522   4.521  22.038  0.00  0.00    +0.000 F 
ATOM     27  C   UNL     1       1.382   2.781  20.956  0.00  0.00    +0.000 A 
ATOM     28  C   UNL     1       0.883   2.204  19.789  0.00  0.00    +0.000 A 
ATOM     29  C   UNL     1       1.021   2.877  18.576  0.00  0.00    +0.000 A 
ATOM     30  C   UNL     1       1.650   4.123  18.536  0.00  0.00    +0.000 A 
ATOM     31  F   UNL     1       1.731   4.746  17.351  0.00  0.00    +0.000 F 
ENDBRANCH  22  24
ENDBRANCH   5  22
TORSDOF 5
ENDMDL
MODEL 9
REMARK VINA RESULT:      -7.9      4.148      8.740
REMARK  Name = 
REMARK  6 active torsions:
REMARK  status: ('A' for Active; 'I' for Inactive)
REMARK    1  A    between atoms: C_1  and  S_2
REMARK    2  A    between atoms: S_2  and  N_5
REMARK    3  A    between atoms: C_8  and  N_9
REMARK    4  A    between atoms: C_13  and  C_14
REMARK    5  A    between atoms: C_14  and  C_16
REMARK    6  A    between atoms: C_24  and  N_25
REMARK                            x       y       z     vdW  Elec       q    Type
REMARK                         _______ _______ _______ _____ _____    ______ ____
ROOT
ATOM      1  N   UNL     1       2.666   6.250  17.971  0.00  0.00    +0.000 N 
ATOM      2  C   UNL     1       2.219   7.363  18.669  0.00  0.00    +0.000 A 
ATOM      3  N   UNL     1       2.170   8.505  17.977  0.00  0.00    +0.000 NA
ATOM      4  C   UNL     1       1.745   9.600  18.640  0.00  0.00    +0.000 A 
ATOM      5  C   UNL     1       1.332   9.596  19.954  0.00  0.00    +0.000 A 
ATOM      6  C   UNL     1       1.363   8.352  20.565  0.00  0.00    +0.000 A 
ATOM      7  N   UNL     1       1.821   7.249  19.938  0.00  0.00    +0.000 NA
ATOM      8  H   UNL     1       1.872   5.991  17.391  0.00  0.00    +0.000 HD
ENDROOT
BRANCH   1  12
ATOM      9  N   UNL     1       5.780   4.722  17.471  0.00  0.00    +0.000 NA
ATOM     10  C   UNL     1       5.578   5.837  18.432  0.00  0.00    +0.000 C 
ATOM     11  C   UNL     1       4.502   5.480  19.450  0.00  0.00    +0.000 C 
ATOM     12  C   UNL     1       3.180   5.124  18.760  0.00  0.00    +0.000 C 
ATOM     13  C   UNL     1       3.442   3.941  17.821  0.00  0.00    +0.000 C 
ATOM     14  C   UNL     1       4.534   4.258  16.803  0.00  0.00    +0.000 C 
BRANCH   9  16
ATOM     15  C   UNL     1       6.571   4.118  14.923  0.00  0.00    +0.000 C 
ATOM     16  S   UNL     1       7.123   4.898  16.437  0.00  0.00    +0.000 S 
ATOM     17  O   UNL     1       8.202   4.097  16.969  0.00  0.00    +0.000 OA
ATOM     18  O   UNL     1       7.309   6.308  16.167  0.00  0.00    +0.000 OA
ENDBRANCH   9  16
ENDBRANCH   1  12
BRANCH   6  19
ATOM     19  N   UNL     1       0.842   8.093  21.824  0.00  0.00    +0.000 N 
ATOM     20  H   UNL     1       0.440   8.895  22.297  0.00  0.00    +0.000 HD
ATOM     21  H   UNL     1       1.485   7.537  22.375  0.00  0.00    +0.000 HD
ENDBRANCH   6  19
BRANCH   5  22
ATOM     22  C   UNL     1       0.888  10.836  20.638  0.00  0.00    +0.000 C 
ATOM     23  O   UNL     1       0.726  10.844  21.854  0.00  0.00    +0.000 OA
BRANCH  22  24
ATOM     24  C   UNL     1       0.673  12.106  19.909  0.00  0.00    +0.000 A 
ATOM     25  C   UNL     1       1.582  13.161  20.001  0.00  0.00    +0.000 A 
ATOM     26  F   UNL     1       2.697  13.043  20.734  0.00  0.00    +0.000 F 
ATOM     27  C   UNL     1       1.354  14.371  19.345  0.00  0.00    +0.000 A 
ATOM     28  C   UNL     1       0.187  14.550  18.605  0.00  0.00    +0.000 A 
ATOM     29  C   UNL     1      -0.740  13.512  18.519  0.00  0.00    +0.000 A 
ATOM     30  C   UNL     1      -0.493  12.300  19.168  0.00  0.00    +0.000 A 
ATOM     31  F   UNL     1      -1.398  11.321  19.031  0.00  0.00    +0.000 F 
ENDBRANCH  22  24
ENDBRANCH   5  22
TORSDOF 5
ENDMDL
