MODEL 1
REMARK VINA RESULT:      -7.3      0.000      0.000
REMARK  Name = 
REMARK  4 active torsions:
REMARK  status: ('A' for Active; 'I' for Inactive)
REMARK    1  A    between atoms: O_1  and  C_2
REMARK    2  A    between atoms: C_6  and  C_7
REMARK    3  A    between atoms: C_7  and  C_8
REMARK    4  A    between atoms: C_15  and  O_16
REMARK                            x       y       z     vdW  Elec       q    Type
REMARK                         _______ _______ _______ _____ _____    ______ ____
ROOT
ATOM      1  C   UNL     1       6.585   6.312  16.928  0.00  0.00    +0.000 A 
ATOM      2  C   UNL     1       5.411   6.936  17.343  0.00  0.00    +0.000 A 
ATOM      3  C   UNL     1       4.233   6.189  17.473  0.00  0.00    +0.000 A 
ATOM      4 BR   UNL     1       2.690   7.132  18.062  0.00  0.00    +0.000 Br
ATOM      5  C   UNL     1       4.217   4.810  17.191  0.00  0.00    +0.000 A 
ATOM      6  C   UNL     1       5.414   4.207  16.754  0.00  0.00    +0.000 A 
ATOM      7  C   UNL     1       6.584   4.954  16.629  0.00  0.00    +0.000 A 
ENDROOT
BRANCH   1   8
ATOM      8  O   UNL     1       7.747   7.024  16.821  0.00  0.00    +0.000 OA
ATOM      9  H   UNL     1       8.393   6.681  17.457  0.00  0.00    +0.000 HD
ENDBRANCH   1   8
BRANCH   7  10
ATOM     10  O   UNL     1       7.744   4.358  16.221  0.00  0.00    +0.000 OA
ATOM     11  H   UNL     1       8.493   4.757  16.689  0.00  0.00    +0.000 HD
ENDBRANCH   7  10
BRANCH   5  12
ATOM     12  C   UNL     1       2.981   3.942  17.329  0.00  0.00    +0.000 C 
BRANCH  12  13
ATOM     13  C   UNL     1       2.620   3.585  18.753  0.00  0.00    +0.000 A 
ATOM     14  C   UNL     1       1.341   3.861  19.261  0.00  0.00    +0.000 A 
ATOM     15  C   UNL     1       1.018   3.550  20.582  0.00  0.00    +0.000 A 
ATOM     16  C   UNL     1       1.966   2.948  21.408  0.00  0.00    +0.000 A 
ATOM     17  C   UNL     1       3.232   2.647  20.911  0.00  0.00    +0.000 A 
ATOM     18  C   UNL     1       3.555   2.957  19.589  0.00  0.00    +0.000 A 
ENDBRANCH  12  13
ENDBRANCH   5  12
TORSDOF 4
ENDMDL
MODEL 2
REMARK VINA RESULT:      -7.3      0.034      1.207
REMARK  Name = 
REMARK  4 active torsions:
REMARK  status: ('A' for Active; 'I' for Inactive)
REMARK    1  A    between atoms: O_1  and  C_2
REMARK    2  A    between atoms: C_6  and  C_7
REMARK    3  A    between atoms: C_7  and  C_8
REMARK    4  A    between atoms: C_15  and  O_16
REMARK                            x       y       z     vdW  Elec       q    Type
REMARK                         _______ _______ _______ _____ _____    ______ ____
ROOT
ATOM      1  C   UNL     1       6.573   6.303  16.921  0.00  0.00    +0.000 A 
ATOM      2  C   UNL     1       5.403   6.927  17.344  0.00  0.00    +0.000 A 
ATOM      3  C   UNL     1       4.225   6.182  17.481  0.00  0.00    +0.000 A 
ATOM      4 BR   UNL     1       2.688   7.127  18.081  0.00  0.00    +0.000 Br
ATOM      5  C   UNL     1       4.206   4.804  17.200  0.00  0.00    +0.000 A 
ATOM      6  C   UNL     1       5.398   4.198  16.754  0.00  0.00    +0.000 A 
ATOM      7  C   UNL     1       6.569   4.944  16.621  0.00  0.00    +0.000 A 
ENDROOT
BRANCH   1   8
ATOM      8  O   UNL     1       7.735   7.013  16.805  0.00  0.00    +0.000 OA
ATOM      9  H   UNL     1       8.028   7.002  15.881  0.00  0.00    +0.000 HD
ENDBRANCH   1   8
BRANCH   7  10
ATOM     10  O   UNL     1       7.726   4.347  16.205  0.00  0.00    +0.000 OA
ATOM     11  H   UNL     1       7.753   3.435  16.531  0.00  0.00    +0.000 HD
ENDBRANCH   7  10
BRANCH   5  12
ATOM     12  C   UNL     1       2.970   3.936  17.345  0.00  0.00    +0.000 C 
BRANCH  12  13
ATOM     13  C   UNL     1       2.608   3.593  18.773  0.00  0.00    +0.000 A 
ATOM     14  C   UNL     1       3.554   3.019  19.636  0.00  0.00    +0.000 A 
ATOM     15  C   UNL     1       3.212   2.684  20.945  0.00  0.00    +0.000 A 
ATOM     16  C   UNL     1       1.921   2.928  21.412  0.00  0.00    +0.000 A 
ATOM     17  C   UNL     1       0.978   3.518  20.575  0.00  0.00    +0.000 A 
ATOM     18  C   UNL     1       1.321   3.855  19.264  0.00  0.00    +0.000 A 
ENDBRANCH  12  13
ENDBRANCH   5  12
TORSDOF 4
ENDMDL
MODEL 3
REMARK VINA RESULT:      -7.2      1.289      1.852
REMARK  Name = 
REMARK  4 active torsions:
REMARK  status: ('A' for Active; 'I' for Inactive)
REMARK    1  A    between atoms: O_1  and  C_2
REMARK    2  A    between atoms: C_6  and  C_7
REMARK    3  A    between atoms: C_7  and  C_8
REMARK    4  A    between atoms: C_15  and  O_16
REMARK                            x       y       z     vdW  Elec       q    Type
REMARK                         _______ _______ _______ _____ _____    ______ ____
ROOT
ATOM      1  C   UNL     1       6.762   5.755  16.443  0.00  0.00    +0.000 A 
ATOM      2  C   UNL     1       5.612   6.535  16.512  0.00  0.00    +0.000 A 
ATOM      3  C   UNL     1       4.722   6.375  17.582  0.00  0.00    +0.000 A 
ATOM      4 BR   UNL     1       3.191   7.502  17.589  0.00  0.00    +0.000 Br
ATOM      5  C   UNL     1       4.976   5.434  18.597  0.00  0.00    +0.000 A 
ATOM      6  C   UNL     1       6.138   4.642  18.495  0.00  0.00    +0.000 A 
ATOM      7  C   UNL     1       7.021   4.807  17.428  0.00  0.00    +0.000 A 
ENDROOT
BRANCH   1   8
ATOM      8  O   UNL     1       7.650   5.917  15.417  0.00  0.00    +0.000 OA
ATOM      9  H   UNL     1       7.501   6.778  14.997  0.00  0.00    +0.000 HD
ENDBRANCH   1   8
BRANCH   7  10
ATOM     10  O   UNL     1       8.154   4.047  17.345  0.00  0.00    +0.000 OA
ATOM     11  H   UNL     1       8.804   4.498  16.785  0.00  0.00    +0.000 HD
ENDBRANCH   7  10
BRANCH   5  12
ATOM     12  C   UNL     1       4.065   5.224  19.791  0.00  0.00    +0.000 C 
BRANCH  12  13
ATOM     13  C   UNL     1       2.912   4.279  19.542  0.00  0.00    +0.000 A 
ATOM     14  C   UNL     1       2.900   3.439  18.417  0.00  0.00    +0.000 A 
ATOM     15  C   UNL     1       1.825   2.584  18.180  0.00  0.00    +0.000 A 
ATOM     16  C   UNL     1       0.751   2.549  19.069  0.00  0.00    +0.000 A 
ATOM     17  C   UNL     1       0.760   3.359  20.201  0.00  0.00    +0.000 A 
ATOM     18  C   UNL     1       1.837   4.215  20.441  0.00  0.00    +0.000 A 
ENDBRANCH  12  13
ENDBRANCH   5  12
TORSDOF 4
ENDMDL
MODEL 4
REMARK VINA RESULT:      -7.1      1.074      1.276
REMARK  Name = 
REMARK  4 active torsions:
REMARK  status: ('A' for Active; 'I' for Inactive)
REMARK    1  A    between atoms: O_1  and  C_2
REMARK    2  A    between atoms: C_6  and  C_7
REMARK    3  A    between atoms: C_7  and  C_8
REMARK    4  A    between atoms: C_15  and  O_16
REMARK                            x       y       z     vdW  Elec       q    Type
REMARK                         _______ _______ _______ _____ _____    ______ ____
ROOT
ATOM      1  C   UNL     1       6.094   5.962  16.737  0.00  0.00    +0.000 A 
ATOM      2  C   UNL     1       5.200   6.965  17.098  0.00  0.00    +0.000 A 
ATOM      3  C   UNL     1       3.880   6.636  17.435  0.00  0.00    +0.000 A 
ATOM      4 BR   UNL     1       2.745   8.079  17.930  0.00  0.00    +0.000 Br
ATOM      5  C   UNL     1       3.443   5.299  17.417  0.00  0.00    +0.000 A 
ATOM      6  C   UNL     1       4.362   4.303  17.028  0.00  0.00    +0.000 A 
ATOM      7  C   UNL     1       5.675   4.636  16.696  0.00  0.00    +0.000 A 
ENDROOT
BRANCH   1   8
ATOM      8  O   UNL     1       7.390   6.266  16.429  0.00  0.00    +0.000 OA
ATOM      9  H   UNL     1       7.718   5.641  15.765  0.00  0.00    +0.000 HD
ENDBRANCH   1   8
BRANCH   7  10
ATOM     10  O   UNL     1       6.565   3.663  16.337  0.00  0.00    +0.000 OA
ATOM     11  H   UNL     1       7.137   3.456  17.091  0.00  0.00    +0.000 HD
ENDBRANCH   7  10
BRANCH   5  12
ATOM     12  C   UNL     1       2.035   4.873  17.788  0.00  0.00    +0.000 C 
BRANCH  12  13
ATOM     13  C   UNL     1       1.918   4.199  19.136  0.00  0.00    +0.000 A 
ATOM     14  C   UNL     1       2.387   4.829  20.298  0.00  0.00    +0.000 A 
ATOM     15  C   UNL     1       2.297   4.196  21.537  0.00  0.00    +0.000 A 
ATOM     16  C   UNL     1       1.725   2.928  21.632  0.00  0.00    +0.000 A 
ATOM     17  C   UNL     1       1.234   2.300  20.490  0.00  0.00    +0.000 A 
ATOM     18  C   UNL     1       1.323   2.934  19.250  0.00  0.00    +0.000 A 
ENDBRANCH  12  13
ENDBRANCH   5  12
TORSDOF 4
ENDMDL
MODEL 5
REMARK VINA RESULT:      -7.1      1.306      1.645
REMARK  Name = 
REMARK  4 active torsions:
REMARK  status: ('A' for Active; 'I' for Inactive)
REMARK    1  A    between atoms: O_1  and  C_2
REMARK    2  A    between atoms: C_6  and  C_7
REMARK    3  A    between atoms: C_7  and  C_8
REMARK    4  A    between atoms: C_15  and  O_16
REMARK                            x       y       z     vdW  Elec       q    Type
REMARK                         _______ _______ _______ _____ _____    ______ ____
ROOT
ATOM      1  C   UNL     1       6.748   5.707  16.386  0.00  0.00    +0.000 A 
ATOM      2  C   UNL     1       5.589   6.474  16.472  0.00  0.00    +0.000 A 
ATOM      3  C   UNL     1       4.726   6.315  17.564  0.00  0.00    +0.000 A 
ATOM      4 BR   UNL     1       3.181   7.422  17.594  0.00  0.00    +0.000 Br
ATOM      5  C   UNL     1       5.016   5.389  18.584  0.00  0.00    +0.000 A 
ATOM      6  C   UNL     1       6.185   4.611  18.464  0.00  0.00    +0.000 A 
ATOM      7  C   UNL     1       7.041   4.774  17.376  0.00  0.00    +0.000 A 
ENDROOT
BRANCH   1   8
ATOM      8  O   UNL     1       7.610   5.869  15.338  0.00  0.00    +0.000 OA
ATOM      9  H   UNL     1       8.467   6.175  15.672  0.00  0.00    +0.000 HD
ENDBRANCH   1   8
BRANCH   7  10
ATOM     10  O   UNL     1       8.182   4.028  17.276  0.00  0.00    +0.000 OA
ATOM     11  H   UNL     1       8.904   4.586  16.950  0.00  0.00    +0.000 HD
ENDBRANCH   7  10
BRANCH   5  12
ATOM     12  C   UNL     1       4.134   5.181  19.801  0.00  0.00    +0.000 C 
BRANCH  12  13
ATOM     13  C   UNL     1       2.946   4.277  19.569  0.00  0.00    +0.000 A 
ATOM     14  C   UNL     1       1.767   4.431  20.316  0.00  0.00    +0.000 A 
ATOM     15  C   UNL     1       0.681   3.581  20.113  0.00  0.00    +0.000 A 
ATOM     16  C   UNL     1       0.754   2.572  19.154  0.00  0.00    +0.000 A 
ATOM     17  C   UNL     1       1.907   2.422  18.389  0.00  0.00    +0.000 A 
ATOM     18  C   UNL     1       2.996   3.273  18.590  0.00  0.00    +0.000 A 
ENDBRANCH  12  13
ENDBRANCH   5  12
TORSDOF 4
ENDMDL
MODEL 6
REMARK VINA RESULT:      -7.1      1.067      1.154
REMARK  Name = 
REMARK  4 active torsions:
REMARK  status: ('A' for Active; 'I' for Inactive)
REMARK    1  A    between atoms: O_1  and  C_2
REMARK    2  A    between atoms: C_6  and  C_7
REMARK    3  A    between atoms: C_7  and  C_8
REMARK    4  A    between atoms: C_15  and  O_16
REMARK                            x       y       z     vdW  Elec       q    Type
REMARK                         _______ _______ _______ _____ _____    ______ ____
ROOT
ATOM      1  C   UNL     1       6.121   6.032  16.827  0.00  0.00    +0.000 A 
ATOM      2  C   UNL     1       5.209   7.029  17.162  0.00  0.00    +0.000 A 
ATOM      3  C   UNL     1       3.886   6.688  17.474  0.00  0.00    +0.000 A 
ATOM      4 BR   UNL     1       2.725   8.122  17.934  0.00  0.00    +0.000 Br
ATOM      5  C   UNL     1       3.464   5.346  17.457  0.00  0.00    +0.000 A 
ATOM      6  C   UNL     1       4.402   4.357  17.096  0.00  0.00    +0.000 A 
ATOM      7  C   UNL     1       5.717   4.702  16.788  0.00  0.00    +0.000 A 
ENDROOT
BRANCH   1   8
ATOM      8  O   UNL     1       7.420   6.349  16.544  0.00  0.00    +0.000 OA
ATOM      9  H   UNL     1       7.975   5.562  16.659  0.00  0.00    +0.000 HD
ENDBRANCH   1   8
BRANCH   7  10
ATOM     10  O   UNL     1       6.625   3.736  16.455  0.00  0.00    +0.000 OA
ATOM     11  H   UNL     1       6.176   2.880  16.392  0.00  0.00    +0.000 HD
ENDBRANCH   7  10
BRANCH   5  12
ATOM     12  C   UNL     1       2.053   4.908  17.802  0.00  0.00    +0.000 C 
BRANCH  12  13
ATOM     13  C   UNL     1       1.922   4.205  19.134  0.00  0.00    +0.000 A 
ATOM     14  C   UNL     1       1.304   2.948  19.226  0.00  0.00    +0.000 A 
ATOM     15  C   UNL     1       1.165   2.312  20.459  0.00  0.00    +0.000 A 
ATOM     16  C   UNL     1       1.653   2.919  21.615  0.00  0.00    +0.000 A 
ATOM     17  C   UNL     1       2.289   4.156  21.536  0.00  0.00    +0.000 A 
ATOM     18  C   UNL     1       2.429   4.792  20.302  0.00  0.00    +0.000 A 
ENDBRANCH  12  13
ENDBRANCH   5  12
TORSDOF 4
ENDMDL
MODEL 7
REMARK VINA RESULT:      -7.0      2.991      5.322
REMARK  Name = 
REMARK  4 active torsions:
REMARK  status: ('A' for Active; 'I' for Inactive)
REMARK    1  A    between atoms: O_1  and  C_2
REMARK    2  A    between atoms: C_6  and  C_7
REMARK    3  A    between atoms: C_7  and  C_8
REMARK    4  A    between atoms: C_15  and  O_16
REMARK                            x       y       z     vdW  Elec       q    Type
REMARK                         _______ _______ _______ _____ _____    ______ ____
ROOT
ATOM      1  C   UNL     1       1.476   3.600  19.316  0.00  0.00    +0.000 A 
ATOM      2  C   UNL     1       1.637   4.976  19.181  0.00  0.00    +0.000 A 
ATOM      3  C   UNL     1       2.638   5.483  18.342  0.00  0.00    +0.000 A 
ATOM      4 BR   UNL     1       2.762   7.375  18.215  0.00  0.00    +0.000 Br
ATOM      5  C   UNL     1       3.487   4.617  17.628  0.00  0.00    +0.000 A 
ATOM      6  C   UNL     1       3.317   3.228  17.797  0.00  0.00    +0.000 A 
ATOM      7  C   UNL     1       2.318   2.729  18.631  0.00  0.00    +0.000 A 
ENDROOT
BRANCH   1   8
ATOM      8  O   UNL     1       0.488   3.092  20.112  0.00  0.00    +0.000 OA
ATOM      9  H   UNL     1       0.874   2.783  20.946  0.00  0.00    +0.000 HD
ENDBRANCH   1   8
BRANCH   7  10
ATOM     10  O   UNL     1       2.148   1.381  18.776  0.00  0.00    +0.000 OA
ATOM     11  H   UNL     1       1.359   1.101  18.289  0.00  0.00    +0.000 HD
ENDBRANCH   7  10
BRANCH   5  12
ATOM     12  C   UNL     1       4.578   5.100  16.690  0.00  0.00    +0.000 C 
BRANCH  12  13
ATOM     13  C   UNL     1       5.783   5.695  17.382  0.00  0.00    +0.000 A 
ATOM     14  C   UNL     1       6.343   6.904  16.939  0.00  0.00    +0.000 A 
ATOM     15  C   UNL     1       7.467   7.439  17.567  0.00  0.00    +0.000 A 
ATOM     16  C   UNL     1       8.041   6.778  18.652  0.00  0.00    +0.000 A 
ATOM     17  C   UNL     1       7.482   5.590  19.117  0.00  0.00    +0.000 A 
ATOM     18  C   UNL     1       6.356   5.054  18.491  0.00  0.00    +0.000 A 
ENDBRANCH  12  13
ENDBRANCH   5  12
TORSDOF 4
ENDMDL
MODEL 8
REMARK VINA RESULT:      -7.0      2.980      5.369
REMARK  Name = 
REMARK  4 active torsions:
REMARK  status: ('A' for Active; 'I' for Inactive)
REMARK    1  A    between atoms: O_1  and  C_2
REMARK    2  A    between atoms: C_6  and  C_7
REMARK    3  A    between atoms: C_7  and  C_8
REMARK    4  A    between atoms: C_15  and  O_16
REMARK                            x       y       z     vdW  Elec       q    Type
REMARK                         _______ _______ _______ _____ _____    ______ ____
ROOT
ATOM      1  C   UNL     1       1.497   3.564  19.301  0.00  0.00    +0.000 A 
ATOM      2  C   UNL     1       1.649   4.942  19.172  0.00  0.00    +0.000 A 
ATOM      3  C   UNL     1       2.644   5.459  18.333  0.00  0.00    +0.000 A 
ATOM      4 BR   UNL     1       2.757   7.353  18.214  0.00  0.00    +0.000 Br
ATOM      5  C   UNL     1       3.496   4.602  17.611  0.00  0.00    +0.000 A 
ATOM      6  C   UNL     1       3.335   3.211  17.774  0.00  0.00    +0.000 A 
ATOM      7  C   UNL     1       2.341   2.702  18.609  0.00  0.00    +0.000 A 
ENDROOT
BRANCH   1   8
ATOM      8  O   UNL     1       0.514   3.047  20.097  0.00  0.00    +0.000 OA
ATOM      9  H   UNL     1       0.190   3.737  20.697  0.00  0.00    +0.000 HD
ENDBRANCH   1   8
BRANCH   7  10
ATOM     10  O   UNL     1       2.180   1.352  18.748  0.00  0.00    +0.000 OA
ATOM     11  H   UNL     1       3.046   0.934  18.859  0.00  0.00    +0.000 HD
ENDBRANCH   7  10
BRANCH   5  12
ATOM     12  C   UNL     1       4.581   5.096  16.672  0.00  0.00    +0.000 C 
BRANCH  12  13
ATOM     13  C   UNL     1       5.791   5.681  17.364  0.00  0.00    +0.000 A 
ATOM     14  C   UNL     1       6.369   5.037  18.470  0.00  0.00    +0.000 A 
ATOM     15  C   UNL     1       7.472   5.590  19.118  0.00  0.00    +0.000 A 
ATOM     16  C   UNL     1       8.020   6.789  18.663  0.00  0.00    +0.000 A 
ATOM     17  C   UNL     1       7.472   7.427  17.553  0.00  0.00    +0.000 A 
ATOM     18  C   UNL     1       6.368   6.873  16.903  0.00  0.00    +0.000 A 
ENDBRANCH  12  13
ENDBRANCH   5  12
TORSDOF 4
ENDMDL
MODEL 9
REMARK VINA RESULT:      -6.8      2.052      2.441
REMARK  Name = 
REMARK  4 active torsions:
REMARK  status: ('A' for Active; 'I' for Inactive)
REMARK    1  A    between atoms: O_1  and  C_2
REMARK    2  A    between atoms: C_6  and  C_7
REMARK    3  A    between atoms: C_7  and  C_8
REMARK    4  A    between atoms: C_15  and  O_16
REMARK                            x       y       z     vdW  Elec       q    Type
REMARK                         _______ _______ _______ _____ _____    ______ ____
ROOT
ATOM      1  C   UNL     1       7.707   6.607  18.602  0.00  0.00    +0.000 A 
ATOM      2  C   UNL     1       7.057   6.738  17.378  0.00  0.00    +0.000 A 
ATOM      3  C   UNL     1       6.027   5.852  17.037  0.00  0.00    +0.000 A 
ATOM      4 BR   UNL     1       5.193   6.128  15.351  0.00  0.00    +0.000 Br
ATOM      5  C   UNL     1       5.635   4.827  17.918  0.00  0.00    +0.000 A 
ATOM      6  C   UNL     1       6.323   4.702  19.142  0.00  0.00    +0.000 A 
ATOM      7  C   UNL     1       7.345   5.588  19.478  0.00  0.00    +0.000 A 
ENDROOT
BRANCH   1   8
ATOM      8  O   UNL     1       8.698   7.479  18.958  0.00  0.00    +0.000 OA
ATOM      9  H   UNL     1       9.375   7.495  18.265  0.00  0.00    +0.000 HD
ENDBRANCH   1   8
BRANCH   7  10
ATOM     10  O   UNL     1       7.995   5.472  20.675  0.00  0.00    +0.000 OA
ATOM     11  H   UNL     1       8.312   4.563  20.783  0.00  0.00    +0.000 HD
ENDBRANCH   7  10
BRANCH   5  12
ATOM     12  C   UNL     1       4.517   3.847  17.618  0.00  0.00    +0.000 C 
BRANCH  12  13
ATOM     13  C   UNL     1       3.402   3.834  18.639  0.00  0.00    +0.000 A 
ATOM     14  C   UNL     1       2.961   2.628  19.206  0.00  0.00    +0.000 A 
ATOM     15  C   UNL     1       1.918   2.618  20.132  0.00  0.00    +0.000 A 
ATOM     16  C   UNL     1       1.310   3.814  20.511  0.00  0.00    +0.000 A 
ATOM     17  C   UNL     1       1.753   5.020  19.974  0.00  0.00    +0.000 A 
ATOM     18  C   UNL     1       2.798   5.031  19.048  0.00  0.00    +0.000 A 
ENDBRANCH  12  13
ENDBRANCH   5  12
TORSDOF 4
ENDMDL
