MODEL 1
REMARK VINA RESULT:      -7.2      0.000      0.000
REMARK  Name = 
REMARK  3 active torsions:
REMARK  status: ('A' for Active; 'I' for Inactive)
REMARK    1  A    between atoms: S_2  and  C_4
REMARK    2  A    between atoms: S_2  and  C_13
REMARK    3  A    between atoms: C_5  and  C_6
REMARK                            x       y       z     vdW  Elec       q    Type
REMARK                         _______ _______ _______ _____ _____    ______ ____
ROOT
ATOM      1  O   UNL     1       1.521   2.278  17.800  0.00  0.00    +0.000 OA
ATOM      2  S   UNL     1       2.789   2.849  18.214  0.00  0.00    +0.000 S 
ATOM      3  O   UNL     1       3.716   2.058  19.003  0.00  0.00    +0.000 OA
ENDROOT
BRANCH   2   4
ATOM      4  C   UNL     1       2.422   4.318  19.146  0.00  0.00    +0.000 A 
ATOM      5  C   UNL     1       2.767   5.556  18.580  0.00  0.00    +0.000 A 
ATOM      6  C   UNL     1       2.439   6.742  19.236  0.00  0.00    +0.000 A 
ATOM      7  C   UNL     1       1.771   6.701  20.456  0.00  0.00    +0.000 A 
ATOM      8  C   UNL     1       1.446   5.470  21.029  0.00  0.00    +0.000 A 
ATOM      9  C   UNL     1       1.773   4.271  20.383  0.00  0.00    +0.000 A 
ATOM     10 CL   UNL     1       1.314   2.815  21.186  0.00  0.00    +0.000 Cl
ENDBRANCH   2   4
BRANCH   2  11
ATOM     11  C   UNL     1       3.642   3.433  16.825  0.00  0.00    +0.000 C 
ATOM     12  C   UNL     1       4.962   3.662  16.902  0.00  0.00    +0.000 C 
BRANCH  12  13
ATOM     13  C   UNL     1       5.752   4.161  15.775  0.00  0.00    +0.000 A 
ATOM     14  C   UNL     1       5.527   3.744  14.460  0.00  0.00    +0.000 A 
ATOM     15  C   UNL     1       6.347   4.207  13.435  0.00  0.00    +0.000 A 
ATOM     16  C   UNL     1       7.373   5.072  13.766  0.00  0.00    +0.000 A 
ATOM     17 CL   UNL     1       8.451   5.653  12.568  0.00  0.00    +0.000 Cl
ATOM     18  N   UNL     1       7.628   5.508  15.015  0.00  0.00    +0.000 NA
ATOM     19  C   UNL     1       6.811   5.042  15.990  0.00  0.00    +0.000 A 
ENDBRANCH  12  13
ENDBRANCH   2  11
TORSDOF 3
ENDMDL
MODEL 2
REMARK VINA RESULT:      -7.1      3.905      6.803
REMARK  Name = 
REMARK  3 active torsions:
REMARK  status: ('A' for Active; 'I' for Inactive)
REMARK    1  A    between atoms: S_2  and  C_4
REMARK    2  A    between atoms: S_2  and  C_13
REMARK    3  A    between atoms: C_5  and  C_6
REMARK                            x       y       z     vdW  Elec       q    Type
REMARK                         _______ _______ _______ _____ _____    ______ ____
ROOT
ATOM      1  O   UNL     1       4.035   3.555  19.156  0.00  0.00    +0.000 OA
ATOM      2  S   UNL     1       4.066   4.475  18.034  0.00  0.00    +0.000 S 
ATOM      3  O   UNL     1       3.987   3.964  16.677  0.00  0.00    +0.000 OA
ENDROOT
BRANCH   2   4
ATOM      4  C   UNL     1       5.575   5.405  18.161  0.00  0.00    +0.000 A 
ATOM      5  C   UNL     1       6.373   5.206  19.299  0.00  0.00    +0.000 A 
ATOM      6  C   UNL     1       7.600   5.858  19.417  0.00  0.00    +0.000 A 
ATOM      7  C   UNL     1       8.035   6.711  18.408  0.00  0.00    +0.000 A 
ATOM      8  C   UNL     1       7.233   6.926  17.286  0.00  0.00    +0.000 A 
ATOM      9  C   UNL     1       5.996   6.281  17.156  0.00  0.00    +0.000 A 
ATOM     10 CL   UNL     1       5.098   6.622  15.723  0.00  0.00    +0.000 Cl
ENDBRANCH   2   4
BRANCH   2  11
ATOM     11  C   UNL     1       2.820   5.662  18.224  0.00  0.00    +0.000 C 
ATOM     12  C   UNL     1       3.116   6.857  18.757  0.00  0.00    +0.000 C 
BRANCH  12  13
ATOM     13  C   UNL     1       2.120   7.911  18.957  0.00  0.00    +0.000 A 
ATOM     14  C   UNL     1       1.710   8.759  17.924  0.00  0.00    +0.000 A 
ATOM     15  C   UNL     1       0.802   9.782  18.185  0.00  0.00    +0.000 A 
ATOM     16  C   UNL     1       0.339   9.923  19.480  0.00  0.00    +0.000 A 
ATOM     17 CL   UNL     1      -0.749  11.182  19.890  0.00  0.00    +0.000 Cl
ATOM     18  N   UNL     1       0.698   9.129  20.508  0.00  0.00    +0.000 NA
ATOM     19  C   UNL     1       1.580   8.142  20.222  0.00  0.00    +0.000 A 
ENDBRANCH  12  13
ENDBRANCH   2  11
TORSDOF 3
ENDMDL
MODEL 3
REMARK VINA RESULT:      -7.1      3.553      6.585
REMARK  Name = 
REMARK  3 active torsions:
REMARK  status: ('A' for Active; 'I' for Inactive)
REMARK    1  A    between atoms: S_2  and  C_4
REMARK    2  A    between atoms: S_2  and  C_13
REMARK    3  A    between atoms: C_5  and  C_6
REMARK                            x       y       z     vdW  Elec       q    Type
REMARK                         _______ _______ _______ _____ _____    ______ ____
ROOT
ATOM      1  O   UNL     1       5.246   3.398  19.678  0.00  0.00    +0.000 OA
ATOM      2  S   UNL     1       4.379   3.913  18.635  0.00  0.00    +0.000 S 
ATOM      3  O   UNL     1       3.279   3.104  18.143  0.00  0.00    +0.000 OA
ENDROOT
BRANCH   2   4
ATOM      4  C   UNL     1       5.412   4.306  17.243  0.00  0.00    +0.000 A 
ATOM      5  C   UNL     1       5.034   3.808  15.986  0.00  0.00    +0.000 A 
ATOM      6  C   UNL     1       5.770   4.142  14.850  0.00  0.00    +0.000 A 
ATOM      7  C   UNL     1       6.883   4.971  14.960  0.00  0.00    +0.000 A 
ATOM      8  C   UNL     1       7.271   5.450  16.212  0.00  0.00    +0.000 A 
ATOM      9  C   UNL     1       6.543   5.118  17.362  0.00  0.00    +0.000 A 
ATOM     10 CL   UNL     1       7.117   5.776  18.851  0.00  0.00    +0.000 Cl
ENDBRANCH   2   4
BRANCH   2  11
ATOM     11  C   UNL     1       3.731   5.442  19.126  0.00  0.00    +0.000 C 
ATOM     12  C   UNL     1       2.856   6.079  18.333  0.00  0.00    +0.000 C 
BRANCH  12  13
ATOM     13  C   UNL     1       2.269   7.376  18.673  0.00  0.00    +0.000 A 
ATOM     14  C   UNL     1       2.190   8.426  17.753  0.00  0.00    +0.000 A 
ATOM     15  C   UNL     1       1.675   9.658  18.147  0.00  0.00    +0.000 A 
ATOM     16  C   UNL     1       1.261   9.798  19.459  0.00  0.00    +0.000 A 
ATOM     17 CL   UNL     1       0.654  11.293  20.033  0.00  0.00    +0.000 Cl
ATOM     18  N   UNL     1       1.310   8.816  20.382  0.00  0.00    +0.000 NA
ATOM     19  C   UNL     1       1.814   7.630  19.966  0.00  0.00    +0.000 A 
ENDBRANCH  12  13
ENDBRANCH   2  11
TORSDOF 3
ENDMDL
MODEL 4
REMARK VINA RESULT:      -6.9      4.527      7.835
REMARK  Name = 
REMARK  3 active torsions:
REMARK  status: ('A' for Active; 'I' for Inactive)
REMARK    1  A    between atoms: S_2  and  C_4
REMARK    2  A    between atoms: S_2  and  C_13
REMARK    3  A    between atoms: C_5  and  C_6
REMARK                            x       y       z     vdW  Elec       q    Type
REMARK                         _______ _______ _______ _____ _____    ______ ____
ROOT
ATOM      1  O   UNL     1       3.156   6.653  17.627  0.00  0.00    +0.000 OA
ATOM      2  S   UNL     1       3.297   6.059  18.943  0.00  0.00    +0.000 S 
ATOM      3  O   UNL     1       4.619   5.855  19.507  0.00  0.00    +0.000 OA
ENDROOT
BRANCH   2   4
ATOM      4  C   UNL     1       2.494   4.474  18.890  0.00  0.00    +0.000 A 
ATOM      5  C   UNL     1       1.429   4.249  19.777  0.00  0.00    +0.000 A 
ATOM      6  C   UNL     1       0.720   3.049  19.730  0.00  0.00    +0.000 A 
ATOM      7  C   UNL     1       1.069   2.070  18.805  0.00  0.00    +0.000 A 
ATOM      8  C   UNL     1       2.141   2.284  17.937  0.00  0.00    +0.000 A 
ATOM      9  C   UNL     1       2.864   3.483  17.976  0.00  0.00    +0.000 A 
ATOM     10 CL   UNL     1       4.163   3.634  16.850  0.00  0.00    +0.000 Cl
ENDBRANCH   2   4
BRANCH   2  11
ATOM     11  C   UNL     1       2.367   6.965  20.089  0.00  0.00    +0.000 C 
ATOM     12  C   UNL     1       1.811   8.130  19.723  0.00  0.00    +0.000 C 
BRANCH  12  13
ATOM     13  C   UNL     1       1.017   8.956  20.633  0.00  0.00    +0.000 A 
ATOM     14  C   UNL     1       0.983   8.729  22.013  0.00  0.00    +0.000 A 
ATOM     15  C   UNL     1       0.165   9.510  22.825  0.00  0.00    +0.000 A 
ATOM     16  C   UNL     1      -0.599  10.492  22.222  0.00  0.00    +0.000 A 
ATOM     17 CL   UNL     1      -1.661  11.468  23.147  0.00  0.00    +0.000 Cl
ATOM     18  N   UNL     1      -0.597  10.755  20.900  0.00  0.00    +0.000 NA
ATOM     19  C   UNL     1       0.211   9.980  20.138  0.00  0.00    +0.000 A 
ENDBRANCH  12  13
ENDBRANCH   2  11
TORSDOF 3
ENDMDL
MODEL 5
REMARK VINA RESULT:      -6.8      4.495      7.722
REMARK  Name = 
REMARK  3 active torsions:
REMARK  status: ('A' for Active; 'I' for Inactive)
REMARK    1  A    between atoms: S_2  and  C_4
REMARK    2  A    between atoms: S_2  and  C_13
REMARK    3  A    between atoms: C_5  and  C_6
REMARK                            x       y       z     vdW  Elec       q    Type
REMARK                         _______ _______ _______ _____ _____    ______ ____
ROOT
ATOM      1  O   UNL     1       3.270   6.553  17.583  0.00  0.00    +0.000 OA
ATOM      2  S   UNL     1       3.323   6.005  18.926  0.00  0.00    +0.000 S 
ATOM      3  O   UNL     1       4.603   5.843  19.591  0.00  0.00    +0.000 OA
ENDROOT
BRANCH   2   4
ATOM      4  C   UNL     1       2.550   4.405  18.867  0.00  0.00    +0.000 A 
ATOM      5  C   UNL     1       1.451   4.177  19.710  0.00  0.00    +0.000 A 
ATOM      6  C   UNL     1       0.765   2.964  19.656  0.00  0.00    +0.000 A 
ATOM      7  C   UNL     1       1.171   1.975  18.766  0.00  0.00    +0.000 A 
ATOM      8  C   UNL     1       2.277   2.192  17.943  0.00  0.00    +0.000 A 
ATOM      9  C   UNL     1       2.978   3.404  17.990  0.00  0.00    +0.000 A 
ATOM     10 CL   UNL     1       4.323   3.557  16.920  0.00  0.00    +0.000 Cl
ENDBRANCH   2   4
BRANCH   2  11
ATOM     11  C   UNL     1       2.298   6.931  19.970  0.00  0.00    +0.000 C 
ATOM     12  C   UNL     1       1.917   8.165  19.605  0.00  0.00    +0.000 C 
BRANCH  12  13
ATOM     13  C   UNL     1       1.059   9.012  20.434  0.00  0.00    +0.000 A 
ATOM     14  C   UNL     1       0.095   9.864  19.886  0.00  0.00    +0.000 A 
ATOM     15  C   UNL     1      -0.655  10.691  20.718  0.00  0.00    +0.000 A 
ATOM     16  C   UNL     1      -0.405  10.641  22.077  0.00  0.00    +0.000 A 
ATOM     17 CL   UNL     1      -1.256  11.657  23.163  0.00  0.00    +0.000 Cl
ATOM     18  N   UNL     1       0.507   9.834  22.655  0.00  0.00    +0.000 NA
ATOM     19  C   UNL     1       1.218   9.040  21.819  0.00  0.00    +0.000 A 
ENDBRANCH  12  13
ENDBRANCH   2  11
TORSDOF 3
ENDMDL
MODEL 6
REMARK VINA RESULT:      -6.8      3.428      6.504
REMARK  Name = 
REMARK  3 active torsions:
REMARK  status: ('A' for Active; 'I' for Inactive)
REMARK    1  A    between atoms: S_2  and  C_4
REMARK    2  A    between atoms: S_2  and  C_13
REMARK    3  A    between atoms: C_5  and  C_6
REMARK                            x       y       z     vdW  Elec       q    Type
REMARK                         _______ _______ _______ _____ _____    ______ ____
ROOT
ATOM      1  O   UNL     1       4.375   3.112  19.605  0.00  0.00    +0.000 OA
ATOM      2  S   UNL     1       3.765   3.857  18.520  0.00  0.00    +0.000 S 
ATOM      3  O   UNL     1       2.698   3.256  17.740  0.00  0.00    +0.000 OA
ENDROOT
BRANCH   2   4
ATOM      4  C   UNL     1       5.065   4.295  17.390  0.00  0.00    +0.000 A 
ATOM      5  C   UNL     1       4.881   3.993  16.031  0.00  0.00    +0.000 A 
ATOM      6  C   UNL     1       5.839   4.376  15.092  0.00  0.00    +0.000 A 
ATOM      7  C   UNL     1       6.982   5.056  15.502  0.00  0.00    +0.000 A 
ATOM      8  C   UNL     1       7.176   5.337  16.855  0.00  0.00    +0.000 A 
ATOM      9  C   UNL     1       6.224   4.955  17.809  0.00  0.00    +0.000 A 
ATOM     10 CL   UNL     1       6.572   5.364  19.449  0.00  0.00    +0.000 Cl
ENDBRANCH   2   4
BRANCH   2  11
ATOM     11  C   UNL     1       3.192   5.379  19.115  0.00  0.00    +0.000 C 
ATOM     12  C   UNL     1       2.703   6.287  18.256  0.00  0.00    +0.000 C 
BRANCH  12  13
ATOM     13  C   UNL     1       2.206   7.597  18.679  0.00  0.00    +0.000 A 
ATOM     14  C   UNL     1       1.730   7.836  19.972  0.00  0.00    +0.000 A 
ATOM     15  C   UNL     1       1.215   9.087  20.302  0.00  0.00    +0.000 A 
ATOM     16  C   UNL     1       1.189  10.058  19.318  0.00  0.00    +0.000 A 
ATOM     17 CL   UNL     1       0.533  11.609  19.633  0.00  0.00    +0.000 Cl
ATOM     18  N   UNL     1       1.640   9.880  18.060  0.00  0.00    +0.000 NA
ATOM     19  C   UNL     1       2.137   8.654  17.771  0.00  0.00    +0.000 A 
ENDBRANCH  12  13
ENDBRANCH   2  11
TORSDOF 3
ENDMDL
MODEL 7
REMARK VINA RESULT:      -6.8      5.394      6.395
REMARK  Name = 
REMARK  3 active torsions:
REMARK  status: ('A' for Active; 'I' for Inactive)
REMARK    1  A    between atoms: S_2  and  C_4
REMARK    2  A    between atoms: S_2  and  C_13
REMARK    3  A    between atoms: C_5  and  C_6
REMARK                            x       y       z     vdW  Elec       q    Type
REMARK                         _______ _______ _______ _____ _____    ______ ____
ROOT
ATOM      1  O   UNL     1       7.341   5.828  16.127  0.00  0.00    +0.000 OA
ATOM      2  S   UNL     1       7.282   5.718  17.573  0.00  0.00    +0.000 S 
ATOM      3  O   UNL     1       7.876   4.572  18.236  0.00  0.00    +0.000 OA
ENDROOT
BRANCH   2   4
ATOM      4  C   UNL     1       5.565   5.763  18.032  0.00  0.00    +0.000 A 
ATOM      5  C   UNL     1       5.205   5.220  19.275  0.00  0.00    +0.000 A 
ATOM      6  C   UNL     1       3.883   5.291  19.714  0.00  0.00    +0.000 A 
ATOM      7  C   UNL     1       2.917   5.899  18.918  0.00  0.00    +0.000 A 
ATOM      8  C   UNL     1       3.270   6.420  17.673  0.00  0.00    +0.000 A 
ATOM      9  C   UNL     1       4.594   6.352  17.218  0.00  0.00    +0.000 A 
ATOM     10 CL   UNL     1       4.909   7.037  15.666  0.00  0.00    +0.000 Cl
ENDBRANCH   2   4
BRANCH   2  11
ATOM     11  C   UNL     1       7.948   7.147  18.290  0.00  0.00    +0.000 C 
ATOM     12  C   UNL     1       7.859   8.319  17.643  0.00  0.00    +0.000 C 
BRANCH  12  13
ATOM     13  C   UNL     1       8.402   9.569  18.178  0.00  0.00    +0.000 A 
ATOM     14  C   UNL     1       8.289  10.785  17.498  0.00  0.00    +0.000 A 
ATOM     15  C   UNL     1       8.876  11.932  18.026  0.00  0.00    +0.000 A 
ATOM     16  C   UNL     1       9.564  11.818  19.220  0.00  0.00    +0.000 A 
ATOM     17 CL   UNL     1      10.347  13.175  19.914  0.00  0.00    +0.000 Cl
ATOM     18  N   UNL     1       9.695  10.672  19.916  0.00  0.00    +0.000 NA
ATOM     19  C   UNL     1       9.112   9.575  19.378  0.00  0.00    +0.000 A 
ENDBRANCH  12  13
ENDBRANCH   2  11
TORSDOF 3
ENDMDL
MODEL 8
REMARK VINA RESULT:      -6.7      5.301      6.368
REMARK  Name = 
REMARK  3 active torsions:
REMARK  status: ('A' for Active; 'I' for Inactive)
REMARK    1  A    between atoms: S_2  and  C_4
REMARK    2  A    between atoms: S_2  and  C_13
REMARK    3  A    between atoms: C_5  and  C_6
REMARK                            x       y       z     vdW  Elec       q    Type
REMARK                         _______ _______ _______ _____ _____    ______ ____
ROOT
ATOM      1  O   UNL     1       7.396   5.618  16.240  0.00  0.00    +0.000 OA
ATOM      2  S   UNL     1       7.299   5.585  17.687  0.00  0.00    +0.000 S 
ATOM      3  O   UNL     1       7.837   4.455  18.423  0.00  0.00    +0.000 OA
ENDROOT
BRANCH   2   4
ATOM      4  C   UNL     1       5.574   5.710  18.098  0.00  0.00    +0.000 A 
ATOM      5  C   UNL     1       5.164   5.240  19.356  0.00  0.00    +0.000 A 
ATOM      6  C   UNL     1       3.836   5.377  19.756  0.00  0.00    +0.000 A 
ATOM      7  C   UNL     1       2.911   5.977  18.907  0.00  0.00    +0.000 A 
ATOM      8  C   UNL     1       3.312   6.426  17.648  0.00  0.00    +0.000 A 
ATOM      9  C   UNL     1       4.643   6.291  17.231  0.00  0.00    +0.000 A 
ATOM     10 CL   UNL     1       5.020   6.888  15.657  0.00  0.00    +0.000 Cl
ENDBRANCH   2   4
BRANCH   2  11
ATOM     11  C   UNL     1       7.996   7.026  18.347  0.00  0.00    +0.000 C 
ATOM     12  C   UNL     1       7.856   8.191  17.696  0.00  0.00    +0.000 C 
BRANCH  12  13
ATOM     13  C   UNL     1       8.421   9.450  18.185  0.00  0.00    +0.000 A 
ATOM     14  C   UNL     1       9.127   9.537  19.388  0.00  0.00    +0.000 A 
ATOM     15  C   UNL     1       9.592  10.771  19.833  0.00  0.00    +0.000 A 
ATOM     16  C   UNL     1       9.325  11.883  19.056  0.00  0.00    +0.000 A 
ATOM     17 CL   UNL     1       9.827  13.443  19.554  0.00  0.00    +0.000 Cl
ATOM     18  N   UNL     1       8.654  11.852  17.887  0.00  0.00    +0.000 NA
ATOM     19  C   UNL     1       8.218  10.636  17.480  0.00  0.00    +0.000 A 
ENDBRANCH  12  13
ENDBRANCH   2  11
TORSDOF 3
ENDMDL
MODEL 9
REMARK VINA RESULT:      -6.7      3.163      7.524
REMARK  Name = 
REMARK  3 active torsions:
REMARK  status: ('A' for Active; 'I' for Inactive)
REMARK    1  A    between atoms: S_2  and  C_4
REMARK    2  A    between atoms: S_2  and  C_13
REMARK    3  A    between atoms: C_5  and  C_6
REMARK                            x       y       z     vdW  Elec       q    Type
REMARK                         _______ _______ _______ _____ _____    ______ ____
ROOT
ATOM      1  O   UNL     1       5.394   6.866  15.129  0.00  0.00    +0.000 OA
ATOM      2  S   UNL     1       6.141   5.670  15.473  0.00  0.00    +0.000 S 
ATOM      3  O   UNL     1       7.498   5.784  15.975  0.00  0.00    +0.000 OA
ENDROOT
BRANCH   2   4
ATOM      4  C   UNL     1       6.200   4.654  14.015  0.00  0.00    +0.000 A 
ATOM      5  C   UNL     1       5.148   3.749  13.804  0.00  0.00    +0.000 A 
ATOM      6  C   UNL     1       5.109   2.977  12.644  0.00  0.00    +0.000 A 
ATOM      7  C   UNL     1       6.116   3.101  11.692  0.00  0.00    +0.000 A 
ATOM      8  C   UNL     1       7.174   3.984  11.910  0.00  0.00    +0.000 A 
ATOM      9  C   UNL     1       7.228   4.763  13.074  0.00  0.00    +0.000 A 
ATOM     10 CL   UNL     1       8.581   5.823  13.229  0.00  0.00    +0.000 Cl
ENDBRANCH   2   4
BRANCH   2  11
ATOM     11  C   UNL     1       5.234   4.728  16.608  0.00  0.00    +0.000 C 
ATOM     12  C   UNL     1       4.310   5.322  17.378  0.00  0.00    +0.000 C 
BRANCH  12  13
ATOM     13  C   UNL     1       3.508   4.597  18.365  0.00  0.00    +0.000 A 
ATOM     14  C   UNL     1       2.120   4.738  18.450  0.00  0.00    +0.000 A 
ATOM     15  C   UNL     1       1.414   4.069  19.446  0.00  0.00    +0.000 A 
ATOM     16  C   UNL     1       2.128   3.283  20.331  0.00  0.00    +0.000 A 
ATOM     17 CL   UNL     1       1.338   2.461  21.609  0.00  0.00    +0.000 Cl
ATOM     18  N   UNL     1       3.464   3.110  20.288  0.00  0.00    +0.000 NA
ATOM     19  C   UNL     1       4.122   3.772  19.306  0.00  0.00    +0.000 A 
ENDBRANCH  12  13
ENDBRANCH   2  11
TORSDOF 3
ENDMDL
