MODEL 1
REMARK VINA RESULT:      -6.8      0.000      0.000
REMARK  Name = 
REMARK  12 active torsions:
REMARK  status: ('A' for Active; 'I' for Inactive)
REMARK    1  A    between atoms: C_1  and  C_2
REMARK    2  A    between atoms: C_5  and  C_6
REMARK    3  A    between atoms: N_9  and  C_10
REMARK    4  A    between atoms: C_13  and  C_14
REMARK    5  A    between atoms: N_16  and  C_17
REMARK    6  A    between atoms: C_17  and  C_18
REMARK    7  A    between atoms: C_18  and  N_19
REMARK    8  A    between atoms: N_19  and  C_20
REMARK    9  A    between atoms: N_19  and  C_21
REMARK   10  A    between atoms: N_29  and  C_30
REMARK   11  A    between atoms: C_30  and  C_31
REMARK   12  A    between atoms: C_30  and  C_32
REMARK                            x       y       z     vdW  Elec       q    Type
REMARK                         _______ _______ _______ _____ _____    ______ ____
ROOT
ATOM      1  C   UNL     1       1.738  13.698  21.301  0.00  0.00    +0.000 A 
ATOM      2  N   UNL     1       1.549  12.369  21.179  0.00  0.00    +0.000 NA
ATOM      3  C   UNL     1       0.334  11.863  21.453  0.00  0.00    +0.000 A 
ATOM      4  N   UNL     1       0.065  10.507  21.251  0.00  0.00    +0.000 N 
ATOM      5  N   UNL     1      -0.702  12.619  21.857  0.00  0.00    +0.000 NA
ATOM      6  C   UNL     1      -0.473  13.946  21.979  0.00  0.00    +0.000 A 
ATOM      7  C   UNL     1       0.734  14.541  21.717  0.00  0.00    +0.000 A 
ATOM      8  F   UNL     1       0.892  15.863  21.845  0.00  0.00    +0.000 F 
ATOM      9  H   UNL     1      -0.916  10.329  21.420  0.00  0.00    +0.000 HD
ENDROOT
BRANCH   4  10
ATOM     10  C   UNL     1       0.794   9.529  20.563  0.00  0.00    +0.000 A 
ATOM     11  C   UNL     1       1.137   8.334  21.207  0.00  0.00    +0.000 A 
ATOM     12  C   UNL     1       1.789   7.302  20.514  0.00  0.00    +0.000 A 
ATOM     13  C   UNL     1       2.103   7.436  19.151  0.00  0.00    +0.000 A 
ATOM     14  C   UNL     1       1.780   8.627  18.523  0.00  0.00    +0.000 A 
ATOM     15  F   UNL     1       2.054   8.826  17.225  0.00  0.00    +0.000 F 
ATOM     16  C   UNL     1       1.166   9.663  19.224  0.00  0.00    +0.000 A 
BRANCH  13  17
ATOM     17  C   UNL     1       2.779   6.320  18.458  0.00  0.00    +0.000 C 
ATOM     18  O   UNL     1       2.098   5.426  17.948  0.00  0.00    +0.000 OA
ATOM     19  N   UNL     1       4.160   6.312  18.406  0.00  0.00    +0.000 N 
ATOM     20  H   UNL     1       4.700   6.987  18.941  0.00  0.00    +0.000 HD
BRANCH  19  21
ATOM     21  C   UNL     1       4.874   5.197  17.832  0.00  0.00    +0.000 C 
BRANCH  21  22
ATOM     22  C   UNL     1       5.277   5.446  16.370  0.00  0.00    +0.000 C 
BRANCH  22  23
ATOM     23  N   UNL     1       6.730   5.368  16.098  0.00  0.00    +0.000 NA
ATOM     24  C   UNL     1       7.438   4.618  17.140  0.00  0.00    +0.000 C 
ATOM     25  C   UNL     1       6.944   4.714  14.801  0.00  0.00    +0.000 C 
ENDBRANCH  22  23
ENDBRANCH  21  22
ENDBRANCH  19  21
ENDBRANCH  13  17
ENDBRANCH   4  10
BRANCH   1  30
ATOM     26  C   UNL     1       5.841  15.617  19.017  0.00  0.00    +0.000 C 
ATOM     27  C   UNL     1       4.906  15.024  20.007  0.00  0.00    +0.000 A 
ATOM     28  N   UNL     1       5.251  14.815  21.260  0.00  0.00    +0.000 NA
ATOM     29  C   UNL     1       4.151  14.302  21.869  0.00  0.00    +0.000 A 
ATOM     30  C   UNL     1       3.090  14.173  20.993  0.00  0.00    +0.000 A 
ATOM     31  N   UNL     1       3.594  14.638  19.773  0.00  0.00    +0.000 N 
BRANCH  31  32
ATOM     32  C   UNL     1       2.839  14.759  18.527  0.00  0.00    +0.000 C 
ATOM     33  C   UNL     1       2.396  13.415  17.961  0.00  0.00    +0.000 C 
ATOM     34  C   UNL     1       1.687  15.769  18.499  0.00  0.00    +0.000 C 
ENDBRANCH  31  32
ENDBRANCH   1  30
TORSDOF 7
ENDMDL
MODEL 2
REMARK VINA RESULT:      -6.8      1.983      2.623
REMARK  Name = 
REMARK  12 active torsions:
REMARK  status: ('A' for Active; 'I' for Inactive)
REMARK    1  A    between atoms: C_1  and  C_2
REMARK    2  A    between atoms: C_5  and  C_6
REMARK    3  A    between atoms: N_9  and  C_10
REMARK    4  A    between atoms: C_13  and  C_14
REMARK    5  A    between atoms: N_16  and  C_17
REMARK    6  A    between atoms: C_17  and  C_18
REMARK    7  A    between atoms: C_18  and  N_19
REMARK    8  A    between atoms: N_19  and  C_20
REMARK    9  A    between atoms: N_19  and  C_21
REMARK   10  A    between atoms: N_29  and  C_30
REMARK   11  A    between atoms: C_30  and  C_31
REMARK   12  A    between atoms: C_30  and  C_32
REMARK                            x       y       z     vdW  Elec       q    Type
REMARK                         _______ _______ _______ _____ _____    ______ ____
ROOT
ATOM      1  C   UNL     1       2.566  14.274  19.938  0.00  0.00    +0.000 A 
ATOM      2  N   UNL     1       2.088  13.018  19.833  0.00  0.00    +0.000 NA
ATOM      3  C   UNL     1       0.896  12.829  19.241  0.00  0.00    +0.000 A 
ATOM      4  N   UNL     1       0.403  11.540  19.025  0.00  0.00    +0.000 N 
ATOM      5  N   UNL     1       0.148  13.837  18.758  0.00  0.00    +0.000 NA
ATOM      6  C   UNL     1       0.654  15.084  18.891  0.00  0.00    +0.000 A 
ATOM      7  C   UNL     1       1.861  15.361  19.479  0.00  0.00    +0.000 A 
ATOM      8  F   UNL     1       2.310  16.619  19.568  0.00  0.00    +0.000 F 
ATOM      9  H   UNL     1      -0.453  11.590  18.490  0.00  0.00    +0.000 HD
ENDROOT
BRANCH   4  10
ATOM     10  C   UNL     1       1.043  10.296  19.111  0.00  0.00    +0.000 A 
ATOM     11  C   UNL     1       0.945   9.541  20.285  0.00  0.00    +0.000 A 
ATOM     12  C   UNL     1       1.501   8.254  20.364  0.00  0.00    +0.000 A 
ATOM     13  C   UNL     1       2.161   7.686  19.262  0.00  0.00    +0.000 A 
ATOM     14  C   UNL     1       2.274   8.444  18.109  0.00  0.00    +0.000 A 
ATOM     15  F   UNL     1       2.895   7.966  17.020  0.00  0.00    +0.000 F 
ATOM     16  C   UNL     1       1.753   9.735  18.047  0.00  0.00    +0.000 A 
BRANCH  13  17
ATOM     17  C   UNL     1       2.722   6.325  19.386  0.00  0.00    +0.000 C 
ATOM     18  O   UNL     1       2.020   5.423  19.853  0.00  0.00    +0.000 OA
ATOM     19  N   UNL     1       4.024   6.105  18.977  0.00  0.00    +0.000 N 
ATOM     20  H   UNL     1       4.621   6.885  18.718  0.00  0.00    +0.000 HD
BRANCH  19  21
ATOM     21  C   UNL     1       4.655   4.821  19.170  0.00  0.00    +0.000 C 
BRANCH  21  22
ATOM     22  C   UNL     1       4.527   3.912  17.938  0.00  0.00    +0.000 C 
BRANCH  22  23
ATOM     23  N   UNL     1       3.878   2.605  18.188  0.00  0.00    +0.000 NA
ATOM     24  C   UNL     1       3.907   2.247  19.609  0.00  0.00    +0.000 C 
ATOM     25  C   UNL     1       2.484   2.663  17.732  0.00  0.00    +0.000 C 
ENDBRANCH  22  23
ENDBRANCH  21  22
ENDBRANCH  19  21
ENDBRANCH  13  17
ENDBRANCH   4  10
BRANCH   1  30
ATOM     26  C   UNL     1       7.409  15.301  21.042  0.00  0.00    +0.000 C 
ATOM     27  C   UNL     1       5.995  14.852  21.110  0.00  0.00    +0.000 A 
ATOM     28  N   UNL     1       5.461  14.381  22.217  0.00  0.00    +0.000 NA
ATOM     29  C   UNL     1       4.165  14.107  21.919  0.00  0.00    +0.000 A 
ATOM     30  C   UNL     1       3.866  14.399  20.602  0.00  0.00    +0.000 A 
ATOM     31  N   UNL     1       5.072  14.877  20.075  0.00  0.00    +0.000 N 
BRANCH  31  32
ATOM     32  C   UNL     1       5.272  15.374  18.715  0.00  0.00    +0.000 C 
ATOM     33  C   UNL     1       5.553  16.871  18.658  0.00  0.00    +0.000 C 
ATOM     34  C   UNL     1       6.247  14.602  17.821  0.00  0.00    +0.000 C 
ENDBRANCH  31  32
ENDBRANCH   1  30
TORSDOF 7
ENDMDL
MODEL 3
REMARK VINA RESULT:      -6.7      2.947      9.349
REMARK  Name = 
REMARK  12 active torsions:
REMARK  status: ('A' for Active; 'I' for Inactive)
REMARK    1  A    between atoms: C_1  and  C_2
REMARK    2  A    between atoms: C_5  and  C_6
REMARK    3  A    between atoms: N_9  and  C_10
REMARK    4  A    between atoms: C_13  and  C_14
REMARK    5  A    between atoms: N_16  and  C_17
REMARK    6  A    between atoms: C_17  and  C_18
REMARK    7  A    between atoms: C_18  and  N_19
REMARK    8  A    between atoms: N_19  and  C_20
REMARK    9  A    between atoms: N_19  and  C_21
REMARK   10  A    between atoms: N_29  and  C_30
REMARK   11  A    between atoms: C_30  and  C_31
REMARK   12  A    between atoms: C_30  and  C_32
REMARK                            x       y       z     vdW  Elec       q    Type
REMARK                         _______ _______ _______ _____ _____    ______ ____
ROOT
ATOM      1  C   UNL     1       3.905   3.982  19.003  0.00  0.00    +0.000 A 
ATOM      2  N   UNL     1       3.095   5.010  19.325  0.00  0.00    +0.000 NA
ATOM      3  C   UNL     1       2.451   4.979  20.504  0.00  0.00    +0.000 A 
ATOM      4  N   UNL     1       1.676   6.063  20.922  0.00  0.00    +0.000 N 
ATOM      5  N   UNL     1       2.565   3.962  21.376  0.00  0.00    +0.000 NA
ATOM      6  C   UNL     1       3.378   2.942  21.015  0.00  0.00    +0.000 A 
ATOM      7  C   UNL     1       4.071   2.899  19.834  0.00  0.00    +0.000 A 
ATOM      8  F   UNL     1       4.869   1.865  19.543  0.00  0.00    +0.000 F 
ATOM      9  H   UNL     1       1.347   5.900  21.864  0.00  0.00    +0.000 HD
ENDROOT
BRANCH   4  10
ATOM     10  C   UNL     1       1.597   7.369  20.423  0.00  0.00    +0.000 A 
ATOM     11  C   UNL     1       2.022   7.645  19.119  0.00  0.00    +0.000 A 
ATOM     12  C   UNL     1       1.872   8.926  18.566  0.00  0.00    +0.000 A 
ATOM     13  C   UNL     1       1.277   9.964  19.303  0.00  0.00    +0.000 A 
ATOM     14  C   UNL     1       0.876   9.693  20.601  0.00  0.00    +0.000 A 
ATOM     15  F   UNL     1       0.305  10.637  21.364  0.00  0.00    +0.000 F 
ATOM     16  C   UNL     1       1.062   8.429  21.158  0.00  0.00    +0.000 A 
BRANCH  13  17
ATOM     17  C   UNL     1       1.128  11.294  18.678  0.00  0.00    +0.000 C 
ATOM     18  O   UNL     1       2.137  11.914  18.330  0.00  0.00    +0.000 OA
ATOM     19  N   UNL     1      -0.144  11.806  18.506  0.00  0.00    +0.000 N 
ATOM     20  H   UNL     1      -0.949  11.337  18.915  0.00  0.00    +0.000 HD
BRANCH  19  21
ATOM     21  C   UNL     1      -0.344  13.141  17.996  0.00  0.00    +0.000 C 
BRANCH  21  22
ATOM     22  C   UNL     1      -0.426  14.192  19.114  0.00  0.00    +0.000 C 
BRANCH  22  23
ATOM     23  N   UNL     1       0.191  15.499  18.793  0.00  0.00    +0.000 NA
ATOM     24  C   UNL     1      -0.483  16.602  19.485  0.00  0.00    +0.000 C 
ATOM     25  C   UNL     1       1.605  15.475  19.185  0.00  0.00    +0.000 C 
ENDBRANCH  22  23
ENDBRANCH  21  22
ENDBRANCH  19  21
ENDBRANCH  13  17
ENDBRANCH   4  10
BRANCH   1  30
ATOM     26  C   UNL     1       7.008   5.203  15.181  0.00  0.00    +0.000 C 
ATOM     27  C   UNL     1       5.928   4.603  16.005  0.00  0.00    +0.000 A 
ATOM     28  N   UNL     1       5.135   3.660  15.543  0.00  0.00    +0.000 NA
ATOM     29  C   UNL     1       4.306   3.334  16.568  0.00  0.00    +0.000 A 
ATOM     30  C   UNL     1       4.566   4.084  17.699  0.00  0.00    +0.000 A 
ATOM     31  N   UNL     1       5.623   4.921  17.320  0.00  0.00    +0.000 N 
BRANCH  31  32
ATOM     32  C   UNL     1       6.306   5.880  18.187  0.00  0.00    +0.000 C 
ATOM     33  C   UNL     1       7.614   5.345  18.759  0.00  0.00    +0.000 C 
ATOM     34  C   UNL     1       6.486   7.305  17.654  0.00  0.00    +0.000 C 
ENDBRANCH  31  32
ENDBRANCH   1  30
TORSDOF 7
ENDMDL
MODEL 4
REMARK VINA RESULT:      -6.7      2.750      9.058
REMARK  Name = 
REMARK  12 active torsions:
REMARK  status: ('A' for Active; 'I' for Inactive)
REMARK    1  A    between atoms: C_1  and  C_2
REMARK    2  A    between atoms: C_5  and  C_6
REMARK    3  A    between atoms: N_9  and  C_10
REMARK    4  A    between atoms: C_13  and  C_14
REMARK    5  A    between atoms: N_16  and  C_17
REMARK    6  A    between atoms: C_17  and  C_18
REMARK    7  A    between atoms: C_18  and  N_19
REMARK    8  A    between atoms: N_19  and  C_20
REMARK    9  A    between atoms: N_19  and  C_21
REMARK   10  A    between atoms: N_29  and  C_30
REMARK   11  A    between atoms: C_30  and  C_31
REMARK   12  A    between atoms: C_30  and  C_32
REMARK                            x       y       z     vdW  Elec       q    Type
REMARK                         _______ _______ _______ _____ _____    ______ ____
ROOT
ATOM      1  C   UNL     1       3.866   4.124  18.849  0.00  0.00    +0.000 A 
ATOM      2  N   UNL     1       3.069   5.151  19.208  0.00  0.00    +0.000 NA
ATOM      3  C   UNL     1       2.425   5.087  20.386  0.00  0.00    +0.000 A 
ATOM      4  N   UNL     1       1.663   6.165  20.841  0.00  0.00    +0.000 N 
ATOM      5  N   UNL     1       2.526   4.039  21.222  0.00  0.00    +0.000 NA
ATOM      6  C   UNL     1       3.326   3.022  20.825  0.00  0.00    +0.000 A 
ATOM      7  C   UNL     1       4.019   3.011  19.642  0.00  0.00    +0.000 A 
ATOM      8  F   UNL     1       4.804   1.978  19.315  0.00  0.00    +0.000 F 
ATOM      9  H   UNL     1       1.333   5.974  21.778  0.00  0.00    +0.000 HD
ENDROOT
BRANCH   4  10
ATOM     10  C   UNL     1       1.600   7.489  20.388  0.00  0.00    +0.000 A 
ATOM     11  C   UNL     1       2.008   7.801  19.086  0.00  0.00    +0.000 A 
ATOM     12  C   UNL     1       1.872   9.103  18.579  0.00  0.00    +0.000 A 
ATOM     13  C   UNL     1       1.310  10.125  19.361  0.00  0.00    +0.000 A 
ATOM     14  C   UNL     1       0.926   9.818  20.656  0.00  0.00    +0.000 A 
ATOM     15  F   UNL     1       0.387  10.746  21.460  0.00  0.00    +0.000 F 
ATOM     16  C   UNL     1       1.098   8.533  21.168  0.00  0.00    +0.000 A 
BRANCH  13  17
ATOM     17  C   UNL     1       1.175  11.478  18.784  0.00  0.00    +0.000 C 
ATOM     18  O   UNL     1       0.056  11.886  18.459  0.00  0.00    +0.000 OA
ATOM     19  N   UNL     1       2.313  12.245  18.620  0.00  0.00    +0.000 N 
ATOM     20  H   UNL     1       3.233  11.841  18.773  0.00  0.00    +0.000 HD
BRANCH  19  21
ATOM     21  C   UNL     1       2.253  13.532  17.967  0.00  0.00    +0.000 C 
BRANCH  21  22
ATOM     22  C   UNL     1       2.511  14.695  18.937  0.00  0.00    +0.000 C 
BRANCH  22  23
ATOM     23  N   UNL     1       3.583  15.630  18.524  0.00  0.00    +0.000 NA
ATOM     24  C   UNL     1       4.749  14.917  17.994  0.00  0.00    +0.000 C 
ATOM     25  C   UNL     1       3.062  16.537  17.494  0.00  0.00    +0.000 C 
ENDBRANCH  22  23
ENDBRANCH  21  22
ENDBRANCH  19  21
ENDBRANCH  13  17
ENDBRANCH   4  10
BRANCH   1  30
ATOM     26  C   UNL     1       7.109   5.241  15.112  0.00  0.00    +0.000 C 
ATOM     27  C   UNL     1       5.948   4.739  15.891  0.00  0.00    +0.000 A 
ATOM     28  N   UNL     1       5.005   3.999  15.346  0.00  0.00    +0.000 NA
ATOM     29  C   UNL     1       4.139   3.701  16.348  0.00  0.00    +0.000 A 
ATOM     30  C   UNL     1       4.527   4.264  17.549  0.00  0.00    +0.000 A 
ATOM     31  N   UNL     1       5.707   4.951  17.240  0.00  0.00    +0.000 N 
BRANCH  31  32
ATOM     32  C   UNL     1       6.547   5.677  18.191  0.00  0.00    +0.000 C 
ATOM     33  C   UNL     1       7.786   4.897  18.616  0.00  0.00    +0.000 C 
ATOM     34  C   UNL     1       6.905   7.126  17.848  0.00  0.00    +0.000 C 
ENDBRANCH  31  32
ENDBRANCH   1  30
TORSDOF 7
ENDMDL
MODEL 5
REMARK VINA RESULT:      -6.7      3.022      9.329
REMARK  Name = 
REMARK  12 active torsions:
REMARK  status: ('A' for Active; 'I' for Inactive)
REMARK    1  A    between atoms: C_1  and  C_2
REMARK    2  A    between atoms: C_5  and  C_6
REMARK    3  A    between atoms: N_9  and  C_10
REMARK    4  A    between atoms: C_13  and  C_14
REMARK    5  A    between atoms: N_16  and  C_17
REMARK    6  A    between atoms: C_17  and  C_18
REMARK    7  A    between atoms: C_18  and  N_19
REMARK    8  A    between atoms: N_19  and  C_20
REMARK    9  A    between atoms: N_19  and  C_21
REMARK   10  A    between atoms: N_29  and  C_30
REMARK   11  A    between atoms: C_30  and  C_31
REMARK   12  A    between atoms: C_30  and  C_32
REMARK                            x       y       z     vdW  Elec       q    Type
REMARK                         _______ _______ _______ _____ _____    ______ ____
ROOT
ATOM      1  C   UNL     1       3.922   3.953  18.976  0.00  0.00    +0.000 A 
ATOM      2  N   UNL     1       3.124   4.996  19.281  0.00  0.00    +0.000 NA
ATOM      3  C   UNL     1       2.441   4.968  20.438  0.00  0.00    +0.000 A 
ATOM      4  N   UNL     1       1.675   6.065  20.841  0.00  0.00    +0.000 N 
ATOM      5  N   UNL     1       2.504   3.941  21.304  0.00  0.00    +0.000 NA
ATOM      6  C   UNL     1       3.306   2.908  20.960  0.00  0.00    +0.000 A 
ATOM      7  C   UNL     1       4.037   2.860  19.802  0.00  0.00    +0.000 A 
ATOM      8  F   UNL     1       4.822   1.811  19.527  0.00  0.00    +0.000 F 
ATOM      9  H   UNL     1       1.312   5.901  21.770  0.00  0.00    +0.000 HD
ENDROOT
BRANCH   4  10
ATOM     10  C   UNL     1       1.641   7.378  20.352  0.00  0.00    +0.000 A 
ATOM     11  C   UNL     1       2.027   7.641  19.033  0.00  0.00    +0.000 A 
ATOM     12  C   UNL     1       1.918   8.932  18.492  0.00  0.00    +0.000 A 
ATOM     13  C   UNL     1       1.405   9.992  19.258  0.00  0.00    +0.000 A 
ATOM     14  C   UNL     1       1.043   9.732  20.570  0.00  0.00    +0.000 A 
ATOM     15  F   UNL     1       0.551  10.698  21.360  0.00  0.00    +0.000 F 
ATOM     16  C   UNL     1       1.189   8.457  21.113  0.00  0.00    +0.000 A 
BRANCH  13  17
ATOM     17  C   UNL     1       1.296  11.333  18.646  0.00  0.00    +0.000 C 
ATOM     18  O   UNL     1       2.309  11.873  18.194  0.00  0.00    +0.000 OA
ATOM     19  N   UNL     1       0.057  11.943  18.604  0.00  0.00    +0.000 N 
ATOM     20  H   UNL     1      -0.735  11.537  19.096  0.00  0.00    +0.000 HD
BRANCH  19  21
ATOM     21  C   UNL     1      -0.089  13.292  18.112  0.00  0.00    +0.000 C 
BRANCH  21  22
ATOM     22  C   UNL     1      -0.469  14.285  19.221  0.00  0.00    +0.000 C 
BRANCH  22  23
ATOM     23  N   UNL     1      -0.524  13.711  20.585  0.00  0.00    +0.000 NA
ATOM     24  C   UNL     1       0.487  14.305  21.465  0.00  0.00    +0.000 C 
ATOM     25  C   UNL     1      -1.857  13.943  21.153  0.00  0.00    +0.000 C 
ENDBRANCH  22  23
ENDBRANCH  21  22
ENDBRANCH  19  21
ENDBRANCH  13  17
ENDBRANCH   4  10
BRANCH   1  30
ATOM     26  C   UNL     1       7.147   5.177  15.257  0.00  0.00    +0.000 C 
ATOM     27  C   UNL     1       6.044   4.573  16.047  0.00  0.00    +0.000 A 
ATOM     28  N   UNL     1       5.277   3.619  15.564  0.00  0.00    +0.000 NA
ATOM     29  C   UNL     1       4.415   3.293  16.561  0.00  0.00    +0.000 A 
ATOM     30  C   UNL     1       4.628   4.053  17.696  0.00  0.00    +0.000 A 
ATOM     31  N   UNL     1       5.689   4.897  17.348  0.00  0.00    +0.000 N 
BRANCH  31  32
ATOM     32  C   UNL     1       6.333   5.868  18.231  0.00  0.00    +0.000 C 
ATOM     33  C   UNL     1       7.636   5.357  18.836  0.00  0.00    +0.000 C 
ATOM     34  C   UNL     1       6.500   7.296  17.703  0.00  0.00    +0.000 C 
ENDBRANCH  31  32
ENDBRANCH   1  30
TORSDOF 7
ENDMDL
MODEL 6
REMARK VINA RESULT:      -6.6      2.783      9.179
REMARK  Name = 
REMARK  12 active torsions:
REMARK  status: ('A' for Active; 'I' for Inactive)
REMARK    1  A    between atoms: C_1  and  C_2
REMARK    2  A    between atoms: C_5  and  C_6
REMARK    3  A    between atoms: N_9  and  C_10
REMARK    4  A    between atoms: C_13  and  C_14
REMARK    5  A    between atoms: N_16  and  C_17
REMARK    6  A    between atoms: C_17  and  C_18
REMARK    7  A    between atoms: C_18  and  N_19
REMARK    8  A    between atoms: N_19  and  C_20
REMARK    9  A    between atoms: N_19  and  C_21
REMARK   10  A    between atoms: N_29  and  C_30
REMARK   11  A    between atoms: C_30  and  C_31
REMARK   12  A    between atoms: C_30  and  C_32
REMARK                            x       y       z     vdW  Elec       q    Type
REMARK                         _______ _______ _______ _____ _____    ______ ____
ROOT
ATOM      1  C   UNL     1       3.890   3.966  19.055  0.00  0.00    +0.000 A 
ATOM      2  N   UNL     1       3.045   4.984  19.315  0.00  0.00    +0.000 NA
ATOM      3  C   UNL     1       2.387   4.992  20.487  0.00  0.00    +0.000 A 
ATOM      4  N   UNL     1       1.574   6.071  20.840  0.00  0.00    +0.000 N 
ATOM      5  N   UNL     1       2.521   4.024  21.411  0.00  0.00    +0.000 NA
ATOM      6  C   UNL     1       3.368   3.013  21.111  0.00  0.00    +0.000 A 
ATOM      7  C   UNL     1       4.078   2.932  19.942  0.00  0.00    +0.000 A 
ATOM      8  F   UNL     1       4.911   1.910  19.713  0.00  0.00    +0.000 F 
ATOM      9  H   UNL     1       1.238   5.946  21.786  0.00  0.00    +0.000 HD
ENDROOT
BRANCH   4  10
ATOM     10  C   UNL     1       1.462   7.348  20.275  0.00  0.00    +0.000 A 
ATOM     11  C   UNL     1       0.917   8.397  21.023  0.00  0.00    +0.000 A 
ATOM     12  C   UNL     1       0.876   9.704  20.512  0.00  0.00    +0.000 A 
ATOM     13  C   UNL     1       1.394   9.996  19.240  0.00  0.00    +0.000 A 
ATOM     14  C   UNL     1       1.914   8.951  18.493  0.00  0.00    +0.000 A 
ATOM     15  F   UNL     1       2.421   9.156  17.268  0.00  0.00    +0.000 F 
ATOM     16  C   UNL     1       1.919   7.649  18.990  0.00  0.00    +0.000 A 
BRANCH  13  17
ATOM     17  C   UNL     1       1.340  11.387  18.745  0.00  0.00    +0.000 C 
ATOM     18  O   UNL     1       2.392  11.966  18.461  0.00  0.00    +0.000 OA
ATOM     19  N   UNL     1       0.108  11.999  18.621  0.00  0.00    +0.000 N 
ATOM     20  H   UNL     1      -0.730  11.549  18.981  0.00  0.00    +0.000 HD
BRANCH  19  21
ATOM     21  C   UNL     1       0.004  13.388  18.241  0.00  0.00    +0.000 C 
BRANCH  21  22
ATOM     22  C   UNL     1      -0.375  14.294  19.423  0.00  0.00    +0.000 C 
BRANCH  22  23
ATOM     23  N   UNL     1       0.736  15.101  19.976  0.00  0.00    +0.000 NA
ATOM     24  C   UNL     1       1.423  14.402  21.067  0.00  0.00    +0.000 C 
ATOM     25  C   UNL     1       1.698  15.394  18.907  0.00  0.00    +0.000 C 
ENDBRANCH  22  23
ENDBRANCH  21  22
ENDBRANCH  19  21
ENDBRANCH  13  17
ENDBRANCH   4  10
BRANCH   1  30
ATOM     26  C   UNL     1       7.031   5.054  15.224  0.00  0.00    +0.000 C 
ATOM     27  C   UNL     1       5.943   4.483  16.058  0.00  0.00    +0.000 A 
ATOM     28  N   UNL     1       5.156   3.522  15.622  0.00  0.00    +0.000 NA
ATOM     29  C   UNL     1       4.317   3.232  16.649  0.00  0.00    +0.000 A 
ATOM     30  C   UNL     1       4.564   4.023  17.755  0.00  0.00    +0.000 A 
ATOM     31  N   UNL     1       5.624   4.847  17.358  0.00  0.00    +0.000 N 
BRANCH  31  32
ATOM     32  C   UNL     1       6.298   5.836  18.197  0.00  0.00    +0.000 C 
ATOM     33  C   UNL     1       7.605   5.328  18.792  0.00  0.00    +0.000 C 
ATOM     34  C   UNL     1       6.472   7.245  17.619  0.00  0.00    +0.000 C 
ENDBRANCH  31  32
ENDBRANCH   1  30
TORSDOF 7
ENDMDL
MODEL 7
REMARK VINA RESULT:      -6.6      1.353      1.508
REMARK  Name = 
REMARK  12 active torsions:
REMARK  status: ('A' for Active; 'I' for Inactive)
REMARK    1  A    between atoms: C_1  and  C_2
REMARK    2  A    between atoms: C_5  and  C_6
REMARK    3  A    between atoms: N_9  and  C_10
REMARK    4  A    between atoms: C_13  and  C_14
REMARK    5  A    between atoms: N_16  and  C_17
REMARK    6  A    between atoms: C_17  and  C_18
REMARK    7  A    between atoms: C_18  and  N_19
REMARK    8  A    between atoms: N_19  and  C_20
REMARK    9  A    between atoms: N_19  and  C_21
REMARK   10  A    between atoms: N_29  and  C_30
REMARK   11  A    between atoms: C_30  and  C_31
REMARK   12  A    between atoms: C_30  and  C_32
REMARK                            x       y       z     vdW  Elec       q    Type
REMARK                         _______ _______ _______ _____ _____    ______ ____
ROOT
ATOM      1  C   UNL     1       0.562  13.904  21.777  0.00  0.00    +0.000 A 
ATOM      2  N   UNL     1       0.654  12.572  21.584  0.00  0.00    +0.000 NA
ATOM      3  C   UNL     1      -0.380  11.795  21.947  0.00  0.00    +0.000 A 
ATOM      4  N   UNL     1      -0.369  10.424  21.682  0.00  0.00    +0.000 N 
ATOM      5  N   UNL     1      -1.501  12.280  22.509  0.00  0.00    +0.000 NA
ATOM      6  C   UNL     1      -1.554  13.619  22.697  0.00  0.00    +0.000 A 
ATOM      7  C   UNL     1      -0.546  14.480  22.352  0.00  0.00    +0.000 A 
ATOM      8  F   UNL     1      -0.666  15.797  22.555  0.00  0.00    +0.000 F 
ATOM      9  H   UNL     1      -1.261  10.023  21.940  0.00  0.00    +0.000 HD
ENDROOT
BRANCH   4  10
ATOM     10  C   UNL     1       0.470   9.665  20.856  0.00  0.00    +0.000 A 
ATOM     11  C   UNL     1       1.054   8.491  21.345  0.00  0.00    +0.000 A 
ATOM     12  C   UNL     1       1.826   7.667  20.511  0.00  0.00    +0.000 A 
ATOM     13  C   UNL     1       2.022   7.992  19.159  0.00  0.00    +0.000 A 
ATOM     14  C   UNL     1       1.459   9.165  18.683  0.00  0.00    +0.000 A 
ATOM     15  F   UNL     1       1.609   9.540  17.404  0.00  0.00    +0.000 F 
ATOM     16  C   UNL     1       0.725   9.999  19.524  0.00  0.00    +0.000 A 
BRANCH  13  17
ATOM     17  C   UNL     1       2.832   7.091  18.314  0.00  0.00    +0.000 C 
ATOM     18  O   UNL     1       3.600   7.575  17.479  0.00  0.00    +0.000 OA
ATOM     19  N   UNL     1       2.699   5.726  18.485  0.00  0.00    +0.000 N 
ATOM     20  H   UNL     1       1.970   5.350  19.086  0.00  0.00    +0.000 HD
BRANCH  19  21
ATOM     21  C   UNL     1       3.388   4.799  17.619  0.00  0.00    +0.000 C 
BRANCH  21  22
ATOM     22  C   UNL     1       4.715   4.309  18.219  0.00  0.00    +0.000 C 
BRANCH  22  23
ATOM     23  N   UNL     1       5.884   5.177  17.948  0.00  0.00    +0.000 NA
ATOM     24  C   UNL     1       6.647   5.456  19.168  0.00  0.00    +0.000 C 
ATOM     25  C   UNL     1       6.758   4.517  16.970  0.00  0.00    +0.000 C 
ENDBRANCH  22  23
ENDBRANCH  21  22
ENDBRANCH  19  21
ENDBRANCH  13  17
ENDBRANCH   4  10
BRANCH   1  30
ATOM     26  C   UNL     1       3.971  16.565  19.125  0.00  0.00    +0.000 C 
ATOM     27  C   UNL     1       3.241  15.865  20.213  0.00  0.00    +0.000 A 
ATOM     28  N   UNL     1       3.641  15.907  21.466  0.00  0.00    +0.000 NA
ATOM     29  C   UNL     1       2.727  15.194  22.174  0.00  0.00    +0.000 A 
ATOM     30  C   UNL     1       1.732  14.683  21.362  0.00  0.00    +0.000 A 
ATOM     31  N   UNL     1       2.080  15.118  20.078  0.00  0.00    +0.000 N 
BRANCH  31  32
ATOM     32  C   UNL     1       1.309  14.882  18.858  0.00  0.00    +0.000 C 
ATOM     33  C   UNL     1       1.409  13.448  18.352  0.00  0.00    +0.000 C 
ATOM     34  C   UNL     1      -0.144  15.367  18.842  0.00  0.00    +0.000 C 
ENDBRANCH  31  32
ENDBRANCH   1  30
TORSDOF 7
ENDMDL
MODEL 8
REMARK VINA RESULT:      -6.6      2.366      3.008
REMARK  Name = 
REMARK  12 active torsions:
REMARK  status: ('A' for Active; 'I' for Inactive)
REMARK    1  A    between atoms: C_1  and  C_2
REMARK    2  A    between atoms: C_5  and  C_6
REMARK    3  A    between atoms: N_9  and  C_10
REMARK    4  A    between atoms: C_13  and  C_14
REMARK    5  A    between atoms: N_16  and  C_17
REMARK    6  A    between atoms: C_17  and  C_18
REMARK    7  A    between atoms: C_18  and  N_19
REMARK    8  A    between atoms: N_19  and  C_20
REMARK    9  A    between atoms: N_19  and  C_21
REMARK   10  A    between atoms: N_29  and  C_30
REMARK   11  A    between atoms: C_30  and  C_31
REMARK   12  A    between atoms: C_30  and  C_32
REMARK                            x       y       z     vdW  Elec       q    Type
REMARK                         _______ _______ _______ _____ _____    ______ ____
ROOT
ATOM      1  C   UNL     1       1.967  14.299  19.139  0.00  0.00    +0.000 A 
ATOM      2  N   UNL     1       1.641  13.031  19.461  0.00  0.00    +0.000 NA
ATOM      3  C   UNL     1       0.341  12.705  19.564  0.00  0.00    +0.000 A 
ATOM      4  N   UNL     1      -0.046  11.385  19.804  0.00  0.00    +0.000 N 
ATOM      5  N   UNL     1      -0.654  13.588  19.372  0.00  0.00    +0.000 NA
ATOM      6  C   UNL     1      -0.290  14.853  19.060  0.00  0.00    +0.000 A 
ATOM      7  C   UNL     1       1.011  15.266  18.934  0.00  0.00    +0.000 A 
ATOM      8  F   UNL     1       1.303  16.531  18.611  0.00  0.00    +0.000 F 
ATOM      9  H   UNL     1      -1.053  11.314  19.756  0.00  0.00    +0.000 HD
ENDROOT
BRANCH   4  10
ATOM     10  C   UNL     1       0.692  10.196  19.741  0.00  0.00    +0.000 A 
ATOM     11  C   UNL     1       0.800   9.381  20.873  0.00  0.00    +0.000 A 
ATOM     12  C   UNL     1       1.459   8.142  20.812  0.00  0.00    +0.000 A 
ATOM     13  C   UNL     1       2.016   7.682  19.608  0.00  0.00    +0.000 A 
ATOM     14  C   UNL     1       1.925   8.500  18.494  0.00  0.00    +0.000 A 
ATOM     15  F   UNL     1       2.438   8.126  17.312  0.00  0.00    +0.000 F 
ATOM     16  C   UNL     1       1.303   9.745  18.569  0.00  0.00    +0.000 A 
BRANCH  13  17
ATOM     17  C   UNL     1       2.690   6.367  19.586  0.00  0.00    +0.000 C 
ATOM     18  O   UNL     1       3.784   6.260  19.026  0.00  0.00    +0.000 OA
ATOM     19  N   UNL     1       2.066   5.293  20.192  0.00  0.00    +0.000 N 
ATOM     20  H   UNL     1       1.112   5.375  20.532  0.00  0.00    +0.000 HD
BRANCH  19  21
ATOM     21  C   UNL     1       2.630   3.966  20.112  0.00  0.00    +0.000 C 
BRANCH  21  22
ATOM     22  C   UNL     1       1.715   2.983  19.365  0.00  0.00    +0.000 C 
BRANCH  22  23
ATOM     23  N   UNL     1       2.305   2.377  18.151  0.00  0.00    +0.000 NA
ATOM     24  C   UNL     1       2.696   3.394  17.170  0.00  0.00    +0.000 C 
ATOM     25  C   UNL     1       3.486   1.591  18.529  0.00  0.00    +0.000 C 
ENDBRANCH  22  23
ENDBRANCH  21  22
ENDBRANCH  19  21
ENDBRANCH  13  17
ENDBRANCH   4  10
BRANCH   1  30
ATOM     26  C   UNL     1       6.815  15.336  20.212  0.00  0.00    +0.000 C 
ATOM     27  C   UNL     1       5.545  15.026  19.507  0.00  0.00    +0.000 A 
ATOM     28  N   UNL     1       5.499  14.798  18.212  0.00  0.00    +0.000 NA
ATOM     29  C   UNL     1       4.201  14.520  17.927  0.00  0.00    +0.000 A 
ATOM     30  C   UNL     1       3.403  14.579  19.054  0.00  0.00    +0.000 A 
ATOM     31  N   UNL     1       4.287  14.921  20.083  0.00  0.00    +0.000 N 
BRANCH  31  32
ATOM     32  C   UNL     1       3.941  15.057  21.497  0.00  0.00    +0.000 C 
ATOM     33  C   UNL     1       4.722  14.110  22.400  0.00  0.00    +0.000 C 
ATOM     34  C   UNL     1       3.917  16.473  22.082  0.00  0.00    +0.000 C 
ENDBRANCH  31  32
ENDBRANCH   1  30
TORSDOF 7
ENDMDL
MODEL 9
REMARK VINA RESULT:      -6.6      1.708      2.150
REMARK  Name = 
REMARK  12 active torsions:
REMARK  status: ('A' for Active; 'I' for Inactive)
REMARK    1  A    between atoms: C_1  and  C_2
REMARK    2  A    between atoms: C_5  and  C_6
REMARK    3  A    between atoms: N_9  and  C_10
REMARK    4  A    between atoms: C_13  and  C_14
REMARK    5  A    between atoms: N_16  and  C_17
REMARK    6  A    between atoms: C_17  and  C_18
REMARK    7  A    between atoms: C_18  and  N_19
REMARK    8  A    between atoms: N_19  and  C_20
REMARK    9  A    between atoms: N_19  and  C_21
REMARK   10  A    between atoms: N_29  and  C_30
REMARK   11  A    between atoms: C_30  and  C_31
REMARK   12  A    between atoms: C_30  and  C_32
REMARK                            x       y       z     vdW  Elec       q    Type
REMARK                         _______ _______ _______ _____ _____    ______ ____
ROOT
ATOM      1  C   UNL     1       1.321  14.153  21.424  0.00  0.00    +0.000 A 
ATOM      2  N   UNL     1       1.145  12.818  21.353  0.00  0.00    +0.000 NA
ATOM      3  C   UNL     1      -0.086  12.318  21.550  0.00  0.00    +0.000 A 
ATOM      4  N   UNL     1      -0.335  10.952  21.395  0.00  0.00    +0.000 N 
ATOM      5  N   UNL     1      -1.155  13.086  21.829  0.00  0.00    +0.000 NA
ATOM      6  C   UNL     1      -0.939  14.419  21.903  0.00  0.00    +0.000 A 
ATOM      7  C   UNL     1       0.283  15.008  21.713  0.00  0.00    +0.000 A 
ATOM      8  F   UNL     1       0.426  16.337  21.788  0.00  0.00    +0.000 F 
ATOM      9  H   UNL     1      -1.326  10.776  21.491  0.00  0.00    +0.000 HD
ENDROOT
BRANCH   4  10
ATOM     10  C   UNL     1       0.452   9.946  20.819  0.00  0.00    +0.000 A 
ATOM     11  C   UNL     1       0.807   8.821  21.573  0.00  0.00    +0.000 A 
ATOM     12  C   UNL     1       1.518   7.759  20.994  0.00  0.00    +0.000 A 
ATOM     13  C   UNL     1       1.881   7.790  19.637  0.00  0.00    +0.000 A 
ATOM     14  C   UNL     1       1.545   8.913  18.899  0.00  0.00    +0.000 A 
ATOM     15  F   UNL     1       1.864   9.013  17.600  0.00  0.00    +0.000 F 
ATOM     16  C   UNL     1       0.872   9.982  19.488  0.00  0.00    +0.000 A 
BRANCH  13  17
ATOM     17  C   UNL     1       2.618   6.645  19.065  0.00  0.00    +0.000 C 
ATOM     18  O   UNL     1       2.361   6.274  17.917  0.00  0.00    +0.000 OA
ATOM     19  N   UNL     1       3.576   6.019  19.842  0.00  0.00    +0.000 N 
ATOM     20  H   UNL     1       3.679   6.258  20.825  0.00  0.00    +0.000 HD
BRANCH  19  21
ATOM     21  C   UNL     1       4.253   4.834  19.372  0.00  0.00    +0.000 C 
BRANCH  21  22
ATOM     22  C   UNL     1       3.571   3.541  19.845  0.00  0.00    +0.000 C 
BRANCH  22  23
ATOM     23  N   UNL     1       2.647   2.925  18.866  0.00  0.00    +0.000 NA
ATOM     24  C   UNL     1       3.299   1.858  18.101  0.00  0.00    +0.000 C 
ATOM     25  C   UNL     1       1.488   2.371  19.578  0.00  0.00    +0.000 C 
ENDBRANCH  22  23
ENDBRANCH  21  22
ENDBRANCH  19  21
ENDBRANCH  13  17
ENDBRANCH   4  10
BRANCH   1  30
ATOM     26  C   UNL     1       5.611  15.923  19.378  0.00  0.00    +0.000 C 
ATOM     27  C   UNL     1       4.589  15.409  20.324  0.00  0.00    +0.000 A 
ATOM     28  N   UNL     1       4.810  15.324  21.619  0.00  0.00    +0.000 NA
ATOM     29  C   UNL     1       3.660  14.851  22.164  0.00  0.00    +0.000 A 
ATOM     30  C   UNL     1       2.692  14.621  21.206  0.00  0.00    +0.000 A 
ATOM     31  N   UNL     1       3.310  14.979  20.001  0.00  0.00    +0.000 N 
BRANCH  31  32
ATOM     32  C   UNL     1       2.681  14.968  18.682  0.00  0.00    +0.000 C 
ATOM     33  C   UNL     1       2.374  13.564  18.175  0.00  0.00    +0.000 C 
ATOM     34  C   UNL     1       1.483  15.899  18.467  0.00  0.00    +0.000 C 
ENDBRANCH  31  32
ENDBRANCH   1  30
TORSDOF 7
ENDMDL
