MODEL 1
REMARK VINA RESULT:      -7.0      0.000      0.000
REMARK  Name = 
REMARK  8 active torsions:
REMARK  status: ('A' for Active; 'I' for Inactive)
REMARK    1  A    between atoms: C_1  and  O_2
REMARK    2  A    between atoms: O_2  and  C_3
REMARK    3  A    between atoms: C_6  and  O_7
REMARK    4  A    between atoms: O_7  and  C_8
REMARK    5  A    between atoms: C_9  and  N_10
REMARK    6  A    between atoms: C_11  and  C_13
REMARK    7  A    between atoms: N_17  and  S_18
REMARK    8  A    between atoms: S_18  and  C_19
REMARK                            x       y       z     vdW  Elec       q    Type
REMARK                         _______ _______ _______ _____ _____    ______ ____
ROOT
ATOM      1  N   UNL     1       3.008   5.359  18.314  0.00  0.00    +0.000 N 
ATOM      2  C   UNL     1       2.357   4.436  17.512  0.00  0.00    +0.000 C 
ATOM      3  O   UNL     1       1.148   4.432  17.286  0.00  0.00    +0.000 OA
ATOM      4  H   UNL     1       3.850   5.029  18.764  0.00  0.00    +0.000 HD
ENDROOT
BRANCH   1   9
ATOM      5  C   UNL     1       1.853   8.869  18.333  0.00  0.00    +0.000 A 
ATOM      6  C   UNL     1       1.432   9.042  19.647  0.00  0.00    +0.000 A 
ATOM      7  C   UNL     1       1.486   7.982  20.550  0.00  0.00    +0.000 A 
ATOM      8  C   UNL     1       1.999   6.735  20.165  0.00  0.00    +0.000 A 
ATOM      9  C   UNL     1       2.451   6.555  18.843  0.00  0.00    +0.000 A 
ATOM     10  C   UNL     1       2.340   7.624  17.930  0.00  0.00    +0.000 A 
BRANCH   5  12
ATOM     11  C   UNL     1       2.165  11.219  18.125  0.00  0.00    +0.000 C 
ATOM     12  O   UNL     1       1.746   9.987  17.554  0.00  0.00    +0.000 OA
ENDBRANCH   5  12
BRANCH   8  13
ATOM     13  O   UNL     1       1.934   5.658  21.012  0.00  0.00    +0.000 OA
ATOM     14  C   UNL     1       1.004   4.645  20.630  0.00  0.00    +0.000 C 
ENDBRANCH   8  13
ENDBRANCH   1   9
BRANCH   2  15
ATOM     15  C   UNL     1       3.250   3.256  17.083  0.00  0.00    +0.000 C 
ATOM     16  C   UNL     1       3.160   1.994  17.950  0.00  0.00    +0.000 C 
ATOM     17  C   UNL     1       3.735   2.232  19.348  0.00  0.00    +0.000 C 
ATOM     18  C   UNL     1       5.151   2.812  19.309  0.00  0.00    +0.000 C 
ATOM     19  N   UNL     1       5.191   3.988  18.415  0.00  0.00    +0.000 NA
ATOM     20  C   UNL     1       4.709   3.714  17.034  0.00  0.00    +0.000 C 
BRANCH  19  21
ATOM     21  S   UNL     1       6.564   4.980  18.527  0.00  0.00    +0.000 S 
ATOM     22  C   UNL     1       6.070   6.381  17.542  0.00  0.00    +0.000 C 
ATOM     23  O   UNL     1       6.689   5.433  19.895  0.00  0.00    +0.000 OA
ATOM     24  O   UNL     1       7.657   4.296  17.864  0.00  0.00    +0.000 OA
ENDBRANCH  19  21
ENDBRANCH   2  15
TORSDOF 5
ENDMDL
MODEL 2
REMARK VINA RESULT:      -6.8      3.240      6.812
REMARK  Name = 
REMARK  8 active torsions:
REMARK  status: ('A' for Active; 'I' for Inactive)
REMARK    1  A    between atoms: C_1  and  O_2
REMARK    2  A    between atoms: O_2  and  C_3
REMARK    3  A    between atoms: C_6  and  O_7
REMARK    4  A    between atoms: O_7  and  C_8
REMARK    5  A    between atoms: C_9  and  N_10
REMARK    6  A    between atoms: C_11  and  C_13
REMARK    7  A    between atoms: N_17  and  S_18
REMARK    8  A    between atoms: S_18  and  C_19
REMARK                            x       y       z     vdW  Elec       q    Type
REMARK                         _______ _______ _______ _____ _____    ______ ____
ROOT
ATOM      1  N   UNL     1       1.478   8.545  18.683  0.00  0.00    +0.000 N 
ATOM      2  C   UNL     1       1.490   9.811  18.121  0.00  0.00    +0.000 C 
ATOM      3  O   UNL     1       2.456  10.319  17.556  0.00  0.00    +0.000 OA
ATOM      4  H   UNL     1       0.842   8.417  19.457  0.00  0.00    +0.000 HD
ENDROOT
BRANCH   1   9
ATOM      5  C   UNL     1       4.384   6.825  17.181  0.00  0.00    +0.000 A 
ATOM      6  C   UNL     1       4.527   5.706  17.995  0.00  0.00    +0.000 A 
ATOM      7  C   UNL     1       3.684   5.516  19.088  0.00  0.00    +0.000 A 
ATOM      8  C   UNL     1       2.653   6.425  19.367  0.00  0.00    +0.000 A 
ATOM      9  C   UNL     1       2.483   7.551  18.536  0.00  0.00    +0.000 A 
ATOM     10  C   UNL     1       3.379   7.752  17.466  0.00  0.00    +0.000 A 
BRANCH   5  12
ATOM     11  C   UNL     1       5.581   5.674  15.477  0.00  0.00    +0.000 C 
ATOM     12  O   UNL     1       5.275   6.889  16.148  0.00  0.00    +0.000 OA
ENDBRANCH   5  12
BRANCH   8  13
ATOM     13  O   UNL     1       1.906   6.309  20.512  0.00  0.00    +0.000 OA
ATOM     14  C   UNL     1       1.779   4.980  21.017  0.00  0.00    +0.000 C 
ENDBRANCH   8  13
ENDBRANCH   1   9
BRANCH   2  15
ATOM     15  C   UNL     1       0.235  10.643  18.453  0.00  0.00    +0.000 C 
ATOM     16  C   UNL     1       0.453  12.153  18.615  0.00  0.00    +0.000 C 
ATOM     17  C   UNL     1       1.284  12.469  19.860  0.00  0.00    +0.000 C 
ATOM     18  C   UNL     1       0.715  11.823  21.125  0.00  0.00    +0.000 C 
ATOM     19  N   UNL     1       0.472  10.383  20.893  0.00  0.00    +0.000 NA
ATOM     20  C   UNL     1      -0.411  10.101  19.729  0.00  0.00    +0.000 C 
BRANCH  19  21
ATOM     21  S   UNL     1       0.197   9.428  22.269  0.00  0.00    +0.000 S 
ATOM     22  C   UNL     1      -0.963  10.435  23.172  0.00  0.00    +0.000 C 
ATOM     23  O   UNL     1      -0.495   8.226  21.860  0.00  0.00    +0.000 OA
ATOM     24  O   UNL     1       1.441   9.358  23.011  0.00  0.00    +0.000 OA
ENDBRANCH  19  21
ENDBRANCH   2  15
TORSDOF 5
ENDMDL
MODEL 3
REMARK VINA RESULT:      -6.8      2.545      5.707
REMARK  Name = 
REMARK  8 active torsions:
REMARK  status: ('A' for Active; 'I' for Inactive)
REMARK    1  A    between atoms: C_1  and  O_2
REMARK    2  A    between atoms: O_2  and  C_3
REMARK    3  A    between atoms: C_6  and  O_7
REMARK    4  A    between atoms: O_7  and  C_8
REMARK    5  A    between atoms: C_9  and  N_10
REMARK    6  A    between atoms: C_11  and  C_13
REMARK    7  A    between atoms: N_17  and  S_18
REMARK    8  A    between atoms: S_18  and  C_19
REMARK                            x       y       z     vdW  Elec       q    Type
REMARK                         _______ _______ _______ _____ _____    ______ ____
ROOT
ATOM      1  N   UNL     1       3.915   5.203  17.383  0.00  0.00    +0.000 N 
ATOM      2  C   UNL     1       3.385   6.429  17.752  0.00  0.00    +0.000 C 
ATOM      3  O   UNL     1       4.031   7.469  17.856  0.00  0.00    +0.000 OA
ATOM      4  H   UNL     1       3.433   4.392  17.745  0.00  0.00    +0.000 HD
ENDROOT
BRANCH   1   9
ATOM      5  C   UNL     1       6.542   4.676  14.839  0.00  0.00    +0.000 A 
ATOM      6  C   UNL     1       7.679   4.477  15.615  0.00  0.00    +0.000 A 
ATOM      7  C   UNL     1       7.607   4.553  17.004  0.00  0.00    +0.000 A 
ATOM      8  C   UNL     1       6.385   4.792  17.648  0.00  0.00    +0.000 A 
ATOM      9  C   UNL     1       5.221   4.971  16.874  0.00  0.00    +0.000 A 
ATOM     10  C   UNL     1       5.324   4.942  15.468  0.00  0.00    +0.000 A 
BRANCH   5  12
ATOM     11  C   UNL     1       6.060   3.545  12.802  0.00  0.00    +0.000 C 
ATOM     12  O   UNL     1       6.753   4.575  13.492  0.00  0.00    +0.000 OA
ENDBRANCH   5  12
BRANCH   8  13
ATOM     13  O   UNL     1       6.334   4.993  19.005  0.00  0.00    +0.000 OA
ATOM     14  C   UNL     1       7.463   5.670  19.557  0.00  0.00    +0.000 C 
ENDBRANCH   8  13
ENDBRANCH   1   9
BRANCH   2  15
ATOM     15  C   UNL     1       1.927   6.345  18.243  0.00  0.00    +0.000 C 
ATOM     16  C   UNL     1       1.612   7.093  19.546  0.00  0.00    +0.000 C 
ATOM     17  C   UNL     1       2.305   6.445  20.746  0.00  0.00    +0.000 C 
ATOM     18  C   UNL     1       2.017   4.945  20.850  0.00  0.00    +0.000 C 
ATOM     19  N   UNL     1       2.282   4.288  19.554  0.00  0.00    +0.000 NA
ATOM     20  C   UNL     1       1.531   4.877  18.413  0.00  0.00    +0.000 C 
BRANCH  19  21
ATOM     21  S   UNL     1       2.379   2.593  19.568  0.00  0.00    +0.000 S 
ATOM     22  C   UNL     1       4.128   2.341  19.803  0.00  0.00    +0.000 C 
ATOM     23  O   UNL     1       1.706   2.107  20.752  0.00  0.00    +0.000 OA
ATOM     24  O   UNL     1       2.005   2.119  18.250  0.00  0.00    +0.000 OA
ENDBRANCH  19  21
ENDBRANCH   2  15
TORSDOF 5
ENDMDL
MODEL 4
REMARK VINA RESULT:      -6.7      2.560      5.573
REMARK  Name = 
REMARK  8 active torsions:
REMARK  status: ('A' for Active; 'I' for Inactive)
REMARK    1  A    between atoms: C_1  and  O_2
REMARK    2  A    between atoms: O_2  and  C_3
REMARK    3  A    between atoms: C_6  and  O_7
REMARK    4  A    between atoms: O_7  and  C_8
REMARK    5  A    between atoms: C_9  and  N_10
REMARK    6  A    between atoms: C_11  and  C_13
REMARK    7  A    between atoms: N_17  and  S_18
REMARK    8  A    between atoms: S_18  and  C_19
REMARK                            x       y       z     vdW  Elec       q    Type
REMARK                         _______ _______ _______ _____ _____    ______ ____
ROOT
ATOM      1  N   UNL     1       4.632   3.664  18.168  0.00  0.00    +0.000 N 
ATOM      2  C   UNL     1       4.040   2.430  18.383  0.00  0.00    +0.000 C 
ATOM      3  O   UNL     1       4.027   1.507  17.570  0.00  0.00    +0.000 OA
ATOM      4  H   UNL     1       4.222   4.438  18.671  0.00  0.00    +0.000 HD
ENDROOT
BRANCH   1   9
ATOM      5  C   UNL     1       5.637   4.198  14.653  0.00  0.00    +0.000 A 
ATOM      6  C   UNL     1       6.965   4.592  14.774  0.00  0.00    +0.000 A 
ATOM      7  C   UNL     1       7.548   4.728  16.032  0.00  0.00    +0.000 A 
ATOM      8  C   UNL     1       6.823   4.434  17.196  0.00  0.00    +0.000 A 
ATOM      9  C   UNL     1       5.484   4.011  17.085  0.00  0.00    +0.000 A 
ATOM     10  C   UNL     1       4.896   3.930  15.806  0.00  0.00    +0.000 A 
BRANCH   5  12
ATOM     11  C   UNL     1       5.981   3.352  12.456  0.00  0.00    +0.000 C 
ATOM     12  O   UNL     1       5.191   4.106  13.364  0.00  0.00    +0.000 OA
ENDBRANCH   5  12
BRANCH   8  13
ATOM     13  O   UNL     1       7.353   4.689  18.436  0.00  0.00    +0.000 OA
ATOM     14  C   UNL     1       7.728   6.047  18.664  0.00  0.00    +0.000 C 
ENDBRANCH   8  13
ENDBRANCH   1   9
BRANCH   2  15
ATOM     15  C   UNL     1       3.191   2.370  19.667  0.00  0.00    +0.000 C 
ATOM     16  C   UNL     1       1.767   1.820  19.508  0.00  0.00    +0.000 C 
ATOM     17  C   UNL     1       0.890   2.765  18.685  0.00  0.00    +0.000 C 
ATOM     18  C   UNL     1       0.903   4.197  19.225  0.00  0.00    +0.000 C 
ATOM     19  N   UNL     1       2.297   4.653  19.413  0.00  0.00    +0.000 NA
ATOM     20  C   UNL     1       3.109   3.766  20.288  0.00  0.00    +0.000 C 
BRANCH  19  21
ATOM     21  S   UNL     1       2.525   6.319  19.647  0.00  0.00    +0.000 S 
ATOM     22  C   UNL     1       1.888   6.981  18.119  0.00  0.00    +0.000 C 
ATOM     23  O   UNL     1       1.647   6.756  20.710  0.00  0.00    +0.000 OA
ATOM     24  O   UNL     1       3.953   6.564  19.710  0.00  0.00    +0.000 OA
ENDBRANCH  19  21
ENDBRANCH   2  15
TORSDOF 5
ENDMDL
MODEL 5
REMARK VINA RESULT:      -6.7      1.415      1.658
REMARK  Name = 
REMARK  8 active torsions:
REMARK  status: ('A' for Active; 'I' for Inactive)
REMARK    1  A    between atoms: C_1  and  O_2
REMARK    2  A    between atoms: O_2  and  C_3
REMARK    3  A    between atoms: C_6  and  O_7
REMARK    4  A    between atoms: O_7  and  C_8
REMARK    5  A    between atoms: C_9  and  N_10
REMARK    6  A    between atoms: C_11  and  C_13
REMARK    7  A    between atoms: N_17  and  S_18
REMARK    8  A    between atoms: S_18  and  C_19
REMARK                            x       y       z     vdW  Elec       q    Type
REMARK                         _______ _______ _______ _____ _____    ______ ____
ROOT
ATOM      1  N   UNL     1       3.081   5.450  18.521  0.00  0.00    +0.000 N 
ATOM      2  C   UNL     1       2.525   4.546  17.632  0.00  0.00    +0.000 C 
ATOM      3  O   UNL     1       1.330   4.482  17.350  0.00  0.00    +0.000 OA
ATOM      4  H   UNL     1       3.923   5.143  18.988  0.00  0.00    +0.000 HD
ENDROOT
BRANCH   1   9
ATOM      5  C   UNL     1       1.713   8.877  18.720  0.00  0.00    +0.000 A 
ATOM      6  C   UNL     1       1.218   8.930  20.019  0.00  0.00    +0.000 A 
ATOM      7  C   UNL     1       1.291   7.813  20.848  0.00  0.00    +0.000 A 
ATOM      8  C   UNL     1       1.898   6.629  20.406  0.00  0.00    +0.000 A 
ATOM      9  C   UNL     1       2.425   6.571  19.101  0.00  0.00    +0.000 A 
ATOM     10  C   UNL     1       2.294   7.694  18.260  0.00  0.00    +0.000 A 
BRANCH   5  12
ATOM     11  C   UNL     1       1.086  11.172  18.720  0.00  0.00    +0.000 C 
ATOM     12  O   UNL     1       1.576  10.040  18.016  0.00  0.00    +0.000 OA
ENDBRANCH   5  12
BRANCH   8  13
ATOM     13  O   UNL     1       1.858   5.491  21.173  0.00  0.00    +0.000 OA
ATOM     14  C   UNL     1       0.982   4.471  20.693  0.00  0.00    +0.000 C 
ENDBRANCH   8  13
ENDBRANCH   1   9
BRANCH   2  15
ATOM     15  C   UNL     1       3.510   3.454  17.168  0.00  0.00    +0.000 C 
ATOM     16  C   UNL     1       4.220   2.672  18.281  0.00  0.00    +0.000 C 
ATOM     17  C   UNL     1       5.195   3.561  19.056  0.00  0.00    +0.000 C 
ATOM     18  C   UNL     1       6.179   4.291  18.139  0.00  0.00    +0.000 C 
ATOM     19  N   UNL     1       5.445   4.977  17.055  0.00  0.00    +0.000 NA
ATOM     20  C   UNL     1       4.568   4.079  16.257  0.00  0.00    +0.000 C 
BRANCH  19  21
ATOM     21  S   UNL     1       6.313   6.132  16.164  0.00  0.00    +0.000 S 
ATOM     22  C   UNL     1       6.997   7.141  17.465  0.00  0.00    +0.000 C 
ATOM     23  O   UNL     1       7.415   5.467  15.505  0.00  0.00    +0.000 OA
ATOM     24  O   UNL     1       5.356   6.918  15.410  0.00  0.00    +0.000 OA
ENDBRANCH  19  21
ENDBRANCH   2  15
TORSDOF 5
ENDMDL
MODEL 6
REMARK VINA RESULT:      -6.5      1.625      1.969
REMARK  Name = 
REMARK  8 active torsions:
REMARK  status: ('A' for Active; 'I' for Inactive)
REMARK    1  A    between atoms: C_1  and  O_2
REMARK    2  A    between atoms: O_2  and  C_3
REMARK    3  A    between atoms: C_6  and  O_7
REMARK    4  A    between atoms: O_7  and  C_8
REMARK    5  A    between atoms: C_9  and  N_10
REMARK    6  A    between atoms: C_11  and  C_13
REMARK    7  A    between atoms: N_17  and  S_18
REMARK    8  A    between atoms: S_18  and  C_19
REMARK                            x       y       z     vdW  Elec       q    Type
REMARK                         _______ _______ _______ _____ _____    ______ ____
ROOT
ATOM      1  N   UNL     1       3.276   5.530  18.761  0.00  0.00    +0.000 N 
ATOM      2  C   UNL     1       2.838   4.526  17.913  0.00  0.00    +0.000 C 
ATOM      3  O   UNL     1       1.699   4.438  17.459  0.00  0.00    +0.000 OA
ATOM      4  H   UNL     1       4.027   5.276  19.388  0.00  0.00    +0.000 HD
ENDROOT
BRANCH   1   9
ATOM      5  C   UNL     1       1.977   8.961  18.316  0.00  0.00    +0.000 A 
ATOM      6  C   UNL     1       1.302   9.186  19.511  0.00  0.00    +0.000 A 
ATOM      7  C   UNL     1       1.228   8.187  20.479  0.00  0.00    +0.000 A 
ATOM      8  C   UNL     1       1.863   6.951  20.286  0.00  0.00    +0.000 A 
ATOM      9  C   UNL     1       2.571   6.720  19.090  0.00  0.00    +0.000 A 
ATOM     10  C   UNL     1       2.590   7.724  18.101  0.00  0.00    +0.000 A 
BRANCH   5  12
ATOM     11  C   UNL     1       2.223  11.307  18.007  0.00  0.00    +0.000 C 
ATOM     12  O   UNL     1       1.972  10.022  17.455  0.00  0.00    +0.000 OA
ENDBRANCH   5  12
BRANCH   8  13
ATOM     13  O   UNL     1       1.686   5.924  21.178  0.00  0.00    +0.000 OA
ATOM     14  C   UNL     1       0.976   4.796  20.666  0.00  0.00    +0.000 C 
ENDBRANCH   8  13
ENDBRANCH   1   9
BRANCH   2  15
ATOM     15  C   UNL     1       3.851   3.376  17.746  0.00  0.00    +0.000 C 
ATOM     16  C   UNL     1       4.786   3.126  18.936  0.00  0.00    +0.000 C 
ATOM     17  C   UNL     1       5.769   4.283  19.130  0.00  0.00    +0.000 C 
ATOM     18  C   UNL     1       6.533   4.624  17.849  0.00  0.00    +0.000 C 
ATOM     19  N   UNL     1       5.588   4.797  16.726  0.00  0.00    +0.000 NA
ATOM     20  C   UNL     1       4.701   3.625  16.498  0.00  0.00    +0.000 C 
BRANCH  19  21
ATOM     21  S   UNL     1       6.201   5.534  15.325  0.00  0.00    +0.000 S 
ATOM     22  C   UNL     1       5.941   4.256  14.110  0.00  0.00    +0.000 C 
ATOM     23  O   UNL     1       5.341   6.644  14.979  0.00  0.00    +0.000 OA
ATOM     24  O   UNL     1       7.626   5.724  15.515  0.00  0.00    +0.000 OA
ENDBRANCH  19  21
ENDBRANCH   2  15
TORSDOF 5
ENDMDL
MODEL 7
REMARK VINA RESULT:      -6.5      2.504      4.704
REMARK  Name = 
REMARK  8 active torsions:
REMARK  status: ('A' for Active; 'I' for Inactive)
REMARK    1  A    between atoms: C_1  and  O_2
REMARK    2  A    between atoms: O_2  and  C_3
REMARK    3  A    between atoms: C_6  and  O_7
REMARK    4  A    between atoms: O_7  and  C_8
REMARK    5  A    between atoms: C_9  and  N_10
REMARK    6  A    between atoms: C_11  and  C_13
REMARK    7  A    between atoms: N_17  and  S_18
REMARK    8  A    between atoms: S_18  and  C_19
REMARK                            x       y       z     vdW  Elec       q    Type
REMARK                         _______ _______ _______ _____ _____    ______ ____
ROOT
ATOM      1  N   UNL     1       3.095   3.880  17.865  0.00  0.00    +0.000 N 
ATOM      2  C   UNL     1       1.717   3.791  17.762  0.00  0.00    +0.000 C 
ATOM      3  O   UNL     1       1.012   4.554  17.105  0.00  0.00    +0.000 OA
ATOM      4  H   UNL     1       3.494   3.520  18.722  0.00  0.00    +0.000 HD
ENDROOT
BRANCH   1   9
ATOM      5  C   UNL     1       5.488   4.784  15.198  0.00  0.00    +0.000 A 
ATOM      6  C   UNL     1       5.715   6.135  15.441  0.00  0.00    +0.000 A 
ATOM      7  C   UNL     1       5.047   6.788  16.474  0.00  0.00    +0.000 A 
ATOM      8  C   UNL     1       4.165   6.092  17.313  0.00  0.00    +0.000 A 
ATOM      9  C   UNL     1       3.945   4.718  17.092  0.00  0.00    +0.000 A 
ATOM     10  C   UNL     1       4.590   4.087  16.009  0.00  0.00    +0.000 A 
BRANCH   5  12
ATOM     11  C   UNL     1       7.345   5.002  13.727  0.00  0.00    +0.000 C 
ATOM     12  O   UNL     1       6.205   4.269  14.155  0.00  0.00    +0.000 OA
ENDBRANCH   5  12
BRANCH   8  13
ATOM     13  O   UNL     1       3.412   6.757  18.247  0.00  0.00    +0.000 OA
ATOM     14  C   UNL     1       2.724   7.909  17.758  0.00  0.00    +0.000 C 
ENDBRANCH   8  13
ENDBRANCH   1   9
BRANCH   2  15
ATOM     15  C   UNL     1       1.093   2.767  18.729  0.00  0.00    +0.000 C 
ATOM     16  C   UNL     1       0.307   3.349  19.911  0.00  0.00    +0.000 C 
ATOM     17  C   UNL     1       1.229   4.074  20.894  0.00  0.00    +0.000 C 
ATOM     18  C   UNL     1       2.403   3.204  21.348  0.00  0.00    +0.000 C 
ATOM     19  N   UNL     1       3.086   2.624  20.172  0.00  0.00    +0.000 NA
ATOM     20  C   UNL     1       2.189   1.849  19.275  0.00  0.00    +0.000 C 
BRANCH  19  21
ATOM     21  S   UNL     1       4.616   1.942  20.445  0.00  0.00    +0.000 S 
ATOM     22  C   UNL     1       4.615   0.594  19.278  0.00  0.00    +0.000 C 
ATOM     23  O   UNL     1       5.622   2.888  20.016  0.00  0.00    +0.000 OA
ATOM     24  O   UNL     1       4.625   1.403  21.791  0.00  0.00    +0.000 OA
ENDBRANCH  19  21
ENDBRANCH   2  15
TORSDOF 5
ENDMDL
MODEL 8
REMARK VINA RESULT:      -6.4      2.626      5.725
REMARK  Name = 
REMARK  8 active torsions:
REMARK  status: ('A' for Active; 'I' for Inactive)
REMARK    1  A    between atoms: C_1  and  O_2
REMARK    2  A    between atoms: O_2  and  C_3
REMARK    3  A    between atoms: C_6  and  O_7
REMARK    4  A    between atoms: O_7  and  C_8
REMARK    5  A    between atoms: C_9  and  N_10
REMARK    6  A    between atoms: C_11  and  C_13
REMARK    7  A    between atoms: N_17  and  S_18
REMARK    8  A    between atoms: S_18  and  C_19
REMARK                            x       y       z     vdW  Elec       q    Type
REMARK                         _______ _______ _______ _____ _____    ______ ____
ROOT
ATOM      1  N   UNL     1       3.902   4.904  17.267  0.00  0.00    +0.000 N 
ATOM      2  C   UNL     1       3.253   6.071  17.635  0.00  0.00    +0.000 C 
ATOM      3  O   UNL     1       3.763   7.189  17.630  0.00  0.00    +0.000 OA
ATOM      4  H   UNL     1       3.568   4.059  17.710  0.00  0.00    +0.000 HD
ENDROOT
BRANCH   1   9
ATOM      5  C   UNL     1       6.326   4.362  14.531  0.00  0.00    +0.000 A 
ATOM      6  C   UNL     1       7.549   4.524  15.173  0.00  0.00    +0.000 A 
ATOM      7  C   UNL     1       7.597   4.857  16.525  0.00  0.00    +0.000 A 
ATOM      8  C   UNL     1       6.419   4.997  17.273  0.00  0.00    +0.000 A 
ATOM      9  C   UNL     1       5.174   4.811  16.639  0.00  0.00    +0.000 A 
ATOM     10  C   UNL     1       5.146   4.527  15.259  0.00  0.00    +0.000 A 
BRANCH   5  12
ATOM     11  C   UNL     1       5.274   3.474  12.591  0.00  0.00    +0.000 C 
ATOM     12  O   UNL     1       6.423   4.039  13.207  0.00  0.00    +0.000 OA
ENDBRANCH   5  12
BRANCH   8  13
ATOM     13  O   UNL     1       6.459   5.447  18.569  0.00  0.00    +0.000 OA
ATOM     14  C   UNL     1       7.733   5.925  19.002  0.00  0.00    +0.000 C 
ENDBRANCH   8  13
ENDBRANCH   1   9
BRANCH   2  15
ATOM     15  C   UNL     1       1.872   5.830  18.275  0.00  0.00    +0.000 C 
ATOM     16  C   UNL     1       1.458   6.816  19.375  0.00  0.00    +0.000 C 
ATOM     17  C   UNL     1       2.329   6.660  20.624  0.00  0.00    +0.000 C 
ATOM     18  C   UNL     1       2.381   5.215  21.125  0.00  0.00    +0.000 C 
ATOM     19  N   UNL     1       2.726   4.305  20.013  0.00  0.00    +0.000 NA
ATOM     20  C   UNL     1       1.814   4.410  18.842  0.00  0.00    +0.000 C 
BRANCH  19  21
ATOM     21  S   UNL     1       3.193   2.729  20.438  0.00  0.00    +0.000 S 
ATOM     22  C   UNL     1       2.169   1.753  19.355  0.00  0.00    +0.000 C 
ATOM     23  O   UNL     1       4.566   2.534  20.033  0.00  0.00    +0.000 OA
ATOM     24  O   UNL     1       2.780   2.504  21.810  0.00  0.00    +0.000 OA
ENDBRANCH  19  21
ENDBRANCH   2  15
TORSDOF 5
ENDMDL
MODEL 9
REMARK VINA RESULT:      -6.4      7.225      9.390
REMARK  Name = 
REMARK  8 active torsions:
REMARK  status: ('A' for Active; 'I' for Inactive)
REMARK    1  A    between atoms: C_1  and  O_2
REMARK    2  A    between atoms: O_2  and  C_3
REMARK    3  A    between atoms: C_6  and  O_7
REMARK    4  A    between atoms: O_7  and  C_8
REMARK    5  A    between atoms: C_9  and  N_10
REMARK    6  A    between atoms: C_11  and  C_13
REMARK    7  A    between atoms: N_17  and  S_18
REMARK    8  A    between atoms: S_18  and  C_19
REMARK                            x       y       z     vdW  Elec       q    Type
REMARK                         _______ _______ _______ _____ _____    ______ ____
ROOT
ATOM      1  N   UNL     1      -1.575  11.612  19.109  0.00  0.00    +0.000 N 
ATOM      2  C   UNL     1      -0.714  10.639  19.590  0.00  0.00    +0.000 C 
ATOM      3  O   UNL     1      -0.795   9.440  19.331  0.00  0.00    +0.000 OA
ATOM      4  H   UNL     1      -1.690  12.425  19.698  0.00  0.00    +0.000 HD
ENDROOT
BRANCH   1   9
ATOM      5  C   UNL     1      -2.931  10.741  15.783  0.00  0.00    +0.000 A 
ATOM      6  C   UNL     1      -4.280  11.051  15.916  0.00  0.00    +0.000 A 
ATOM      7  C   UNL     1      -4.780  11.521  17.128  0.00  0.00    +0.000 A 
ATOM      8  C   UNL     1      -3.930  11.727  18.224  0.00  0.00    +0.000 A 
ATOM      9  C   UNL     1      -2.557  11.439  18.095  0.00  0.00    +0.000 A 
ATOM     10  C   UNL     1      -2.080  10.915  16.876  0.00  0.00    +0.000 A 
BRANCH   5  12
ATOM     11  C   UNL     1      -3.626   9.966  13.643  0.00  0.00    +0.000 C 
ATOM     12  O   UNL     1      -2.575  10.289  14.544  0.00  0.00    +0.000 OA
ENDBRANCH   5  12
BRANCH   8  13
ATOM     13  O   UNL     1      -4.439  12.067  19.453  0.00  0.00    +0.000 OA
ATOM     14  C   UNL     1      -5.845  12.313  19.477  0.00  0.00    +0.000 C 
ENDBRANCH   8  13
ENDBRANCH   1   9
BRANCH   2  15
ATOM     15  C   UNL     1       0.251  11.155  20.674  0.00  0.00    +0.000 C 
ATOM     16  C   UNL     1       0.747  10.113  21.685  0.00  0.00    +0.000 C 
ATOM     17  C   UNL     1      -0.387   9.624  22.588  0.00  0.00    +0.000 C 
ATOM     18  C   UNL     1      -1.139  10.774  23.260  0.00  0.00    +0.000 C 
ATOM     19  N   UNL     1      -1.541  11.774  22.249  0.00  0.00    +0.000 NA
ATOM     20  C   UNL     1      -0.410  12.303  21.440  0.00  0.00    +0.000 C 
BRANCH  19  21
ATOM     21  S   UNL     1      -2.693  12.923  22.735  0.00  0.00    +0.000 S 
ATOM     22  C   UNL     1      -2.630  14.081  21.382  0.00  0.00    +0.000 C 
ATOM     23  O   UNL     1      -3.997  12.299  22.714  0.00  0.00    +0.000 OA
ATOM     24  O   UNL     1      -2.193  13.568  23.934  0.00  0.00    +0.000 OA
ENDBRANCH  19  21
ENDBRANCH   2  15
TORSDOF 5
ENDMDL
