MODEL 1
REMARK VINA RESULT:      -8.1      0.000      0.000
REMARK  Name = 
REMARK  6 active torsions:
REMARK  status: ('A' for Active; 'I' for Inactive)
REMARK    1  A    between atoms: C_1  and  O_2
REMARK    2  A    between atoms: O_2  and  C_3
REMARK    3  A    between atoms: C_3  and  C_4
REMARK    4  A    between atoms: C_4  and  C_5
REMARK    5  A    between atoms: C_10  and  C_11
REMARK    6  A    between atoms: C_11  and  N_12
REMARK                            x       y       z     vdW  Elec       q    Type
REMARK                         _______ _______ _______ _____ _____    ______ ____
ROOT
ATOM      1  N   UNL     1       1.415   7.023  21.236  0.00  0.00    +0.000 N 
ATOM      2  C   UNL     1       2.105   6.066  20.558  0.00  0.00    +0.000 A 
ATOM      3  N   UNL     1       3.241   6.248  19.925  0.00  0.00    +0.000 NA
ATOM      4  C   UNL     1       3.622   5.081  19.279  0.00  0.00    +0.000 A 
ATOM      5  C   UNL     1       2.764   4.019  19.452  0.00  0.00    +0.000 A 
ATOM      6  S   UNL     1       1.454   4.478  20.446  0.00  0.00    +0.000 S 
ATOM      7  C   UNL     1       2.867   2.659  18.860  0.00  0.00    +0.000 C 
ATOM      8  C   UNL     1       2.734   2.769  17.349  0.00  0.00    +0.000 C 
ATOM      9  C   UNL     1       3.840   3.544  16.615  0.00  0.00    +0.000 C 
ATOM     10  C   UNL     1       5.000   4.171  17.364  0.00  0.00    +0.000 A 
ATOM     11  C   UNL     1       6.275   4.047  16.768  0.00  0.00    +0.000 A 
ATOM     12  C   UNL     1       7.393   4.675  17.311  0.00  0.00    +0.000 A 
ATOM     13  C   UNL     1       7.244   5.460  18.445  0.00  0.00    +0.000 A 
ATOM     14  F   UNL     1       8.319   6.069  18.963  0.00  0.00    +0.000 F 
ATOM     15  C   UNL     1       6.005   5.613  19.052  0.00  0.00    +0.000 A 
ATOM     16  C   UNL     1       4.872   4.962  18.533  0.00  0.00    +0.000 A 
ATOM     17  H   UNL     1       0.464   6.757  21.461  0.00  0.00    +0.000 HD
ENDROOT
BRANCH   1  18
ATOM     18  C   UNL     1       1.594   8.394  20.783  0.00  0.00    +0.000 C 
BRANCH  18  24
ATOM     19  C   UNL     1      -0.690  12.751  21.945  0.00  0.00    +0.000 C 
ATOM     20  O   UNL     1      -0.643  13.686  21.145  0.00  0.00    +0.000 OA
ATOM     21  N   UNL     1       0.000  11.565  21.732  0.00  0.00    +0.000 N 
ATOM     22  C   UNL     1       0.915  11.476  20.596  0.00  0.00    +0.000 C 
ATOM     23  C   UNL     1       0.448  10.403  19.620  0.00  0.00    +0.000 C 
ATOM     24  C   UNL     1       0.273   9.036  20.313  0.00  0.00    +0.000 C 
ATOM     25  C   UNL     1      -0.681   9.214  21.516  0.00  0.00    +0.000 C 
ATOM     26  C   UNL     1      -0.222  10.321  22.470  0.00  0.00    +0.000 C 
BRANCH  19  27
ATOM     27  C   UNL     1      -1.477  12.866  23.233  0.00  0.00    +0.000 C 
BRANCH  27  28
ATOM     28  C   UNL     1      -2.970  12.822  22.957  0.00  0.00    +0.000 C 
BRANCH  28  30
ATOM     29  C   UNL     1      -4.395  12.473  24.790  0.00  0.00    +0.000 C 
ATOM     30  O   UNL     1      -3.566  11.850  23.818  0.00  0.00    +0.000 OA
ENDBRANCH  28  30
ENDBRANCH  27  28
ENDBRANCH  19  27
ENDBRANCH  18  24
ENDBRANCH   1  18
TORSDOF 5
ENDMDL
MODEL 2
REMARK VINA RESULT:      -7.9      2.370      3.181
REMARK  Name = 
REMARK  6 active torsions:
REMARK  status: ('A' for Active; 'I' for Inactive)
REMARK    1  A    between atoms: C_1  and  O_2
REMARK    2  A    between atoms: O_2  and  C_3
REMARK    3  A    between atoms: C_3  and  C_4
REMARK    4  A    between atoms: C_4  and  C_5
REMARK    5  A    between atoms: C_10  and  C_11
REMARK    6  A    between atoms: C_11  and  N_12
REMARK                            x       y       z     vdW  Elec       q    Type
REMARK                         _______ _______ _______ _____ _____    ______ ____
ROOT
ATOM      1  N   UNL     1       1.020   9.927  19.985  0.00  0.00    +0.000 N 
ATOM      2  C   UNL     1       1.486   8.651  19.903  0.00  0.00    +0.000 A 
ATOM      3  N   UNL     1       2.098   8.126  18.865  0.00  0.00    +0.000 NA
ATOM      4  C   UNL     1       2.366   6.784  19.096  0.00  0.00    +0.000 A 
ATOM      5  C   UNL     1       1.961   6.317  20.325  0.00  0.00    +0.000 A 
ATOM      6  S   UNL     1       1.235   7.576  21.222  0.00  0.00    +0.000 S 
ATOM      7  C   UNL     1       2.062   4.930  20.851  0.00  0.00    +0.000 C 
ATOM      8  C   UNL     1       1.190   4.017  20.002  0.00  0.00    +0.000 C 
ATOM      9  C   UNL     1       1.595   3.853  18.529  0.00  0.00    +0.000 C 
ATOM     10  C   UNL     1       2.800   4.571  17.953  0.00  0.00    +0.000 A 
ATOM     11  C   UNL     1       3.616   3.826  17.071  0.00  0.00    +0.000 A 
ATOM     12  C   UNL     1       4.685   4.414  16.401  0.00  0.00    +0.000 A 
ATOM     13  C   UNL     1       4.936   5.766  16.583  0.00  0.00    +0.000 A 
ATOM     14  F   UNL     1       5.961   6.333  15.932  0.00  0.00    +0.000 F 
ATOM     15  C   UNL     1       4.150   6.532  17.433  0.00  0.00    +0.000 A 
ATOM     16  C   UNL     1       3.085   5.947  18.140  0.00  0.00    +0.000 A 
ATOM     17  H   UNL     1       0.385  10.079  20.758  0.00  0.00    +0.000 HD
ENDROOT
BRANCH   1  18
ATOM     18  C   UNL     1       0.647  10.561  18.729  0.00  0.00    +0.000 C 
BRANCH  18  24
ATOM     19  C   UNL     1      -3.287  12.825  20.954  0.00  0.00    +0.000 C 
ATOM     20  O   UNL     1      -3.134  13.345  22.060  0.00  0.00    +0.000 OA
ATOM     21  N   UNL     1      -2.277  12.101  20.335  0.00  0.00    +0.000 N 
ATOM     22  C   UNL     1      -1.046  11.835  21.076  0.00  0.00    +0.000 C 
ATOM     23  C   UNL     1       0.144  12.488  20.383  0.00  0.00    +0.000 C 
ATOM     24  C   UNL     1       0.263  12.044  18.911  0.00  0.00    +0.000 C 
ATOM     25  C   UNL     1      -1.080  12.330  18.201  0.00  0.00    +0.000 C 
ATOM     26  C   UNL     1      -2.273  11.701  18.928  0.00  0.00    +0.000 C 
BRANCH  19  27
ATOM     27  C   UNL     1      -4.612  12.915  20.226  0.00  0.00    +0.000 C 
BRANCH  27  28
ATOM     28  C   UNL     1      -5.757  13.066  21.212  0.00  0.00    +0.000 C 
BRANCH  28  30
ATOM     29  C   UNL     1      -6.817  11.211  20.237  0.00  0.00    +0.000 C 
ATOM     30  O   UNL     1      -6.332  11.779  21.447  0.00  0.00    +0.000 OA
ENDBRANCH  28  30
ENDBRANCH  27  28
ENDBRANCH  19  27
ENDBRANCH  18  24
ENDBRANCH   1  18
TORSDOF 5
ENDMDL
MODEL 3
REMARK VINA RESULT:      -7.8      4.857     10.147
REMARK  Name = 
REMARK  6 active torsions:
REMARK  status: ('A' for Active; 'I' for Inactive)
REMARK    1  A    between atoms: C_1  and  O_2
REMARK    2  A    between atoms: O_2  and  C_3
REMARK    3  A    between atoms: C_3  and  C_4
REMARK    4  A    between atoms: C_4  and  C_5
REMARK    5  A    between atoms: C_10  and  C_11
REMARK    6  A    between atoms: C_11  and  N_12
REMARK                            x       y       z     vdW  Elec       q    Type
REMARK                         _______ _______ _______ _____ _____    ______ ____
ROOT
ATOM      1  N   UNL     1       2.529   6.918  20.403  0.00  0.00    +0.000 N 
ATOM      2  C   UNL     1       1.690   7.988  20.413  0.00  0.00    +0.000 A 
ATOM      3  N   UNL     1       1.073   8.486  19.365  0.00  0.00    +0.000 NA
ATOM      4  C   UNL     1       0.359   9.620  19.723  0.00  0.00    +0.000 A 
ATOM      5  C   UNL     1       0.437   9.955  21.055  0.00  0.00    +0.000 A 
ATOM      6  S   UNL     1       1.415   8.830  21.887  0.00  0.00    +0.000 S 
ATOM      7  C   UNL     1      -0.171  11.128  21.737  0.00  0.00    +0.000 C 
ATOM      8  C   UNL     1       0.455  12.399  21.183  0.00  0.00    +0.000 C 
ATOM      9  C   UNL     1       0.203  12.700  19.697  0.00  0.00    +0.000 C 
ATOM     10  C   UNL     1      -0.624  11.771  18.829  0.00  0.00    +0.000 A 
ATOM     11  C   UNL     1      -1.523  12.386  17.927  0.00  0.00    +0.000 A 
ATOM     12  C   UNL     1      -2.253  11.637  17.009  0.00  0.00    +0.000 A 
ATOM     13  C   UNL     1      -2.074  10.262  16.961  0.00  0.00    +0.000 A 
ATOM     14  F   UNL     1      -2.772   9.543  16.072  0.00  0.00    +0.000 F 
ATOM     15  C   UNL     1      -1.192   9.625  17.824  0.00  0.00    +0.000 A 
ATOM     16  C   UNL     1      -0.470  10.363  18.777  0.00  0.00    +0.000 A 
ATOM     17  H   UNL     1       3.080   6.824  21.247  0.00  0.00    +0.000 HD
ENDROOT
BRANCH   1  18
ATOM     18  C   UNL     1       3.240   6.664  19.157  0.00  0.00    +0.000 C 
BRANCH  18  24
ATOM     19  C   UNL     1       6.837   4.578  16.284  0.00  0.00    +0.000 C 
ATOM     20  O   UNL     1       7.952   4.379  16.768  0.00  0.00    +0.000 OA
ATOM     21  N   UNL     1       5.838   5.239  16.986  0.00  0.00    +0.000 N 
ATOM     22  C   UNL     1       6.161   5.833  18.281  0.00  0.00    +0.000 C 
ATOM     23  C   UNL     1       5.344   5.175  19.387  0.00  0.00    +0.000 C 
ATOM     24  C   UNL     1       3.831   5.241  19.097  0.00  0.00    +0.000 C 
ATOM     25  C   UNL     1       3.570   4.622  17.705  0.00  0.00    +0.000 C 
ATOM     26  C   UNL     1       4.425   5.266  16.608  0.00  0.00    +0.000 C 
BRANCH  19  27
ATOM     27  C   UNL     1       6.512   4.146  14.870  0.00  0.00    +0.000 C 
BRANCH  27  28
ATOM     28  C   UNL     1       7.392   4.876  13.869  0.00  0.00    +0.000 C 
BRANCH  28  30
ATOM     29  C   UNL     1       6.168   3.352  12.567  0.00  0.00    +0.000 C 
ATOM     30  O   UNL     1       6.971   4.526  12.549  0.00  0.00    +0.000 OA
ENDBRANCH  28  30
ENDBRANCH  27  28
ENDBRANCH  19  27
ENDBRANCH  18  24
ENDBRANCH   1  18
TORSDOF 5
ENDMDL
MODEL 4
REMARK VINA RESULT:      -7.8      2.269      3.232
REMARK  Name = 
REMARK  6 active torsions:
REMARK  status: ('A' for Active; 'I' for Inactive)
REMARK    1  A    between atoms: C_1  and  O_2
REMARK    2  A    between atoms: O_2  and  C_3
REMARK    3  A    between atoms: C_3  and  C_4
REMARK    4  A    between atoms: C_4  and  C_5
REMARK    5  A    between atoms: C_10  and  C_11
REMARK    6  A    between atoms: C_11  and  N_12
REMARK                            x       y       z     vdW  Elec       q    Type
REMARK                         _______ _______ _______ _____ _____    ______ ____
ROOT
ATOM      1  N   UNL     1       1.487   7.397  20.991  0.00  0.00    +0.000 N 
ATOM      2  C   UNL     1       2.102   6.357  20.366  0.00  0.00    +0.000 A 
ATOM      3  N   UNL     1       3.052   6.462  19.465  0.00  0.00    +0.000 NA
ATOM      4  C   UNL     1       3.396   5.206  18.983  0.00  0.00    +0.000 A 
ATOM      5  C   UNL     1       2.701   4.161  19.549  0.00  0.00    +0.000 A 
ATOM      6  S   UNL     1       1.599   4.749  20.712  0.00  0.00    +0.000 S 
ATOM      7  C   UNL     1       2.804   2.715  19.219  0.00  0.00    +0.000 C 
ATOM      8  C   UNL     1       2.338   2.503  17.787  0.00  0.00    +0.000 C 
ATOM      9  C   UNL     1       3.179   3.163  16.683  0.00  0.00    +0.000 C 
ATOM     10  C   UNL     1       4.408   3.991  17.011  0.00  0.00    +0.000 A 
ATOM     11  C   UNL     1       5.530   3.810  16.171  0.00  0.00    +0.000 A 
ATOM     12  C   UNL     1       6.673   4.593  16.312  0.00  0.00    +0.000 A 
ATOM     13  C   UNL     1       6.698   5.587  17.278  0.00  0.00    +0.000 A 
ATOM     14  F   UNL     1       7.796   6.344  17.408  0.00  0.00    +0.000 F 
ATOM     15  C   UNL     1       5.611   5.800  18.114  0.00  0.00    +0.000 A 
ATOM     16  C   UNL     1       4.460   4.999  18.005  0.00  0.00    +0.000 A 
ATOM     17  H   UNL     1       0.637   7.137  21.475  0.00  0.00    +0.000 HD
ENDROOT
BRANCH   1  18
ATOM     18  C   UNL     1       1.432   8.653  20.255  0.00  0.00    +0.000 C 
BRANCH  18  24
ATOM     19  C   UNL     1       0.037  13.373  19.105  0.00  0.00    +0.000 C 
ATOM     20  O   UNL     1      -0.817  13.552  18.236  0.00  0.00    +0.000 OA
ATOM     21  N   UNL     1       0.537  12.111  19.396  0.00  0.00    +0.000 N 
ATOM     22  C   UNL     1       0.137  10.984  18.557  0.00  0.00    +0.000 C 
ATOM     23  C   UNL     1      -0.628   9.953  19.378  0.00  0.00    +0.000 C 
ATOM     24  C   UNL     1       0.181   9.485  20.605  0.00  0.00    +0.000 C 
ATOM     25  C   UNL     1       0.590  10.728  21.427  0.00  0.00    +0.000 C 
ATOM     26  C   UNL     1       1.325  11.774  20.582  0.00  0.00    +0.000 C 
BRANCH  19  27
ATOM     27  C   UNL     1       0.621  14.537  19.877  0.00  0.00    +0.000 C 
BRANCH  27  28
ATOM     28  C   UNL     1       1.443  15.429  18.963  0.00  0.00    +0.000 C 
BRANCH  28  30
ATOM     29  C   UNL     1       3.679  15.155  18.300  0.00  0.00    +0.000 C 
ATOM     30  O   UNL     1       2.366  14.615  18.237  0.00  0.00    +0.000 OA
ENDBRANCH  28  30
ENDBRANCH  27  28
ENDBRANCH  19  27
ENDBRANCH  18  24
ENDBRANCH   1  18
TORSDOF 5
ENDMDL
MODEL 5
REMARK VINA RESULT:      -7.7      1.209      1.280
REMARK  Name = 
REMARK  6 active torsions:
REMARK  status: ('A' for Active; 'I' for Inactive)
REMARK    1  A    between atoms: C_1  and  O_2
REMARK    2  A    between atoms: O_2  and  C_3
REMARK    3  A    between atoms: C_3  and  C_4
REMARK    4  A    between atoms: C_4  and  C_5
REMARK    5  A    between atoms: C_10  and  C_11
REMARK    6  A    between atoms: C_11  and  N_12
REMARK                            x       y       z     vdW  Elec       q    Type
REMARK                         _______ _______ _______ _____ _____    ______ ____
ROOT
ATOM      1  N   UNL     1       1.569   7.670  20.894  0.00  0.00    +0.000 N 
ATOM      2  C   UNL     1       2.183   6.621  20.284  0.00  0.00    +0.000 A 
ATOM      3  N   UNL     1       3.054   6.709  19.304  0.00  0.00    +0.000 NA
ATOM      4  C   UNL     1       3.419   5.442  18.872  0.00  0.00    +0.000 A 
ATOM      5  C   UNL     1       2.822   4.405  19.553  0.00  0.00    +0.000 A 
ATOM      6  S   UNL     1       1.786   5.017  20.765  0.00  0.00    +0.000 S 
ATOM      7  C   UNL     1       2.968   2.947  19.303  0.00  0.00    +0.000 C 
ATOM      8  C   UNL     1       2.402   2.625  17.928  0.00  0.00    +0.000 C 
ATOM      9  C   UNL     1       3.122   3.251  16.723  0.00  0.00    +0.000 C 
ATOM     10  C   UNL     1       4.331   4.149  16.900  0.00  0.00    +0.000 A 
ATOM     11  C   UNL     1       5.392   3.965  15.985  0.00  0.00    +0.000 A 
ATOM     12  C   UNL     1       6.504   4.803  15.986  0.00  0.00    +0.000 A 
ATOM     13  C   UNL     1       6.556   5.857  16.887  0.00  0.00    +0.000 A 
ATOM     14  F   UNL     1       7.623   6.667  16.883  0.00  0.00    +0.000 F 
ATOM     15  C   UNL     1       5.528   6.074  17.794  0.00  0.00    +0.000 A 
ATOM     16  C   UNL     1       4.413   5.219  17.826  0.00  0.00    +0.000 A 
ATOM     17  H   UNL     1       0.773   7.404  21.460  0.00  0.00    +0.000 HD
ENDROOT
BRANCH   1  18
ATOM     18  C   UNL     1       1.396   8.873  20.092  0.00  0.00    +0.000 C 
BRANCH  18  24
ATOM     19  C   UNL     1      -0.658  13.457  20.662  0.00  0.00    +0.000 C 
ATOM     20  O   UNL     1      -1.074  14.056  19.669  0.00  0.00    +0.000 OA
ATOM     21  N   UNL     1       0.008  12.242  20.562  0.00  0.00    +0.000 N 
ATOM     22  C   UNL     1       0.342  11.728  19.236  0.00  0.00    +0.000 C 
ATOM     23  C   UNL     1      -0.371  10.405  18.982  0.00  0.00    +0.000 C 
ATOM     24  C   UNL     1      -0.064   9.370  20.083  0.00  0.00    +0.000 C 
ATOM     25  C   UNL     1      -0.416   9.991  21.454  0.00  0.00    +0.000 C 
ATOM     26  C   UNL     1       0.277  11.339  21.682  0.00  0.00    +0.000 C 
BRANCH  19  27
ATOM     27  C   UNL     1      -0.815  14.041  22.049  0.00  0.00    +0.000 C 
BRANCH  27  28
ATOM     28  C   UNL     1      -2.283  14.237  22.387  0.00  0.00    +0.000 C 
BRANCH  28  30
ATOM     29  C   UNL     1      -2.950  12.212  23.370  0.00  0.00    +0.000 C 
ATOM     30  O   UNL     1      -2.968  12.999  22.186  0.00  0.00    +0.000 OA
ENDBRANCH  28  30
ENDBRANCH  27  28
ENDBRANCH  19  27
ENDBRANCH  18  24
ENDBRANCH   1  18
TORSDOF 5
ENDMDL
MODEL 6
REMARK VINA RESULT:      -7.7      1.659      2.076
REMARK  Name = 
REMARK  6 active torsions:
REMARK  status: ('A' for Active; 'I' for Inactive)
REMARK    1  A    between atoms: C_1  and  O_2
REMARK    2  A    between atoms: O_2  and  C_3
REMARK    3  A    between atoms: C_3  and  C_4
REMARK    4  A    between atoms: C_4  and  C_5
REMARK    5  A    between atoms: C_10  and  C_11
REMARK    6  A    between atoms: C_11  and  N_12
REMARK                            x       y       z     vdW  Elec       q    Type
REMARK                         _______ _______ _______ _____ _____    ______ ____
ROOT
ATOM      1  N   UNL     1       1.470   7.583  20.841  0.00  0.00    +0.000 N 
ATOM      2  C   UNL     1       2.136   6.544  20.268  0.00  0.00    +0.000 A 
ATOM      3  N   UNL     1       2.986   6.638  19.271  0.00  0.00    +0.000 NA
ATOM      4  C   UNL     1       3.418   5.376  18.888  0.00  0.00    +0.000 A 
ATOM      5  C   UNL     1       2.892   4.338  19.623  0.00  0.00    +0.000 A 
ATOM      6  S   UNL     1       1.840   4.943  20.824  0.00  0.00    +0.000 S 
ATOM      7  C   UNL     1       3.119   2.882  19.434  0.00  0.00    +0.000 C 
ATOM      8  C   UNL     1       2.553   2.467  18.084  0.00  0.00    +0.000 C 
ATOM      9  C   UNL     1       3.219   3.079  16.841  0.00  0.00    +0.000 C 
ATOM     10  C   UNL     1       4.376   4.052  16.959  0.00  0.00    +0.000 A 
ATOM     11  C   UNL     1       5.433   3.888  16.035  0.00  0.00    +0.000 A 
ATOM     12  C   UNL     1       6.494   4.789  15.982  0.00  0.00    +0.000 A 
ATOM     13  C   UNL     1       6.498   5.882  16.835  0.00  0.00    +0.000 A 
ATOM     14  F   UNL     1       7.516   6.751  16.778  0.00  0.00    +0.000 F 
ATOM     15  C   UNL     1       5.472   6.080  17.749  0.00  0.00    +0.000 A 
ATOM     16  C   UNL     1       4.408   5.165  17.836  0.00  0.00    +0.000 A 
ATOM     17  H   UNL     1       0.700   7.297  21.431  0.00  0.00    +0.000 HD
ENDROOT
BRANCH   1  18
ATOM     18  C   UNL     1       1.217   8.737  19.991  0.00  0.00    +0.000 C 
BRANCH  18  24
ATOM     19  C   UNL     1       0.256  13.686  19.620  0.00  0.00    +0.000 C 
ATOM     20  O   UNL     1      -0.607  14.072  18.832  0.00  0.00    +0.000 OA
ATOM     21  N   UNL     1       0.639  12.353  19.697  0.00  0.00    +0.000 N 
ATOM     22  C   UNL     1       0.099  11.408  18.722  0.00  0.00    +0.000 C 
ATOM     23  C   UNL     1      -0.734  10.340  19.421  0.00  0.00    +0.000 C 
ATOM     24  C   UNL     1       0.069   9.619  20.523  0.00  0.00    +0.000 C 
ATOM     25  C   UNL     1       0.630  10.680  21.497  0.00  0.00    +0.000 C 
ATOM     26  C   UNL     1       1.433  11.769  20.778  0.00  0.00    +0.000 C 
BRANCH  19  27
ATOM     27  C   UNL     1       0.982  14.661  20.523  0.00  0.00    +0.000 C 
BRANCH  27  28
ATOM     28  C   UNL     1       0.078  15.119  21.655  0.00  0.00    +0.000 C 
BRANCH  28  30
ATOM     29  C   UNL     1      -1.167  13.945  23.263  0.00  0.00    +0.000 C 
ATOM     30  O   UNL     1       0.123  14.145  22.699  0.00  0.00    +0.000 OA
ENDBRANCH  28  30
ENDBRANCH  27  28
ENDBRANCH  19  27
ENDBRANCH  18  24
ENDBRANCH   1  18
TORSDOF 5
ENDMDL
MODEL 7
REMARK VINA RESULT:      -7.7      2.146      2.694
REMARK  Name = 
REMARK  6 active torsions:
REMARK  status: ('A' for Active; 'I' for Inactive)
REMARK    1  A    between atoms: C_1  and  O_2
REMARK    2  A    between atoms: O_2  and  C_3
REMARK    3  A    between atoms: C_3  and  C_4
REMARK    4  A    between atoms: C_4  and  C_5
REMARK    5  A    between atoms: C_10  and  C_11
REMARK    6  A    between atoms: C_11  and  N_12
REMARK                            x       y       z     vdW  Elec       q    Type
REMARK                         _______ _______ _______ _____ _____    ______ ____
ROOT
ATOM      1  N   UNL     1       1.540   7.636  20.799  0.00  0.00    +0.000 N 
ATOM      2  C   UNL     1       2.186   6.586  20.223  0.00  0.00    +0.000 A 
ATOM      3  N   UNL     1       3.055   6.669  19.242  0.00  0.00    +0.000 NA
ATOM      4  C   UNL     1       3.459   5.400  18.851  0.00  0.00    +0.000 A 
ATOM      5  C   UNL     1       2.893   4.369  19.564  0.00  0.00    +0.000 A 
ATOM      6  S   UNL     1       1.838   4.988  20.755  0.00  0.00    +0.000 S 
ATOM      7  C   UNL     1       3.083   2.909  19.361  0.00  0.00    +0.000 C 
ATOM      8  C   UNL     1       2.530   2.525  17.997  0.00  0.00    +0.000 C 
ATOM      9  C   UNL     1       3.232   3.133  16.773  0.00  0.00    +0.000 C 
ATOM     10  C   UNL     1       4.413   4.073  16.922  0.00  0.00    +0.000 A 
ATOM     11  C   UNL     1       5.481   3.892  16.013  0.00  0.00    +0.000 A 
ATOM     12  C   UNL     1       6.566   4.764  15.988  0.00  0.00    +0.000 A 
ATOM     13  C   UNL     1       6.585   5.847  16.854  0.00  0.00    +0.000 A 
ATOM     14  F   UNL     1       7.627   6.688  16.824  0.00  0.00    +0.000 F 
ATOM     15  C   UNL     1       5.550   6.062  17.753  0.00  0.00    +0.000 A 
ATOM     16  C   UNL     1       4.461   5.175  17.812  0.00  0.00    +0.000 A 
ATOM     17  H   UNL     1       0.752   7.364  21.372  0.00  0.00    +0.000 HD
ENDROOT
BRANCH   1  18
ATOM     18  C   UNL     1       1.332   8.806  19.958  0.00  0.00    +0.000 C 
BRANCH  18  24
ATOM     19  C   UNL     1      -0.007  13.677  20.137  0.00  0.00    +0.000 C 
ATOM     20  O   UNL     1      -0.638  14.162  19.198  0.00  0.00    +0.000 OA
ATOM     21  N   UNL     1       0.478  12.377  20.106  0.00  0.00    +0.000 N 
ATOM     22  C   UNL     1       0.352  11.608  18.870  0.00  0.00    +0.000 C 
ATOM     23  C   UNL     1      -0.528  10.384  19.090  0.00  0.00    +0.000 C 
ATOM     24  C   UNL     1      -0.010   9.509  20.250  0.00  0.00    +0.000 C 
ATOM     25  C   UNL     1       0.123  10.392  21.511  0.00  0.00    +0.000 C 
ATOM     26  C   UNL     1       0.979  11.639  21.266  0.00  0.00    +0.000 C 
BRANCH  19  27
ATOM     27  C   UNL     1       0.312  14.499  21.369  0.00  0.00    +0.000 C 
BRANCH  27  28
ATOM     28  C   UNL     1       1.683  15.142  21.245  0.00  0.00    +0.000 C 
BRANCH  28  30
ATOM     29  C   UNL     1       3.686  15.473  22.426  0.00  0.00    +0.000 C 
ATOM     30  O   UNL     1       2.494  14.702  22.336  0.00  0.00    +0.000 OA
ENDBRANCH  28  30
ENDBRANCH  27  28
ENDBRANCH  19  27
ENDBRANCH  18  24
ENDBRANCH   1  18
TORSDOF 5
ENDMDL
MODEL 8
REMARK VINA RESULT:      -7.7      1.955      2.706
REMARK  Name = 
REMARK  6 active torsions:
REMARK  status: ('A' for Active; 'I' for Inactive)
REMARK    1  A    between atoms: C_1  and  O_2
REMARK    2  A    between atoms: O_2  and  C_3
REMARK    3  A    between atoms: C_3  and  C_4
REMARK    4  A    between atoms: C_4  and  C_5
REMARK    5  A    between atoms: C_10  and  C_11
REMARK    6  A    between atoms: C_11  and  N_12
REMARK                            x       y       z     vdW  Elec       q    Type
REMARK                         _______ _______ _______ _____ _____    ______ ____
ROOT
ATOM      1  N   UNL     1       1.010   9.860  19.960  0.00  0.00    +0.000 N 
ATOM      2  C   UNL     1       1.478   8.585  19.880  0.00  0.00    +0.000 A 
ATOM      3  N   UNL     1       2.103   8.064  18.849  0.00  0.00    +0.000 NA
ATOM      4  C   UNL     1       2.370   6.722  19.079  0.00  0.00    +0.000 A 
ATOM      5  C   UNL     1       1.951   6.251  20.303  0.00  0.00    +0.000 A 
ATOM      6  S   UNL     1       1.212   7.507  21.193  0.00  0.00    +0.000 S 
ATOM      7  C   UNL     1       2.047   4.863  20.826  0.00  0.00    +0.000 C 
ATOM      8  C   UNL     1       1.187   3.951  19.964  0.00  0.00    +0.000 C 
ATOM      9  C   UNL     1       1.611   3.791  18.496  0.00  0.00    +0.000 C 
ATOM     10  C   UNL     1       2.822   4.513  17.936  0.00  0.00    +0.000 A 
ATOM     11  C   UNL     1       3.650   3.770  17.063  0.00  0.00    +0.000 A 
ATOM     12  C   UNL     1       4.726   4.362  16.408  0.00  0.00    +0.000 A 
ATOM     13  C   UNL     1       4.973   5.714  16.596  0.00  0.00    +0.000 A 
ATOM     14  F   UNL     1       6.006   6.284  15.960  0.00  0.00    +0.000 F 
ATOM     15  C   UNL     1       4.176   6.477  17.438  0.00  0.00    +0.000 A 
ATOM     16  C   UNL     1       3.103   5.888  18.130  0.00  0.00    +0.000 A 
ATOM     17  H   UNL     1       0.365  10.010  20.725  0.00  0.00    +0.000 HD
ENDROOT
BRANCH   1  18
ATOM     18  C   UNL     1       0.650  10.497  18.701  0.00  0.00    +0.000 C 
BRANCH  18  24
ATOM     19  C   UNL     1      -2.152  13.495  21.652  0.00  0.00    +0.000 C 
ATOM     20  O   UNL     1      -1.626  14.048  22.619  0.00  0.00    +0.000 OA
ATOM     21  N   UNL     1      -1.465  12.582  20.863  0.00  0.00    +0.000 N 
ATOM     22  C   UNL     1      -0.127  12.164  21.272  0.00  0.00    +0.000 C 
ATOM     23  C   UNL     1       0.903  12.574  20.226  0.00  0.00    +0.000 C 
ATOM     24  C   UNL     1       0.544  12.031  18.827  0.00  0.00    +0.000 C 
ATOM     25  C   UNL     1      -0.890  12.488  18.476  0.00  0.00    +0.000 C 
ATOM     26  C   UNL     1      -1.909  12.104  19.553  0.00  0.00    +0.000 C 
BRANCH  19  27
ATOM     27  C   UNL     1      -3.601  13.755  21.298  0.00  0.00    +0.000 C 
BRANCH  27  28
ATOM     28  C   UNL     1      -4.483  13.642  22.529  0.00  0.00    +0.000 C 
BRANCH  28  30
ATOM     29  C   UNL     1      -4.278  12.428  24.529  0.00  0.00    +0.000 C 
ATOM     30  O   UNL     1      -4.296  12.349  23.110  0.00  0.00    +0.000 OA
ENDBRANCH  28  30
ENDBRANCH  27  28
ENDBRANCH  19  27
ENDBRANCH  18  24
ENDBRANCH   1  18
TORSDOF 5
ENDMDL
MODEL 9
REMARK VINA RESULT:      -7.7      1.512      2.085
REMARK  Name = 
REMARK  6 active torsions:
REMARK  status: ('A' for Active; 'I' for Inactive)
REMARK    1  A    between atoms: C_1  and  O_2
REMARK    2  A    between atoms: O_2  and  C_3
REMARK    3  A    between atoms: C_3  and  C_4
REMARK    4  A    between atoms: C_4  and  C_5
REMARK    5  A    between atoms: C_10  and  C_11
REMARK    6  A    between atoms: C_11  and  N_12
REMARK                            x       y       z     vdW  Elec       q    Type
REMARK                         _______ _______ _______ _____ _____    ______ ____
ROOT
ATOM      1  N   UNL     1       1.496   7.092  21.257  0.00  0.00    +0.000 N 
ATOM      2  C   UNL     1       2.139   6.135  20.535  0.00  0.00    +0.000 A 
ATOM      3  N   UNL     1       2.976   6.358  19.547  0.00  0.00    +0.000 NA
ATOM      4  C   UNL     1       3.386   5.157  18.986  0.00  0.00    +0.000 A 
ATOM      5  C   UNL     1       2.856   4.033  19.578  0.00  0.00    +0.000 A 
ATOM      6  S   UNL     1       1.830   4.477  20.868  0.00  0.00    +0.000 S 
ATOM      7  C   UNL     1       3.061   2.614  19.185  0.00  0.00    +0.000 C 
ATOM      8  C   UNL     1       2.471   2.397  17.800  0.00  0.00    +0.000 C 
ATOM      9  C   UNL     1       3.127   3.168  16.643  0.00  0.00    +0.000 C 
ATOM     10  C   UNL     1       4.299   4.103  16.877  0.00  0.00    +0.000 A 
ATOM     11  C   UNL     1       5.340   4.057  15.922  0.00  0.00    +0.000 A 
ATOM     12  C   UNL     1       6.412   4.944  15.977  0.00  0.00    +0.000 A 
ATOM     13  C   UNL     1       6.443   5.909  16.974  0.00  0.00    +0.000 A 
ATOM     14  F   UNL     1       7.471   6.766  17.022  0.00  0.00    +0.000 F 
ATOM     15  C   UNL     1       5.432   5.989  17.923  0.00  0.00    +0.000 A 
ATOM     16  C   UNL     1       4.358   5.083  17.899  0.00  0.00    +0.000 A 
ATOM     17  H   UNL     1       0.729   6.735  21.814  0.00  0.00    +0.000 HD
ENDROOT
BRANCH   1  18
ATOM     18  C   UNL     1       1.245   8.356  20.579  0.00  0.00    +0.000 C 
BRANCH  18  24
ATOM     19  C   UNL     1      -1.871  11.891  22.408  0.00  0.00    +0.000 C 
ATOM     20  O   UNL     1      -2.235  11.821  23.582  0.00  0.00    +0.000 OA
ATOM     21  N   UNL     1      -1.099  10.899  21.816  0.00  0.00    +0.000 N 
ATOM     22  C   UNL     1      -0.826   9.677  22.568  0.00  0.00    +0.000 C 
ATOM     23  C   UNL     1       0.670   9.526  22.815  0.00  0.00    +0.000 C 
ATOM     24  C   UNL     1       1.474   9.572  21.499  0.00  0.00    +0.000 C 
ATOM     25  C   UNL     1       1.114  10.874  20.749  0.00  0.00    +0.000 C 
ATOM     26  C   UNL     1      -0.395  11.033  20.541  0.00  0.00    +0.000 C 
BRANCH  19  27
ATOM     27  C   UNL     1      -2.287  13.052  21.529  0.00  0.00    +0.000 C 
BRANCH  27  28
ATOM     28  C   UNL     1      -3.706  12.861  21.023  0.00  0.00    +0.000 C 
BRANCH  28  30
ATOM     29  C   UNL     1      -4.951  12.218  19.138  0.00  0.00    +0.000 C 
ATOM     30  O   UNL     1      -3.652  12.297  19.711  0.00  0.00    +0.000 OA
ENDBRANCH  28  30
ENDBRANCH  27  28
ENDBRANCH  19  27
ENDBRANCH  18  24
ENDBRANCH   1  18
TORSDOF 5
ENDMDL
