MODEL 1
REMARK VINA RESULT:      -7.1      0.000      0.000
REMARK  Name = 
REMARK  3 active torsions:
REMARK  status: ('A' for Active; 'I' for Inactive)
REMARK    1  A    between atoms: C_1  and  O_2
REMARK    2  A    between atoms: O_2  and  C_3
REMARK    3  A    between atoms: C_3  and  C_4
REMARK                            x       y       z     vdW  Elec       q    Type
REMARK                         _______ _______ _______ _____ _____    ______ ____
ROOT
ATOM      1  C   UNL     1       5.221   6.080  15.601  0.00  0.00    +0.000 C 
ATOM      2  O   UNL     1       4.938   7.135  15.052  0.00  0.00    +0.000 OA
ATOM      3  N   UNL     1       4.850   5.908  16.953  0.00  0.00    +0.000 N 
ATOM      4  C   UNL     1       3.933   6.892  17.530  0.00  0.00    +0.000 C 
ATOM      5  C   UNL     1       2.558   6.237  17.751  0.00  0.00    +0.000 C 
ATOM      6  C   UNL     1       2.605   4.771  18.164  0.00  0.00    +0.000 A 
ATOM      7  C   UNL     1       1.410   4.177  18.595  0.00  0.00    +0.000 A 
ATOM      8  C   UNL     1       1.397   2.846  19.008  0.00  0.00    +0.000 A 
ATOM      9  C   UNL     1       2.563   2.084  18.956  0.00  0.00    +0.000 A 
ATOM     10  C   UNL     1       3.757   2.649  18.512  0.00  0.00    +0.000 A 
ATOM     11  C   UNL     1       3.804   4.001  18.126  0.00  0.00    +0.000 A 
ATOM     12  C   UNL     1       5.128   4.733  17.864  0.00  0.00    +0.000 C 
ATOM     13  C   UNL     1       5.497   5.128  19.359  0.00  0.00    +0.000 C 
ATOM     14  C   UNL     1       6.962   5.405  19.750  0.00  0.00    +0.000 C 
ATOM     15  N   UNL     1       7.834   5.679  18.622  0.00  0.00    +0.000 NA
ATOM     16  C   UNL     1       7.655   4.828  17.443  0.00  0.00    +0.000 C 
ATOM     17  C   UNL     1       6.375   3.904  17.463  0.00  0.00    +0.000 C 
ATOM     18  H   UNL     1       8.835   5.645  18.935  0.00  0.00    +0.000 HD
ENDROOT
BRANCH   1  19
ATOM     19  C   UNL     1       5.880   5.038  14.704  0.00  0.00    +0.000 C 
BRANCH  19  21
ATOM     20  C   UNL     1       7.371   4.798  12.954  0.00  0.00    +0.000 C 
ATOM     21  O   UNL     1       7.113   5.491  14.170  0.00  0.00    +0.000 OA
ENDBRANCH  19  21
ENDBRANCH   1  19
TORSDOF 2
ENDMDL
MODEL 2
REMARK VINA RESULT:      -6.5      2.654      5.481
REMARK  Name = 
REMARK  3 active torsions:
REMARK  status: ('A' for Active; 'I' for Inactive)
REMARK    1  A    between atoms: C_1  and  O_2
REMARK    2  A    between atoms: O_2  and  C_3
REMARK    3  A    between atoms: C_3  and  C_4
REMARK                            x       y       z     vdW  Elec       q    Type
REMARK                         _______ _______ _______ _____ _____    ______ ____
ROOT
ATOM      1  C   UNL     1       4.513   3.195  19.486  0.00  0.00    +0.000 C 
ATOM      2  O   UNL     1       5.138   2.903  20.497  0.00  0.00    +0.000 OA
ATOM      3  N   UNL     1       4.913   4.336  18.757  0.00  0.00    +0.000 N 
ATOM      4  C   UNL     1       6.197   4.945  19.110  0.00  0.00    +0.000 C 
ATOM      5  C   UNL     1       7.211   4.677  17.984  0.00  0.00    +0.000 C 
ATOM      6  C   UNL     1       6.625   4.679  16.578  0.00  0.00    +0.000 A 
ATOM      7  C   UNL     1       7.520   4.664  15.498  0.00  0.00    +0.000 A 
ATOM      8  C   UNL     1       7.042   4.689  14.190  0.00  0.00    +0.000 A 
ATOM      9  C   UNL     1       5.670   4.687  13.944  0.00  0.00    +0.000 A 
ATOM     10  C   UNL     1       4.763   4.682  15.002  0.00  0.00    +0.000 A 
ATOM     11  C   UNL     1       5.221   4.695  16.332  0.00  0.00    +0.000 A 
ATOM     12  C   UNL     1       4.279   4.934  17.521  0.00  0.00    +0.000 C 
ATOM     13  C   UNL     1       4.243   6.523  17.497  0.00  0.00    +0.000 C 
ATOM     14  C   UNL     1       3.055   7.282  18.119  0.00  0.00    +0.000 C 
ATOM     15  N   UNL     1       2.260   6.487  19.038  0.00  0.00    +0.000 NA
ATOM     16  C   UNL     1       1.971   5.111  18.622  0.00  0.00    +0.000 C 
ATOM     17  C   UNL     1       2.773   4.604  17.361  0.00  0.00    +0.000 C 
ATOM     18  H   UNL     1       1.363   6.988  19.252  0.00  0.00    +0.000 HD
ENDROOT
BRANCH   1  19
ATOM     19  C   UNL     1       3.411   2.214  19.100  0.00  0.00    +0.000 C 
BRANCH  19  21
ATOM     20  C   UNL     1       1.137   1.941  19.416  0.00  0.00    +0.000 C 
ATOM     21  O   UNL     1       2.381   2.154  20.073  0.00  0.00    +0.000 OA
ENDBRANCH  19  21
ENDBRANCH   1  19
TORSDOF 2
ENDMDL
MODEL 3
REMARK VINA RESULT:      -5.9      3.239      5.668
REMARK  Name = 
REMARK  3 active torsions:
REMARK  status: ('A' for Active; 'I' for Inactive)
REMARK    1  A    between atoms: C_1  and  O_2
REMARK    2  A    between atoms: O_2  and  C_3
REMARK    3  A    between atoms: C_3  and  C_4
REMARK                            x       y       z     vdW  Elec       q    Type
REMARK                         _______ _______ _______ _____ _____    ______ ____
ROOT
ATOM      1  C   UNL     1       2.390   4.908  20.343  0.00  0.00    +0.000 C 
ATOM      2  O   UNL     1       1.438   5.619  20.634  0.00  0.00    +0.000 OA
ATOM      3  N   UNL     1       2.881   4.955  19.021  0.00  0.00    +0.000 N 
ATOM      4  C   UNL     1       2.390   6.030  18.157  0.00  0.00    +0.000 C 
ATOM      5  C   UNL     1       3.521   7.046  17.917  0.00  0.00    +0.000 C 
ATOM      6  C   UNL     1       4.915   6.441  17.815  0.00  0.00    +0.000 A 
ATOM      7  C   UNL     1       5.956   7.273  17.379  0.00  0.00    +0.000 A 
ATOM      8  C   UNL     1       7.248   6.768  17.242  0.00  0.00    +0.000 A 
ATOM      9  C   UNL     1       7.523   5.443  17.577  0.00  0.00    +0.000 A 
ATOM     10  C   UNL     1       6.507   4.604  18.032  0.00  0.00    +0.000 A 
ATOM     11  C   UNL     1       5.187   5.080  18.142  0.00  0.00    +0.000 A 
ATOM     12  C   UNL     1       3.998   4.144  18.401  0.00  0.00    +0.000 C 
ATOM     13  C   UNL     1       3.722   3.670  16.909  0.00  0.00    +0.000 C 
ATOM     14  C   UNL     1       2.997   2.337  16.639  0.00  0.00    +0.000 C 
ATOM     15  N   UNL     1       2.264   1.820  17.781  0.00  0.00    +0.000 NA
ATOM     16  C   UNL     1       2.939   1.911  19.079  0.00  0.00    +0.000 C 
ATOM     17  C   UNL     1       4.253   2.784  19.099  0.00  0.00    +0.000 C 
ATOM     18  H   UNL     1       1.982   0.827  17.597  0.00  0.00    +0.000 HD
ENDROOT
BRANCH   1  19
ATOM     19  C   UNL     1       2.980   4.108  21.500  0.00  0.00    +0.000 C 
BRANCH  19  21
ATOM     20  C   UNL     1       1.317   2.507  21.615  0.00  0.00    +0.000 C 
ATOM     21  O   UNL     1       1.978   3.545  22.330  0.00  0.00    +0.000 OA
ENDBRANCH  19  21
ENDBRANCH   1  19
TORSDOF 2
ENDMDL
MODEL 4
REMARK VINA RESULT:      -5.9      9.085     10.476
REMARK  Name = 
REMARK  3 active torsions:
REMARK  status: ('A' for Active; 'I' for Inactive)
REMARK    1  A    between atoms: C_1  and  O_2
REMARK    2  A    between atoms: O_2  and  C_3
REMARK    3  A    between atoms: C_3  and  C_4
REMARK                            x       y       z     vdW  Elec       q    Type
REMARK                         _______ _______ _______ _____ _____    ______ ____
ROOT
ATOM      1  C   UNL     1       9.152  14.727  18.319  0.00  0.00    +0.000 C 
ATOM      2  O   UNL     1       9.335  15.894  18.002  0.00  0.00    +0.000 OA
ATOM      3  N   UNL     1       9.896  14.201  19.396  0.00  0.00    +0.000 N 
ATOM      4  C   UNL     1      10.647  15.148  20.223  0.00  0.00    +0.000 C 
ATOM      5  C   UNL     1       9.971  15.264  21.601  0.00  0.00    +0.000 C 
ATOM      6  C   UNL     1       9.360  13.971  22.127  0.00  0.00    +0.000 A 
ATOM      7  C   UNL     1       8.929  13.950  23.462  0.00  0.00    +0.000 A 
ATOM      8  C   UNL     1       8.384  12.788  24.005  0.00  0.00    +0.000 A 
ATOM      9  C   UNL     1       8.227  11.651  23.214  0.00  0.00    +0.000 A 
ATOM     10  C   UNL     1       8.630  11.657  21.880  0.00  0.00    +0.000 A 
ATOM     11  C   UNL     1       9.218  12.806  21.320  0.00  0.00    +0.000 A 
ATOM     12  C   UNL     1       9.896  12.790  19.942  0.00  0.00    +0.000 C 
ATOM     13  C   UNL     1      11.326  12.246  20.373  0.00  0.00    +0.000 C 
ATOM     14  C   UNL     1      12.230  11.538  19.344  0.00  0.00    +0.000 C 
ATOM     15  N   UNL     1      11.862  11.788  17.962  0.00  0.00    +0.000 NA
ATOM     16  C   UNL     1      10.429  11.759  17.657  0.00  0.00    +0.000 C 
ATOM     17  C   UNL     1       9.471  11.714  18.911  0.00  0.00    +0.000 C 
ATOM     18  H   UNL     1      12.371  11.118  17.336  0.00  0.00    +0.000 HD
ENDROOT
BRANCH   1  19
ATOM     19  C   UNL     1       8.058  14.007  17.537  0.00  0.00    +0.000 C 
BRANCH  19  21
ATOM     20  C   UNL     1       6.245  14.859  18.690  0.00  0.00    +0.000 C 
ATOM     21  O   UNL     1       6.880  14.787  17.419  0.00  0.00    +0.000 OA
ENDBRANCH  19  21
ENDBRANCH   1  19
TORSDOF 2
ENDMDL
MODEL 5
REMARK VINA RESULT:      -5.8      9.477     11.255
REMARK  Name = 
REMARK  3 active torsions:
REMARK  status: ('A' for Active; 'I' for Inactive)
REMARK    1  A    between atoms: C_1  and  O_2
REMARK    2  A    between atoms: O_2  and  C_3
REMARK    3  A    between atoms: C_3  and  C_4
REMARK                            x       y       z     vdW  Elec       q    Type
REMARK                         _______ _______ _______ _____ _____    ______ ____
ROOT
ATOM      1  C   UNL     1       8.650  12.692  17.713  0.00  0.00    +0.000 C 
ATOM      2  O   UNL     1       7.617  12.325  17.169  0.00  0.00    +0.000 OA
ATOM      3  N   UNL     1       8.738  14.031  18.149  0.00  0.00    +0.000 N 
ATOM      4  C   UNL     1       7.505  14.821  18.154  0.00  0.00    +0.000 C 
ATOM      5  C   UNL     1       7.064  15.064  19.608  0.00  0.00    +0.000 C 
ATOM      6  C   UNL     1       8.204  15.258  20.601  0.00  0.00    +0.000 A 
ATOM      7  C   UNL     1       7.877  15.701  21.890  0.00  0.00    +0.000 A 
ATOM      8  C   UNL     1       8.880  15.919  22.833  0.00  0.00    +0.000 A 
ATOM      9  C   UNL     1      10.211  15.659  22.514  0.00  0.00    +0.000 A 
ATOM     10  C   UNL     1      10.556  15.198  21.244  0.00  0.00    +0.000 A 
ATOM     11  C   UNL     1       9.566  15.007  20.263  0.00  0.00    +0.000 A 
ATOM     12  C   UNL     1       9.911  14.738  18.791  0.00  0.00    +0.000 C 
ATOM     13  C   UNL     1      10.127  16.237  18.307  0.00  0.00    +0.000 C 
ATOM     14  C   UNL     1      10.998  16.535  17.071  0.00  0.00    +0.000 C 
ATOM     15  N   UNL     1      11.218  15.387  16.210  0.00  0.00    +0.000 NA
ATOM     16  C   UNL     1      11.507  14.118  16.884  0.00  0.00    +0.000 C 
ATOM     17  C   UNL     1      11.288  14.117  18.447  0.00  0.00    +0.000 C 
ATOM     18  H   UNL     1      11.979  15.603  15.521  0.00  0.00    +0.000 HD
ENDROOT
BRANCH   1  19
ATOM     19  C   UNL     1       9.695  11.601  17.922  0.00  0.00    +0.000 C 
BRANCH  19  21
ATOM     20  C   UNL     1       9.463  11.048  20.154  0.00  0.00    +0.000 C 
ATOM     21  O   UNL     1       9.252  10.598  18.821  0.00  0.00    +0.000 OA
ENDBRANCH  19  21
ENDBRANCH   1  19
TORSDOF 2
ENDMDL
MODEL 6
REMARK VINA RESULT:      -5.7      2.176      3.446
REMARK  Name = 
REMARK  3 active torsions:
REMARK  status: ('A' for Active; 'I' for Inactive)
REMARK    1  A    between atoms: C_1  and  O_2
REMARK    2  A    between atoms: O_2  and  C_3
REMARK    3  A    between atoms: C_3  and  C_4
REMARK                            x       y       z     vdW  Elec       q    Type
REMARK                         _______ _______ _______ _____ _____    ______ ____
ROOT
ATOM      1  C   UNL     1       5.347   4.262  16.983  0.00  0.00    +0.000 C 
ATOM      2  O   UNL     1       5.610   3.632  15.967  0.00  0.00    +0.000 OA
ATOM      3  N   UNL     1       3.992   4.400  17.354  0.00  0.00    +0.000 N 
ATOM      4  C   UNL     1       3.012   3.572  16.648  0.00  0.00    +0.000 C 
ATOM      5  C   UNL     1       2.484   2.487  17.602  0.00  0.00    +0.000 C 
ATOM      6  C   UNL     1       2.341   2.923  19.055  0.00  0.00    +0.000 A 
ATOM      7  C   UNL     1       1.661   2.064  19.930  0.00  0.00    +0.000 A 
ATOM      8  C   UNL     1       1.479   2.422  21.265  0.00  0.00    +0.000 A 
ATOM      9  C   UNL     1       2.008   3.617  21.749  0.00  0.00    +0.000 A 
ATOM     10  C   UNL     1       2.704   4.476  20.901  0.00  0.00    +0.000 A 
ATOM     11  C   UNL     1       2.868   4.155  19.541  0.00  0.00    +0.000 A 
ATOM     12  C   UNL     1       3.408   5.167  18.520  0.00  0.00    +0.000 C 
ATOM     13  C   UNL     1       2.057   5.939  18.194  0.00  0.00    +0.000 C 
ATOM     14  C   UNL     1       2.099   7.378  17.643  0.00  0.00    +0.000 C 
ATOM     15  N   UNL     1       3.384   7.762  17.085  0.00  0.00    +0.000 NA
ATOM     16  C   UNL     1       4.569   7.350  17.843  0.00  0.00    +0.000 C 
ATOM     17  C   UNL     1       4.299   6.332  19.019  0.00  0.00    +0.000 C 
ATOM     18  H   UNL     1       3.405   8.799  16.931  0.00  0.00    +0.000 HD
ENDROOT
BRANCH   1  19
ATOM     19  C   UNL     1       6.557   4.754  17.771  0.00  0.00    +0.000 C 
BRANCH  19  21
ATOM     20  C   UNL     1       7.791   6.708  17.749  0.00  0.00    +0.000 C 
ATOM     21  O   UNL     1       7.413   5.567  16.987  0.00  0.00    +0.000 OA
ENDBRANCH  19  21
ENDBRANCH   1  19
TORSDOF 2
ENDMDL
MODEL 7
REMARK VINA RESULT:      -5.7      6.585      8.910
REMARK  Name = 
REMARK  3 active torsions:
REMARK  status: ('A' for Active; 'I' for Inactive)
REMARK    1  A    between atoms: C_1  and  O_2
REMARK    2  A    between atoms: O_2  and  C_3
REMARK    3  A    between atoms: C_3  and  C_4
REMARK                            x       y       z     vdW  Elec       q    Type
REMARK                         _______ _______ _______ _____ _____    ______ ____
ROOT
ATOM      1  C   UNL     1       2.127  11.783  18.287  0.00  0.00    +0.000 C 
ATOM      2  O   UNL     1       3.012  11.280  17.609  0.00  0.00    +0.000 OA
ATOM      3  N   UNL     1       1.055  10.965  18.702  0.00  0.00    +0.000 N 
ATOM      4  C   UNL     1       1.198   9.519  18.514  0.00  0.00    +0.000 C 
ATOM      5  C   UNL     1       1.385   8.845  19.885  0.00  0.00    +0.000 C 
ATOM      6  C   UNL     1       0.601   9.482  21.026  0.00  0.00    +0.000 A 
ATOM      7  C   UNL     1       0.549   8.792  22.245  0.00  0.00    +0.000 A 
ATOM      8  C   UNL     1      -0.173   9.315  23.317  0.00  0.00    +0.000 A 
ATOM      9  C   UNL     1      -0.814  10.547  23.197  0.00  0.00    +0.000 A 
ATOM     10  C   UNL     1      -0.758  11.258  22.000  0.00  0.00    +0.000 A 
ATOM     11  C   UNL     1      -0.068  10.734  20.892  0.00  0.00    +0.000 A 
ATOM     12  C   UNL     1      -0.177  11.352  19.490  0.00  0.00    +0.000 C 
ATOM     13  C   UNL     1      -1.519  10.649  19.010  0.00  0.00    +0.000 C 
ATOM     14  C   UNL     1      -2.380  11.292  17.905  0.00  0.00    +0.000 C 
ATOM     15  N   UNL     1      -1.678  12.283  17.109  0.00  0.00    +0.000 NA
ATOM     16  C   UNL     1      -0.814  13.211  17.844  0.00  0.00    +0.000 C 
ATOM     17  C   UNL     1      -0.565  12.847  19.360  0.00  0.00    +0.000 C 
ATOM     18  H   UNL     1      -2.367  12.824  16.532  0.00  0.00    +0.000 HD
ENDROOT
BRANCH   1  19
ATOM     19  C   UNL     1       2.351  13.243  18.667  0.00  0.00    +0.000 C 
BRANCH  19  21
ATOM     20  C   UNL     1       3.977  14.842  19.045  0.00  0.00    +0.000 C 
ATOM     21  O   UNL     1       3.619  13.718  18.248  0.00  0.00    +0.000 OA
ENDBRANCH  19  21
ENDBRANCH   1  19
TORSDOF 2
ENDMDL
MODEL 8
REMARK VINA RESULT:      -5.6      2.869      5.598
REMARK  Name = 
REMARK  3 active torsions:
REMARK  status: ('A' for Active; 'I' for Inactive)
REMARK    1  A    between atoms: C_1  and  O_2
REMARK    2  A    between atoms: O_2  and  C_3
REMARK    3  A    between atoms: C_3  and  C_4
REMARK                            x       y       z     vdW  Elec       q    Type
REMARK                         _______ _______ _______ _____ _____    ______ ____
ROOT
ATOM      1  C   UNL     1       2.316   7.618  18.515  0.00  0.00    +0.000 C 
ATOM      2  O   UNL     1       1.844   8.536  17.859  0.00  0.00    +0.000 OA
ATOM      3  N   UNL     1       3.224   6.741  17.884  0.00  0.00    +0.000 N 
ATOM      4  C   UNL     1       3.735   7.132  16.568  0.00  0.00    +0.000 C 
ATOM      5  C   UNL     1       5.217   7.524  16.696  0.00  0.00    +0.000 C 
ATOM      6  C   UNL     1       6.011   6.711  17.711  0.00  0.00    +0.000 A 
ATOM      7  C   UNL     1       7.405   6.862  17.719  0.00  0.00    +0.000 A 
ATOM      8  C   UNL     1       8.186   6.126  18.609  0.00  0.00    +0.000 A 
ATOM      9  C   UNL     1       7.582   5.265  19.525  0.00  0.00    +0.000 A 
ATOM     10  C   UNL     1       6.197   5.116  19.547  0.00  0.00    +0.000 A 
ATOM     11  C   UNL     1       5.391   5.819  18.633  0.00  0.00    +0.000 A 
ATOM     12  C   UNL     1       3.897   5.511  18.452  0.00  0.00    +0.000 C 
ATOM     13  C   UNL     1       4.013   4.292  17.439  0.00  0.00    +0.000 C 
ATOM     14  C   UNL     1       2.873   3.261  17.331  0.00  0.00    +0.000 C 
ATOM     15  N   UNL     1       1.607   3.719  17.875  0.00  0.00    +0.000 NA
ATOM     16  C   UNL     1       1.672   4.445  19.146  0.00  0.00    +0.000 C 
ATOM     17  C   UNL     1       3.122   4.850  19.620  0.00  0.00    +0.000 C 
ATOM     18  H   UNL     1       0.947   2.908  17.963  0.00  0.00    +0.000 HD
ENDROOT
BRANCH   1  19
ATOM     19  C   UNL     1       1.911   7.596  19.986  0.00  0.00    +0.000 C 
BRANCH  19  21
ATOM     20  C   UNL     1       1.127   8.824  21.780  0.00  0.00    +0.000 C 
ATOM     21  O   UNL     1       1.187   8.756  20.360  0.00  0.00    +0.000 OA
ENDBRANCH  19  21
ENDBRANCH   1  19
TORSDOF 2
ENDMDL
MODEL 9
REMARK VINA RESULT:      -5.5      9.284     11.144
REMARK  Name = 
REMARK  3 active torsions:
REMARK  status: ('A' for Active; 'I' for Inactive)
REMARK    1  A    between atoms: C_1  and  O_2
REMARK    2  A    between atoms: O_2  and  C_3
REMARK    3  A    between atoms: C_3  and  C_4
REMARK                            x       y       z     vdW  Elec       q    Type
REMARK                         _______ _______ _______ _____ _____    ______ ____
ROOT
ATOM      1  C   UNL     1       8.119  15.936  20.423  0.00  0.00    +0.000 C 
ATOM      2  O   UNL     1       7.801  16.386  21.516  0.00  0.00    +0.000 OA
ATOM      3  N   UNL     1       9.215  15.049  20.357  0.00  0.00    +0.000 N 
ATOM      4  C   UNL     1       9.737  14.527  21.622  0.00  0.00    +0.000 C 
ATOM      5  C   UNL     1       9.377  13.036  21.742  0.00  0.00    +0.000 C 
ATOM      6  C   UNL     1       9.396  12.263  20.429  0.00  0.00    +0.000 A 
ATOM      7  C   UNL     1       9.297  10.866  20.493  0.00  0.00    +0.000 A 
ATOM      8  C   UNL     1       9.333  10.105  19.326  0.00  0.00    +0.000 A 
ATOM      9  C   UNL     1       9.425  10.730  18.084  0.00  0.00    +0.000 A 
ATOM     10  C   UNL     1       9.504  12.119  17.996  0.00  0.00    +0.000 A 
ATOM     11  C   UNL     1       9.508  12.906  19.162  0.00  0.00    +0.000 A 
ATOM     12  C   UNL     1       9.834  14.407  19.136  0.00  0.00    +0.000 C 
ATOM     13  C   UNL     1      11.421  14.318  19.167  0.00  0.00    +0.000 C 
ATOM     14  C   UNL     1      12.275  15.484  18.628  0.00  0.00    +0.000 C 
ATOM     15  N   UNL     1      11.555  16.739  18.509  0.00  0.00    +0.000 NA
ATOM     16  C   UNL     1      10.196  16.658  17.965  0.00  0.00    +0.000 C 
ATOM     17  C   UNL     1       9.611  15.199  17.823  0.00  0.00    +0.000 C 
ATOM     18  H   UNL     1      12.122  17.418  17.946  0.00  0.00    +0.000 HD
ENDROOT
BRANCH   1  19
ATOM     19  C   UNL     1       7.213  16.344  19.266  0.00  0.00    +0.000 C 
BRANCH  19  21
ATOM     20  C   UNL     1       5.998  14.865  17.970  0.00  0.00    +0.000 C 
ATOM     21  O   UNL     1       6.030  15.564  19.210  0.00  0.00    +0.000 OA
ENDBRANCH  19  21
ENDBRANCH   1  19
TORSDOF 2
ENDMDL
