MODEL 1
REMARK VINA RESULT:      -9.0      0.000      0.000
REMARK  Name = 
REMARK  4 active torsions:
REMARK  status: ('A' for Active; 'I' for Inactive)
REMARK    1  A    between atoms: C_5  and  C_6
REMARK    2  A    between atoms: C_9  and  C_10
REMARK    3  A    between atoms: C_15  and  C_16
REMARK    4  A    between atoms: C_30  and  C_31
REMARK                            x       y       z     vdW  Elec       q    Type
REMARK                         _______ _______ _______ _____ _____    ______ ____
ROOT
ATOM      1  C   UNL     1       1.934   8.353  19.137  0.00  0.00    +0.000 A 
ATOM      2  C   UNL     1       1.463   9.541  18.554  0.00  0.00    +0.000 A 
ATOM      3  C   UNL     1       0.625  10.441  19.249  0.00  0.00    +0.000 A 
ATOM      4  C   UNL     1       0.215  10.193  20.562  0.00  0.00    +0.000 A 
ATOM      5  C   UNL     1       0.729   9.001  21.141  0.00  0.00    +0.000 A 
ATOM      6  C   UNL     1       1.549   8.092  20.447  0.00  0.00    +0.000 A 
ENDROOT
BRANCH   1  11
ATOM      7  C   UNL     1       5.084   4.036  16.587  0.00  0.00    +0.000 A 
ATOM      8  C   UNL     1       4.319   4.336  17.654  0.00  0.00    +0.000 A 
ATOM      9  C   UNL     1       3.820   5.655  17.825  0.00  0.00    +0.000 A 
ATOM     10  N   UNL     1       3.050   6.168  18.757  0.00  0.00    +0.000 NA
ATOM     11  C   UNL     1       2.824   7.472  18.386  0.00  0.00    +0.000 A 
ATOM     12  C   UNL     1       3.522   7.764  17.221  0.00  0.00    +0.000 A 
ATOM     13  N   UNL     1       4.156   6.594  16.859  0.00  0.00    +0.000 N 
ATOM     14  C   UNL     1       4.962   6.304  15.753  0.00  0.00    +0.000 A 
ATOM     15  C   UNL     1       5.437   5.053  15.590  0.00  0.00    +0.000 A 
BRANCH  15  16
ATOM     16  C   UNL     1       6.283   4.726  14.368  0.00  0.00    +0.000 C 
ATOM     17  N   UNL     1       5.889   3.757  13.601  0.00  0.00    +0.000 NA
ATOM     18  C   UNL     1       6.686   3.412  12.420  0.00  0.00    +0.000 C 
ATOM     19  C   UNL     1       7.527   4.567  11.904  0.00  0.00    +0.000 C 
ATOM     20  C   UNL     1       8.330   5.124  13.058  0.00  0.00    +0.000 C 
ATOM     21  N   UNL     1       7.415   5.472  14.115  0.00  0.00    +0.000 N 
ATOM     22  H   UNL     1       7.807   5.986  14.895  0.00  0.00    +0.000 HD
ENDBRANCH  15  16
ENDBRANCH   1  11
BRANCH   4  23
ATOM     23  C   UNL     1      -0.788  11.049  21.291  0.00  0.00    +0.000 A 
ATOM     24  C   UNL     1      -0.936  10.816  22.673  0.00  0.00    +0.000 A 
ATOM     25  C   UNL     1      -1.849  11.491  23.471  0.00  0.00    +0.000 A 
ATOM     26  C   UNL     1      -2.668  12.447  22.885  0.00  0.00    +0.000 A 
ATOM     27  C   UNL     1      -3.668  13.267  23.401  0.00  0.00    +0.000 A 
ATOM     28  C   UNL     1      -4.165  14.050  22.383  0.00  0.00    +0.000 A 
ATOM     29  O   UNL     1      -3.510  13.719  21.203  0.00  0.00    +0.000 OA
ATOM     30  C   UNL     1      -2.573  12.725  21.525  0.00  0.00    +0.000 A 
ATOM     31  C   UNL     1      -1.638  12.039  20.697  0.00  0.00    +0.000 A 
BRANCH  28  32
ATOM     32  C   UNL     1      -5.241  15.039  22.568  0.00  0.00    +0.000 C 
ATOM     33  N   UNL     1      -6.187  14.567  23.319  0.00  0.00    +0.000 NA
ATOM     34  C   UNL     1      -7.415  15.285  23.590  0.00  0.00    +0.000 C 
ATOM     35  C   UNL     1      -7.294  16.771  23.369  0.00  0.00    +0.000 C 
ATOM     36  C   UNL     1      -6.591  17.009  22.042  0.00  0.00    +0.000 C 
ATOM     37  N   UNL     1      -5.320  16.305  22.031  0.00  0.00    +0.000 N 
ATOM     38  H   UNL     1      -4.702  16.487  21.249  0.00  0.00    +0.000 HD
ENDBRANCH  28  32
ENDBRANCH   4  23
TORSDOF 4
ENDMDL
MODEL 2
REMARK VINA RESULT:      -8.5      0.839      1.173
REMARK  Name = 
REMARK  4 active torsions:
REMARK  status: ('A' for Active; 'I' for Inactive)
REMARK    1  A    between atoms: C_5  and  C_6
REMARK    2  A    between atoms: C_9  and  C_10
REMARK    3  A    between atoms: C_15  and  C_16
REMARK    4  A    between atoms: C_30  and  C_31
REMARK                            x       y       z     vdW  Elec       q    Type
REMARK                         _______ _______ _______ _____ _____    ______ ____
ROOT
ATOM      1  C   UNL     1       1.878   8.411  19.054  0.00  0.00    +0.000 A 
ATOM      2  C   UNL     1       1.619   8.168  20.413  0.00  0.00    +0.000 A 
ATOM      3  C   UNL     1       0.753   8.986  21.174  0.00  0.00    +0.000 A 
ATOM      4  C   UNL     1       0.108  10.090  20.610  0.00  0.00    +0.000 A 
ATOM      5  C   UNL     1       0.361  10.296  19.227  0.00  0.00    +0.000 A 
ATOM      6  C   UNL     1       1.237   9.496  18.469  0.00  0.00    +0.000 A 
ENDROOT
BRANCH   1  11
ATOM      7  C   UNL     1       4.925   4.043  16.466  0.00  0.00    +0.000 A 
ATOM      8  C   UNL     1       4.128   4.339  17.511  0.00  0.00    +0.000 A 
ATOM      9  C   UNL     1       3.687   5.674  17.715  0.00  0.00    +0.000 A 
ATOM     10  N   UNL     1       2.902   6.189  18.633  0.00  0.00    +0.000 NA
ATOM     11  C   UNL     1       2.757   7.516  18.306  0.00  0.00    +0.000 A 
ATOM     12  C   UNL     1       3.520   7.818  17.185  0.00  0.00    +0.000 A 
ATOM     13  N   UNL     1       4.111   6.632  16.804  0.00  0.00    +0.000 N 
ATOM     14  C   UNL     1       4.951   6.345  15.722  0.00  0.00    +0.000 A 
ATOM     15  C   UNL     1       5.371   5.078  15.528  0.00  0.00    +0.000 A 
BRANCH  15  16
ATOM     16  C   UNL     1       6.254   4.757  14.331  0.00  0.00    +0.000 C 
ATOM     17  N   UNL     1       5.869   3.810  13.532  0.00  0.00    +0.000 NA
ATOM     18  C   UNL     1       6.702   3.471  12.374  0.00  0.00    +0.000 C 
ATOM     19  C   UNL     1       7.583   4.618  11.910  0.00  0.00    +0.000 C 
ATOM     20  C   UNL     1       8.355   5.138  13.103  0.00  0.00    +0.000 C 
ATOM     21  N   UNL     1       7.410   5.484  14.133  0.00  0.00    +0.000 N 
ATOM     22  H   UNL     1       7.783   5.976  14.936  0.00  0.00    +0.000 HD
ENDBRANCH  15  16
ENDBRANCH   1  11
BRANCH   4  23
ATOM     23  C   UNL     1      -0.709  11.070  21.412  0.00  0.00    +0.000 A 
ATOM     24  C   UNL     1      -1.073  10.676  22.715  0.00  0.00    +0.000 A 
ATOM     25  C   UNL     1      -1.859  11.449  23.558  0.00  0.00    +0.000 A 
ATOM     26  C   UNL     1      -2.321  12.676  23.100  0.00  0.00    +0.000 A 
ATOM     27  C   UNL     1      -3.119  13.654  23.686  0.00  0.00    +0.000 A 
ATOM     28  C   UNL     1      -3.268  14.694  22.796  0.00  0.00    +0.000 A 
ATOM     29  O   UNL     1      -2.593  14.379  21.623  0.00  0.00    +0.000 OA
ATOM     30  C   UNL     1      -1.998  13.124  21.823  0.00  0.00    +0.000 A 
ATOM     31  C   UNL     1      -1.190  12.339  20.950  0.00  0.00    +0.000 A 
BRANCH  28  32
ATOM     32  C   UNL     1      -4.056  15.905  23.083  0.00  0.00    +0.000 C 
ATOM     33  N   UNL     1      -5.160  15.611  23.697  0.00  0.00    +0.000 NA
ATOM     34  C   UNL     1      -6.173  16.595  24.016  0.00  0.00    +0.000 C 
ATOM     35  C   UNL     1      -5.642  18.005  24.047  0.00  0.00    +0.000 C 
ATOM     36  C   UNL     1      -4.780  18.226  22.815  0.00  0.00    +0.000 C 
ATOM     37  N   UNL     1      -3.745  17.207  22.756  0.00  0.00    +0.000 N 
ATOM     38  H   UNL     1      -3.030  17.320  22.048  0.00  0.00    +0.000 HD
ENDBRANCH  28  32
ENDBRANCH   4  23
TORSDOF 4
ENDMDL
MODEL 3
REMARK VINA RESULT:      -8.2      2.629     14.081
REMARK  Name = 
REMARK  4 active torsions:
REMARK  status: ('A' for Active; 'I' for Inactive)
REMARK    1  A    between atoms: C_5  and  C_6
REMARK    2  A    between atoms: C_9  and  C_10
REMARK    3  A    between atoms: C_15  and  C_16
REMARK    4  A    between atoms: C_30  and  C_31
REMARK                            x       y       z     vdW  Elec       q    Type
REMARK                         _______ _______ _______ _____ _____    ______ ____
ROOT
ATOM      1  C   UNL     1      -0.375  11.167  21.532  0.00  0.00    +0.000 A 
ATOM      2  C   UNL     1      -0.082  11.307  20.165  0.00  0.00    +0.000 A 
ATOM      3  C   UNL     1       0.620  10.319  19.439  0.00  0.00    +0.000 A 
ATOM      4  C   UNL     1       1.065   9.142  20.049  0.00  0.00    +0.000 A 
ATOM      5  C   UNL     1       0.729   9.009  21.424  0.00  0.00    +0.000 A 
ATOM      6  C   UNL     1       0.046   9.999  22.156  0.00  0.00    +0.000 A 
ENDROOT
BRANCH   1  11
ATOM      7  C   UNL     1      -2.547  15.665  24.711  0.00  0.00    +0.000 A 
ATOM      8  C   UNL     1      -1.490  14.841  24.579  0.00  0.00    +0.000 A 
ATOM      9  C   UNL     1      -1.512  13.805  23.607  0.00  0.00    +0.000 A 
ATOM     10  N   UNL     1      -0.607  12.909  23.285  0.00  0.00    +0.000 NA
ATOM     11  C   UNL     1      -1.131  12.205  22.228  0.00  0.00    +0.000 A 
ATOM     12  C   UNL     1      -2.412  12.659  21.940  0.00  0.00    +0.000 A 
ATOM     13  N   UNL     1      -2.652  13.691  22.823  0.00  0.00    +0.000 N 
ATOM     14  C   UNL     1      -3.765  14.528  22.958  0.00  0.00    +0.000 A 
ATOM     15  C   UNL     1      -3.745  15.512  23.880  0.00  0.00    +0.000 A 
BRANCH  15  16
ATOM     16  C   UNL     1      -4.939  16.447  24.004  0.00  0.00    +0.000 C 
ATOM     17  N   UNL     1      -4.829  17.466  24.798  0.00  0.00    +0.000 NA
ATOM     18  C   UNL     1      -5.964  18.383  24.945  0.00  0.00    +0.000 C 
ATOM     19  C   UNL     1      -6.894  18.385  23.745  0.00  0.00    +0.000 C 
ATOM     20  C   UNL     1      -7.282  16.955  23.441  0.00  0.00    +0.000 C 
ATOM     21  N   UNL     1      -6.074  16.190  23.264  0.00  0.00    +0.000 N 
ATOM     22  H   UNL     1      -6.189  15.245  22.918  0.00  0.00    +0.000 HD
ENDBRANCH  15  16
ENDBRANCH   1  11
BRANCH   4  23
ATOM     23  C   UNL     1       1.936   8.128  19.354  0.00  0.00    +0.000 A 
ATOM     24  C   UNL     1       2.156   6.911  20.029  0.00  0.00    +0.000 A 
ATOM     25  C   UNL     1       2.969   5.899  19.539  0.00  0.00    +0.000 A 
ATOM     26  C   UNL     1       3.608   6.087  18.321  0.00  0.00    +0.000 A 
ATOM     27  C   UNL     1       4.477   5.286  17.585  0.00  0.00    +0.000 A 
ATOM     28  C   UNL     1       4.814   5.950  16.426  0.00  0.00    +0.000 A 
ATOM     29  O   UNL     1       4.190   7.191  16.423  0.00  0.00    +0.000 OA
ATOM     30  C   UNL     1       3.433   7.267  17.603  0.00  0.00    +0.000 A 
ATOM     31  C   UNL     1       2.600   8.312  18.096  0.00  0.00    +0.000 A 
BRANCH  28  32
ATOM     32  C   UNL     1       5.721   5.397  15.406  0.00  0.00    +0.000 C 
ATOM     33  N   UNL     1       5.119   4.515  14.671  0.00  0.00    +0.000 NA
ATOM     34  C   UNL     1       5.794   3.738  13.653  0.00  0.00    +0.000 C 
ATOM     35  C   UNL     1       7.076   4.373  13.176  0.00  0.00    +0.000 C 
ATOM     36  C   UNL     1       7.871   4.829  14.388  0.00  0.00    +0.000 C 
ATOM     37  N   UNL     1       7.050   5.702  15.209  0.00  0.00    +0.000 N 
ATOM     38  H   UNL     1       7.509   6.171  15.981  0.00  0.00    +0.000 HD
ENDBRANCH  28  32
ENDBRANCH   4  23
TORSDOF 4
ENDMDL
MODEL 4
REMARK VINA RESULT:      -8.1      2.956     14.025
REMARK  Name = 
REMARK  4 active torsions:
REMARK  status: ('A' for Active; 'I' for Inactive)
REMARK    1  A    between atoms: C_5  and  C_6
REMARK    2  A    between atoms: C_9  and  C_10
REMARK    3  A    between atoms: C_15  and  C_16
REMARK    4  A    between atoms: C_30  and  C_31
REMARK                            x       y       z     vdW  Elec       q    Type
REMARK                         _______ _______ _______ _____ _____    ______ ____
ROOT
ATOM      1  C   UNL     1       0.053  10.466  20.980  0.00  0.00    +0.000 A 
ATOM      2  C   UNL     1       0.417   9.223  21.522  0.00  0.00    +0.000 A 
ATOM      3  C   UNL     1       1.251   8.314  20.832  0.00  0.00    +0.000 A 
ATOM      4  C   UNL     1       1.757   8.607  19.562  0.00  0.00    +0.000 A 
ATOM      5  C   UNL     1       1.401   9.883  19.048  0.00  0.00    +0.000 A 
ATOM      6  C   UNL     1       0.556  10.784  19.724  0.00  0.00    +0.000 A 
ENDROOT
BRANCH   1  11
ATOM      7  C   UNL     1      -3.600  13.364  24.629  0.00  0.00    +0.000 A 
ATOM      8  C   UNL     1      -3.290  12.145  24.147  0.00  0.00    +0.000 A 
ATOM      9  C   UNL     1      -2.280  12.006  23.158  0.00  0.00    +0.000 A 
ATOM     10  N   UNL     1      -1.799  10.937  22.565  0.00  0.00    +0.000 NA
ATOM     11  C   UNL     1      -0.786  11.382  21.749  0.00  0.00    +0.000 A 
ATOM     12  C   UNL     1      -0.691  12.766  21.815  0.00  0.00    +0.000 A 
ATOM     13  N   UNL     1      -1.647  13.164  22.726  0.00  0.00    +0.000 N 
ATOM     14  C   UNL     1      -1.968  14.439  23.205  0.00  0.00    +0.000 A 
ATOM     15  C   UNL     1      -2.926  14.572  24.144  0.00  0.00    +0.000 A 
BRANCH  15  16
ATOM     16  C   UNL     1      -3.251  15.953  24.693  0.00  0.00    +0.000 C 
ATOM     17  N   UNL     1      -2.283  16.638  25.220  0.00  0.00    +0.000 NA
ATOM     18  C   UNL     1      -2.564  17.969  25.765  0.00  0.00    +0.000 C 
ATOM     19  C   UNL     1      -3.780  18.631  25.140  0.00  0.00    +0.000 C 
ATOM     20  C   UNL     1      -4.941  17.665  25.221  0.00  0.00    +0.000 C 
ATOM     21  N   UNL     1      -4.542  16.429  24.598  0.00  0.00    +0.000 N 
ATOM     22  H   UNL     1      -5.273  15.741  24.458  0.00  0.00    +0.000 HD
ENDBRANCH  15  16
ENDBRANCH   1  11
BRANCH   4  23
ATOM     23  C   UNL     1       2.530   7.616  18.731  0.00  0.00    +0.000 A 
ATOM     24  C   UNL     1       2.594   6.294  19.216  0.00  0.00    +0.000 A 
ATOM     25  C   UNL     1       3.304   5.280  18.587  0.00  0.00    +0.000 A 
ATOM     26  C   UNL     1       3.994   5.575  17.419  0.00  0.00    +0.000 A 
ATOM     27  C   UNL     1       4.789   4.799  16.580  0.00  0.00    +0.000 A 
ATOM     28  C   UNL     1       5.231   5.586  15.540  0.00  0.00    +0.000 A 
ATOM     29  O   UNL     1       4.748   6.876  15.718  0.00  0.00    +0.000 OA
ATOM     30  C   UNL     1       3.972   6.861  16.887  0.00  0.00    +0.000 A 
ATOM     31  C   UNL     1       3.245   7.908  17.524  0.00  0.00    +0.000 A 
BRANCH  28  32
ATOM     32  C   UNL     1       6.100   5.091  14.458  0.00  0.00    +0.000 C 
ATOM     33  N   UNL     1       5.529   4.132  13.799  0.00  0.00    +0.000 NA
ATOM     34  C   UNL     1       6.190   3.393  12.744  0.00  0.00    +0.000 C 
ATOM     35  C   UNL     1       7.357   4.134  12.143  0.00  0.00    +0.000 C 
ATOM     36  C   UNL     1       8.203   4.704  13.271  0.00  0.00    +0.000 C 
ATOM     37  N   UNL     1       7.370   5.519  14.139  0.00  0.00    +0.000 N 
ATOM     38  H   UNL     1       7.843   6.054  14.857  0.00  0.00    +0.000 HD
ENDBRANCH  28  32
ENDBRANCH   4  23
TORSDOF 4
ENDMDL
MODEL 5
REMARK VINA RESULT:      -8.0      2.536     14.043
REMARK  Name = 
REMARK  4 active torsions:
REMARK  status: ('A' for Active; 'I' for Inactive)
REMARK    1  A    between atoms: C_5  and  C_6
REMARK    2  A    between atoms: C_9  and  C_10
REMARK    3  A    between atoms: C_15  and  C_16
REMARK    4  A    between atoms: C_30  and  C_31
REMARK                            x       y       z     vdW  Elec       q    Type
REMARK                         _______ _______ _______ _____ _____    ______ ____
ROOT
ATOM      1  C   UNL     1      -0.011  10.715  20.938  0.00  0.00    +0.000 A 
ATOM      2  C   UNL     1       0.308   9.470  21.504  0.00  0.00    +0.000 A 
ATOM      3  C   UNL     1       1.155   8.542  20.856  0.00  0.00    +0.000 A 
ATOM      4  C   UNL     1       1.721   8.817  19.608  0.00  0.00    +0.000 A 
ATOM      5  C   UNL     1       1.409  10.095  19.071  0.00  0.00    +0.000 A 
ATOM      6  C   UNL     1       0.551  11.015  19.703  0.00  0.00    +0.000 A 
ENDROOT
BRANCH   1  11
ATOM      7  C   UNL     1      -2.621  14.869  24.253  0.00  0.00    +0.000 A 
ATOM      8  C   UNL     1      -1.488  14.156  24.100  0.00  0.00    +0.000 A 
ATOM      9  C   UNL     1      -1.406  13.157  23.093  0.00  0.00    +0.000 A 
ATOM     10  N   UNL     1      -0.417  12.366  22.747  0.00  0.00    +0.000 NA
ATOM     11  C   UNL     1      -0.867  11.650  21.664  0.00  0.00    +0.000 A 
ATOM     12  C   UNL     1      -2.185  11.987  21.382  0.00  0.00    +0.000 A 
ATOM     13  N   UNL     1      -2.527  12.960  22.298  0.00  0.00    +0.000 N 
ATOM     14  C   UNL     1      -3.716  13.680  22.454  0.00  0.00    +0.000 A 
ATOM     15  C   UNL     1      -3.796  14.629  23.409  0.00  0.00    +0.000 A 
BRANCH  15  16
ATOM     16  C   UNL     1      -5.075  15.439  23.556  0.00  0.00    +0.000 C 
ATOM     17  N   UNL     1      -4.969  16.670  23.950  0.00  0.00    +0.000 NA
ATOM     18  C   UNL     1      -6.184  17.476  24.109  0.00  0.00    +0.000 C 
ATOM     19  C   UNL     1      -7.342  16.993  23.253  0.00  0.00    +0.000 C 
ATOM     20  C   UNL     1      -7.536  15.514  23.504  0.00  0.00    +0.000 C 
ATOM     21  N   UNL     1      -6.284  14.848  23.253  0.00  0.00    +0.000 N 
ATOM     22  H   UNL     1      -6.309  13.835  23.249  0.00  0.00    +0.000 HD
ENDBRANCH  15  16
ENDBRANCH   1  11
BRANCH   4  23
ATOM     23  C   UNL     1       2.513   7.807  18.819  0.00  0.00    +0.000 A 
ATOM     24  C   UNL     1       2.675   6.533  19.400  0.00  0.00    +0.000 A 
ATOM     25  C   UNL     1       3.414   5.513  18.815  0.00  0.00    +0.000 A 
ATOM     26  C   UNL     1       4.033   5.751  17.596  0.00  0.00    +0.000 A 
ATOM     27  C   UNL     1       4.833   4.956  16.780  0.00  0.00    +0.000 A 
ATOM     28  C   UNL     1       5.180   5.681  15.662  0.00  0.00    +0.000 A 
ATOM     29  O   UNL     1       4.632   6.954  15.765  0.00  0.00    +0.000 OA
ATOM     30  C   UNL     1       3.912   6.988  16.969  0.00  0.00    +0.000 A 
ATOM     31  C   UNL     1       3.155   8.041  17.558  0.00  0.00    +0.000 A 
BRANCH  28  32
ATOM     32  C   UNL     1       6.027   5.151  14.580  0.00  0.00    +0.000 C 
ATOM     33  N   UNL     1       5.425   4.201  13.935  0.00  0.00    +0.000 NA
ATOM     34  C   UNL     1       6.058   3.432  12.884  0.00  0.00    +0.000 C 
ATOM     35  C   UNL     1       7.241   4.133  12.267  0.00  0.00    +0.000 C 
ATOM     36  C   UNL     1       8.110   4.691  13.382  0.00  0.00    +0.000 C 
ATOM     37  N   UNL     1       7.307   5.539  14.247  0.00  0.00    +0.000 N 
ATOM     38  H   UNL     1       7.800   6.069  14.956  0.00  0.00    +0.000 HD
ENDBRANCH  28  32
ENDBRANCH   4  23
TORSDOF 4
ENDMDL
MODEL 6
REMARK VINA RESULT:      -8.0      0.322      1.158
REMARK  Name = 
REMARK  4 active torsions:
REMARK  status: ('A' for Active; 'I' for Inactive)
REMARK    1  A    between atoms: C_5  and  C_6
REMARK    2  A    between atoms: C_9  and  C_10
REMARK    3  A    between atoms: C_15  and  C_16
REMARK    4  A    between atoms: C_30  and  C_31
REMARK                            x       y       z     vdW  Elec       q    Type
REMARK                         _______ _______ _______ _____ _____    ______ ____
ROOT
ATOM      1  C   UNL     1       1.949   8.387  19.164  0.00  0.00    +0.000 A 
ATOM      2  C   UNL     1       1.490   9.589  18.601  0.00  0.00    +0.000 A 
ATOM      3  C   UNL     1       0.639  10.474  19.302  0.00  0.00    +0.000 A 
ATOM      4  C   UNL     1       0.203  10.194  20.600  0.00  0.00    +0.000 A 
ATOM      5  C   UNL     1       0.706   8.988  21.159  0.00  0.00    +0.000 A 
ATOM      6  C   UNL     1       1.539   8.094  20.459  0.00  0.00    +0.000 A 
ENDROOT
BRANCH   1  11
ATOM      7  C   UNL     1       5.245   4.147  16.670  0.00  0.00    +0.000 A 
ATOM      8  C   UNL     1       4.527   4.460  17.767  0.00  0.00    +0.000 A 
ATOM      9  C   UNL     1       3.944   5.749  17.892  0.00  0.00    +0.000 A 
ATOM     10  N   UNL     1       3.198   6.266  18.841  0.00  0.00    +0.000 NA
ATOM     11  C   UNL     1       2.854   7.524  18.408  0.00  0.00    +0.000 A 
ATOM     12  C   UNL     1       3.454   7.790  17.185  0.00  0.00    +0.000 A 
ATOM     13  N   UNL     1       4.149   6.646  16.852  0.00  0.00    +0.000 N 
ATOM     14  C   UNL     1       4.904   6.343  15.713  0.00  0.00    +0.000 A 
ATOM     15  C   UNL     1       5.459   5.119  15.593  0.00  0.00    +0.000 A 
BRANCH  15  16
ATOM     16  C   UNL     1       6.249   4.775  14.340  0.00  0.00    +0.000 C 
ATOM     17  N   UNL     1       7.338   5.442  14.109  0.00  0.00    +0.000 NA
ATOM     18  C   UNL     1       8.118   5.140  12.905  0.00  0.00    +0.000 C 
ATOM     19  C   UNL     1       7.907   3.727  12.390  0.00  0.00    +0.000 C 
ATOM     20  C   UNL     1       6.420   3.490  12.245  0.00  0.00    +0.000 C 
ATOM     21  N   UNL     1       5.795   3.768  13.513  0.00  0.00    +0.000 N 
ATOM     22  H   UNL     1       4.817   3.516  13.596  0.00  0.00    +0.000 HD
ENDBRANCH  15  16
ENDBRANCH   1  11
BRANCH   4  23
ATOM     23  C   UNL     1      -0.814  11.032  21.330  0.00  0.00    +0.000 A 
ATOM     24  C   UNL     1      -0.949  10.803  22.714  0.00  0.00    +0.000 A 
ATOM     25  C   UNL     1      -1.872  11.463  23.514  0.00  0.00    +0.000 A 
ATOM     26  C   UNL     1      -2.714  12.399  22.927  0.00  0.00    +0.000 A 
ATOM     27  C   UNL     1      -3.728  13.200  23.444  0.00  0.00    +0.000 A 
ATOM     28  C   UNL     1      -4.246  13.967  22.425  0.00  0.00    +0.000 A 
ATOM     29  O   UNL     1      -3.591  13.644  21.243  0.00  0.00    +0.000 OA
ATOM     30  C   UNL     1      -2.631  12.672  21.565  0.00  0.00    +0.000 A 
ATOM     31  C   UNL     1      -1.687  12.001  20.736  0.00  0.00    +0.000 A 
BRANCH  28  32
ATOM     32  C   UNL     1      -5.342  14.935  22.612  0.00  0.00    +0.000 C 
ATOM     33  N   UNL     1      -4.993  16.120  22.217  0.00  0.00    +0.000 NA
ATOM     34  C   UNL     1      -5.837  17.285  22.373  0.00  0.00    +0.000 C 
ATOM     35  C   UNL     1      -7.295  16.944  22.544  0.00  0.00    +0.000 C 
ATOM     36  C   UNL     1      -7.413  15.821  23.562  0.00  0.00    +0.000 C 
ATOM     37  N   UNL     1      -6.589  14.699  23.148  0.00  0.00    +0.000 N 
ATOM     38  H   UNL     1      -6.680  13.841  23.680  0.00  0.00    +0.000 HD
ENDBRANCH  28  32
ENDBRANCH   4  23
TORSDOF 4
ENDMDL
MODEL 7
REMARK VINA RESULT:      -8.0      0.647      1.031
REMARK  Name = 
REMARK  4 active torsions:
REMARK  status: ('A' for Active; 'I' for Inactive)
REMARK    1  A    between atoms: C_5  and  C_6
REMARK    2  A    between atoms: C_9  and  C_10
REMARK    3  A    between atoms: C_15  and  C_16
REMARK    4  A    between atoms: C_30  and  C_31
REMARK                            x       y       z     vdW  Elec       q    Type
REMARK                         _______ _______ _______ _____ _____    ______ ____
ROOT
ATOM      1  C   UNL     1       2.256   7.988  18.997  0.00  0.00    +0.000 A 
ATOM      2  C   UNL     1       1.810   9.216  18.482  0.00  0.00    +0.000 A 
ATOM      3  C   UNL     1       0.998  10.097  19.231  0.00  0.00    +0.000 A 
ATOM      4  C   UNL     1       0.591   9.788  20.532  0.00  0.00    +0.000 A 
ATOM      5  C   UNL     1       1.081   8.556  21.042  0.00  0.00    +0.000 A 
ATOM      6  C   UNL     1       1.875   7.665  20.294  0.00  0.00    +0.000 A 
ENDROOT
BRANCH   1  11
ATOM      7  C   UNL     1       5.416   3.757  16.317  0.00  0.00    +0.000 A 
ATOM      8  C   UNL     1       4.756   4.066  17.451  0.00  0.00    +0.000 A 
ATOM      9  C   UNL     1       4.181   5.354  17.612  0.00  0.00    +0.000 A 
ATOM     10  N   UNL     1       3.484   5.867  18.601  0.00  0.00    +0.000 NA
ATOM     11  C   UNL     1       3.120   7.127  18.192  0.00  0.00    +0.000 A 
ATOM     12  C   UNL     1       3.657   7.399  16.940  0.00  0.00    +0.000 A 
ATOM     13  N   UNL     1       4.333   6.256  16.567  0.00  0.00    +0.000 N 
ATOM     14  C   UNL     1       5.029   5.958  15.390  0.00  0.00    +0.000 A 
ATOM     15  C   UNL     1       5.575   4.735  15.236  0.00  0.00    +0.000 A 
BRANCH  15  16
ATOM     16  C   UNL     1       6.300   4.396  13.942  0.00  0.00    +0.000 C 
ATOM     17  N   UNL     1       7.259   5.183  13.562  0.00  0.00    +0.000 NA
ATOM     18  C   UNL     1       7.973   4.888  12.315  0.00  0.00    +0.000 C 
ATOM     19  C   UNL     1       7.924   3.421  11.927  0.00  0.00    +0.000 C 
ATOM     20  C   UNL     1       6.479   2.973  11.939  0.00  0.00    +0.000 C 
ATOM     21  N   UNL     1       5.929   3.270  13.237  0.00  0.00    +0.000 N 
ATOM     22  H   UNL     1       5.007   2.895  13.429  0.00  0.00    +0.000 HD
ENDBRANCH  15  16
ENDBRANCH   1  11
BRANCH   4  23
ATOM     23  C   UNL     1      -0.386  10.627  21.314  0.00  0.00    +0.000 A 
ATOM     24  C   UNL     1      -0.582  10.279  22.666  0.00  0.00    +0.000 A 
ATOM     25  C   UNL     1      -1.481  10.927  23.502  0.00  0.00    +0.000 A 
ATOM     26  C   UNL     1      -2.235  11.974  22.988  0.00  0.00    +0.000 A 
ATOM     27  C   UNL     1      -3.205  12.795  23.554  0.00  0.00    +0.000 A 
ATOM     28  C   UNL     1      -3.634  13.692  22.601  0.00  0.00    +0.000 A 
ATOM     29  O   UNL     1      -2.966  13.435  21.411  0.00  0.00    +0.000 OA
ATOM     30  C   UNL     1      -2.089  12.368  21.661  0.00  0.00    +0.000 A 
ATOM     31  C   UNL     1      -1.169  11.710  20.795  0.00  0.00    +0.000 A 
BRANCH  28  32
ATOM     32  C   UNL     1      -4.663  14.716  22.852  0.00  0.00    +0.000 C 
ATOM     33  N   UNL     1      -5.765  14.180  23.274  0.00  0.00    +0.000 NA
ATOM     34  C   UNL     1      -6.976  14.938  23.508  0.00  0.00    +0.000 C 
ATOM     35  C   UNL     1      -6.723  16.410  23.715  0.00  0.00    +0.000 C 
ATOM     36  C   UNL     1      -5.760  16.892  22.642  0.00  0.00    +0.000 C 
ATOM     37  N   UNL     1      -4.557  16.077  22.666  0.00  0.00    +0.000 N 
ATOM     38  H   UNL     1      -3.788  16.379  22.080  0.00  0.00    +0.000 HD
ENDBRANCH  28  32
ENDBRANCH   4  23
TORSDOF 4
ENDMDL
MODEL 8
REMARK VINA RESULT:      -7.7      0.566      1.348
REMARK  Name = 
REMARK  4 active torsions:
REMARK  status: ('A' for Active; 'I' for Inactive)
REMARK    1  A    between atoms: C_5  and  C_6
REMARK    2  A    between atoms: C_9  and  C_10
REMARK    3  A    between atoms: C_15  and  C_16
REMARK    4  A    between atoms: C_30  and  C_31
REMARK                            x       y       z     vdW  Elec       q    Type
REMARK                         _______ _______ _______ _____ _____    ______ ____
ROOT
ATOM      1  C   UNL     1       1.846   8.487  19.090  0.00  0.00    +0.000 A 
ATOM      2  C   UNL     1       1.523   8.200  20.426  0.00  0.00    +0.000 A 
ATOM      3  C   UNL     1       0.599   8.976  21.163  0.00  0.00    +0.000 A 
ATOM      4  C   UNL     1      -0.044  10.079  20.595  0.00  0.00    +0.000 A 
ATOM      5  C   UNL     1       0.276  10.331  19.233  0.00  0.00    +0.000 A 
ATOM      6  C   UNL     1       1.209   9.573  18.501  0.00  0.00    +0.000 A 
ENDROOT
BRANCH   1  11
ATOM      7  C   UNL     1       5.340   4.305  16.773  0.00  0.00    +0.000 A 
ATOM      8  C   UNL     1       4.629   4.643  17.867  0.00  0.00    +0.000 A 
ATOM      9  C   UNL     1       3.971   5.899  17.929  0.00  0.00    +0.000 A 
ATOM     10  N   UNL     1       3.215   6.428  18.864  0.00  0.00    +0.000 NA
ATOM     11  C   UNL     1       2.785   7.634  18.365  0.00  0.00    +0.000 A 
ATOM     12  C   UNL     1       3.340   7.859  17.112  0.00  0.00    +0.000 A 
ATOM     13  N   UNL     1       4.096   6.740  16.831  0.00  0.00    +0.000 N 
ATOM     14  C   UNL     1       4.843   6.413  15.694  0.00  0.00    +0.000 A 
ATOM     15  C   UNL     1       5.469   5.220  15.634  0.00  0.00    +0.000 A 
BRANCH  15  16
ATOM     16  C   UNL     1       6.251   4.846  14.384  0.00  0.00    +0.000 C 
ATOM     17  N   UNL     1       7.378   5.453  14.171  0.00  0.00    +0.000 NA
ATOM     18  C   UNL     1       8.152   5.121  12.970  0.00  0.00    +0.000 C 
ATOM     19  C   UNL     1       7.866   3.729  12.436  0.00  0.00    +0.000 C 
ATOM     20  C   UNL     1       6.369   3.579  12.275  0.00  0.00    +0.000 C 
ATOM     21  N   UNL     1       5.749   3.877  13.540  0.00  0.00    +0.000 N 
ATOM     22  H   UNL     1       4.757   3.680  13.611  0.00  0.00    +0.000 HD
ENDBRANCH  15  16
ENDBRANCH   1  11
BRANCH   4  23
ATOM     23  C   UNL     1      -0.925  11.017  21.379  0.00  0.00    +0.000 A 
ATOM     24  C   UNL     1      -0.994  10.807  22.771  0.00  0.00    +0.000 A 
ATOM     25  C   UNL     1      -1.795  11.559  23.620  0.00  0.00    +0.000 A 
ATOM     26  C   UNL     1      -2.577  12.570  23.078  0.00  0.00    +0.000 A 
ATOM     27  C   UNL     1      -3.473  13.469  23.650  0.00  0.00    +0.000 A 
ATOM     28  C   UNL     1      -3.977  14.280  22.658  0.00  0.00    +0.000 A 
ATOM     29  O   UNL     1      -3.433  13.890  21.440  0.00  0.00    +0.000 OA
ATOM     30  C   UNL     1      -2.555  12.828  21.711  0.00  0.00    +0.000 A 
ATOM     31  C   UNL     1      -1.735  12.065  20.831  0.00  0.00    +0.000 A 
BRANCH  28  32
ATOM     32  C   UNL     1      -4.958  15.351  22.902  0.00  0.00    +0.000 C 
ATOM     33  N   UNL     1      -5.778  15.473  21.905  0.00  0.00    +0.000 NA
ATOM     34  C   UNL     1      -6.785  16.510  21.831  0.00  0.00    +0.000 C 
ATOM     35  C   UNL     1      -7.138  17.092  23.176  0.00  0.00    +0.000 C 
ATOM     36  C   UNL     1      -5.852  17.382  23.931  0.00  0.00    +0.000 C 
ATOM     37  N   UNL     1      -5.046  16.175  24.003  0.00  0.00    +0.000 N 
ATOM     38  H   UNL     1      -4.221  16.209  24.590  0.00  0.00    +0.000 HD
ENDBRANCH  28  32
ENDBRANCH   4  23
TORSDOF 4
ENDMDL
MODEL 9
REMARK VINA RESULT:      -7.5      1.883      1.991
REMARK  Name = 
REMARK  4 active torsions:
REMARK  status: ('A' for Active; 'I' for Inactive)
REMARK    1  A    between atoms: C_5  and  C_6
REMARK    2  A    between atoms: C_9  and  C_10
REMARK    3  A    between atoms: C_15  and  C_16
REMARK    4  A    between atoms: C_30  and  C_31
REMARK                            x       y       z     vdW  Elec       q    Type
REMARK                         _______ _______ _______ _____ _____    ______ ____
ROOT
ATOM      1  C   UNL     1       2.051   8.600  19.353  0.00  0.00    +0.000 A 
ATOM      2  C   UNL     1       1.589   9.794  18.776  0.00  0.00    +0.000 A 
ATOM      3  C   UNL     1       0.863  10.756  19.513  0.00  0.00    +0.000 A 
ATOM      4  C   UNL     1       0.561  10.566  20.865  0.00  0.00    +0.000 A 
ATOM      5  C   UNL     1       1.066   9.365  21.434  0.00  0.00    +0.000 A 
ATOM      6  C   UNL     1       1.774   8.395  20.699  0.00  0.00    +0.000 A 
ENDROOT
BRANCH   1  11
ATOM      7  C   UNL     1       4.584   4.063  16.513  0.00  0.00    +0.000 A 
ATOM      8  C   UNL     1       3.818   4.389  17.572  0.00  0.00    +0.000 A 
ATOM      9  C   UNL     1       3.536   5.752  17.855  0.00  0.00    +0.000 A 
ATOM     10  N   UNL     1       2.809   6.301  18.801  0.00  0.00    +0.000 NA
ATOM     11  C   UNL     1       2.825   7.652  18.554  0.00  0.00    +0.000 A 
ATOM     12  C   UNL     1       3.628   7.928  17.454  0.00  0.00    +0.000 A 
ATOM     13  N   UNL     1       4.078   6.705  17.003  0.00  0.00    +0.000 N 
ATOM     14  C   UNL     1       4.888   6.385  15.908  0.00  0.00    +0.000 A 
ATOM     15  C   UNL     1       5.157   5.092  15.639  0.00  0.00    +0.000 A 
BRANCH  15  16
ATOM     16  C   UNL     1       6.007   4.739  14.427  0.00  0.00    +0.000 C 
ATOM     17  N   UNL     1       5.566   3.819  13.626  0.00  0.00    +0.000 NA
ATOM     18  C   UNL     1       6.365   3.451  12.453  0.00  0.00    +0.000 C 
ATOM     19  C   UNL     1       7.292   4.559  11.985  0.00  0.00    +0.000 C 
ATOM     20  C   UNL     1       8.105   5.032  13.170  0.00  0.00    +0.000 C 
ATOM     21  N   UNL     1       7.192   5.414  14.217  0.00  0.00    +0.000 N 
ATOM     22  H   UNL     1       7.599   5.881  15.018  0.00  0.00    +0.000 HD
ENDBRANCH  15  16
ENDBRANCH   1  11
BRANCH   4  23
ATOM     23  C   UNL     1      -0.328  11.493  21.652  0.00  0.00    +0.000 A 
ATOM     24  C   UNL     1      -1.546  10.960  22.118  0.00  0.00    +0.000 A 
ATOM     25  C   UNL     1      -2.489  11.700  22.818  0.00  0.00    +0.000 A 
ATOM     26  C   UNL     1      -2.229  13.040  23.075  0.00  0.00    +0.000 A 
ATOM     27  C   UNL     1      -2.961  14.028  23.726  0.00  0.00    +0.000 A 
ATOM     28  C   UNL     1      -2.233  15.197  23.714  0.00  0.00    +0.000 A 
ATOM     29  O   UNL     1      -1.043  14.976  23.031  0.00  0.00    +0.000 OA
ATOM     30  C   UNL     1      -1.044  13.627  22.643  0.00  0.00    +0.000 A 
ATOM     31  C   UNL     1      -0.069  12.876  21.925  0.00  0.00    +0.000 A 
BRANCH  28  32
ATOM     32  C   UNL     1      -2.705  16.456  24.316  0.00  0.00    +0.000 C 
ATOM     33  N   UNL     1      -3.895  16.757  23.900  0.00  0.00    +0.000 NA
ATOM     34  C   UNL     1      -4.568  17.990  24.251  0.00  0.00    +0.000 C 
ATOM     35  C   UNL     1      -4.019  18.631  25.500  0.00  0.00    +0.000 C 
ATOM     36  C   UNL     1      -2.501  18.630  25.418  0.00  0.00    +0.000 C 
ATOM     37  N   UNL     1      -2.026  17.275  25.191  0.00  0.00    +0.000 N 
ATOM     38  H   UNL     1      -1.025  17.125  25.242  0.00  0.00    +0.000 HD
ENDBRANCH  28  32
ENDBRANCH   4  23
TORSDOF 4
ENDMDL
