MODEL 1
REMARK VINA RESULT:      -7.8      0.000      0.000
REMARK  Name = 
REMARK  6 active torsions:
REMARK  status: ('A' for Active; 'I' for Inactive)
REMARK    1  A    between atoms: C_1  and  C_2
REMARK    2  A    between atoms: C_7  and  C_8
REMARK    3  A    between atoms: C_11  and  C_12
REMARK    4  A    between atoms: C_16  and  N_17
REMARK    5  A    between atoms: N_17  and  C_18
REMARK    6  A    between atoms: C_18  and  C_19
REMARK                            x       y       z     vdW  Elec       q    Type
REMARK                         _______ _______ _______ _____ _____    ______ ____
ROOT
ATOM      1  C   UNL     1      -0.819  11.199  18.840  0.00  0.00    +0.000 A 
ATOM      2  C   UNL     1      -2.086  11.424  19.344  0.00  0.00    +0.000 A 
ATOM      3  C   UNL     1      -3.029  11.358  18.292  0.00  0.00    +0.000 A 
ATOM      4  C   UNL     1      -4.430  11.498  18.184  0.00  0.00    +0.000 A 
ATOM      5  C   UNL     1      -4.950  11.395  16.882  0.00  0.00    +0.000 A 
ATOM      6  C   UNL     1      -4.097  11.165  15.806  0.00  0.00    +0.000 A 
ATOM      7  N   UNL     1      -2.755  11.022  15.879  0.00  0.00    +0.000 NA
ATOM      8  C   UNL     1      -2.293  11.125  17.137  0.00  0.00    +0.000 A 
ATOM      9  N   UNL     1      -0.971  11.018  17.482  0.00  0.00    +0.000 N 
ATOM     10  H   UNL     1      -0.239  10.837  16.812  0.00  0.00    +0.000 HD
ENDROOT
BRANCH   1  17
ATOM     11  C   UNL     1       2.424   6.283  19.761  0.00  0.00    +0.000 C 
ATOM     12  C   UNL     1       2.597   7.433  18.802  0.00  0.00    +0.000 C 
ATOM     13  O   UNL     1       3.424   7.345  17.894  0.00  0.00    +0.000 OA
ATOM     14  N   UNL     1       1.797   8.552  18.991  0.00  0.00    +0.000 N 
ATOM     15  C   UNL     1       1.804   9.575  17.945  0.00  0.00    +0.000 C 
ATOM     16  C   UNL     1       1.675  10.986  18.515  0.00  0.00    +0.000 C 
ATOM     17  C   UNL     1       0.522  11.135  19.518  0.00  0.00    +0.000 C 
ATOM     18  C   UNL     1       0.587  10.022  20.571  0.00  0.00    +0.000 C 
ATOM     19  C   UNL     1       0.706   8.626  19.964  0.00  0.00    +0.000 C 
ENDBRANCH   1  17
BRANCH   4  20
ATOM     20  C   UNL     1      -5.244  11.780  19.381  0.00  0.00    +0.000 A 
ATOM     21  C   UNL     1      -6.326  10.982  19.740  0.00  0.00    +0.000 A 
ATOM     22  N   UNL     1      -7.116  11.243  20.805  0.00  0.00    +0.000 NA
ATOM     23  C   UNL     1      -6.775  12.353  21.505  0.00  0.00    +0.000 A 
ATOM     24  C   UNL     1      -5.705  13.191  21.182  0.00  0.00    +0.000 A 
ATOM     25  N   UNL     1      -4.929  12.888  20.120  0.00  0.00    +0.000 NA
BRANCH  24  26
ATOM     26  N   UNL     1      -5.375  14.324  21.899  0.00  0.00    +0.000 N 
ATOM     27  H   UNL     1      -5.981  15.118  21.728  0.00  0.00    +0.000 HD
BRANCH  26  28
ATOM     28  C   UNL     1      -4.622  14.265  23.133  0.00  0.00    +0.000 C 
BRANCH  28  29
ATOM     29  C   UNL     1      -3.249  13.673  22.925  0.00  0.00    +0.000 A 
ATOM     30  C   UNL     1      -2.203  14.454  22.401  0.00  0.00    +0.000 A 
ATOM     31  C   UNL     1      -0.918  13.923  22.256  0.00  0.00    +0.000 A 
ATOM     32  C   UNL     1      -0.664  12.603  22.621  0.00  0.00    +0.000 A 
ATOM     33  C   UNL     1      -1.698  11.825  23.125  0.00  0.00    +0.000 A 
ATOM     34  F   UNL     1      -1.454  10.557  23.482  0.00  0.00    +0.000 F 
ATOM     35  C   UNL     1      -2.980  12.344  23.278  0.00  0.00    +0.000 A 
ENDBRANCH  28  29
ENDBRANCH  26  28
ENDBRANCH  24  26
ENDBRANCH   4  20
TORSDOF 5
ENDMDL
MODEL 2
REMARK VINA RESULT:      -7.8      4.514      8.537
REMARK  Name = 
REMARK  6 active torsions:
REMARK  status: ('A' for Active; 'I' for Inactive)
REMARK    1  A    between atoms: C_1  and  C_2
REMARK    2  A    between atoms: C_7  and  C_8
REMARK    3  A    between atoms: C_11  and  C_12
REMARK    4  A    between atoms: C_16  and  N_17
REMARK    5  A    between atoms: N_17  and  C_18
REMARK    6  A    between atoms: C_18  and  C_19
REMARK                            x       y       z     vdW  Elec       q    Type
REMARK                         _______ _______ _______ _____ _____    ______ ____
ROOT
ATOM      1  C   UNL     1       0.991  14.058  20.624  0.00  0.00    +0.000 A 
ATOM      2  C   UNL     1       1.194  12.751  20.223  0.00  0.00    +0.000 A 
ATOM      3  C   UNL     1       0.440  11.884  21.048  0.00  0.00    +0.000 A 
ATOM      4  C   UNL     1       0.244  10.488  21.127  0.00  0.00    +0.000 A 
ATOM      5  C   UNL     1      -0.588  10.053  22.175  0.00  0.00    +0.000 A 
ATOM      6  C   UNL     1      -1.157  10.979  23.044  0.00  0.00    +0.000 A 
ATOM      7  N   UNL     1      -0.992  12.319  22.990  0.00  0.00    +0.000 NA
ATOM      8  C   UNL     1      -0.193  12.699  21.978  0.00  0.00    +0.000 A 
ATOM      9  N   UNL     1       0.134  14.001  21.703  0.00  0.00    +0.000 N 
ATOM     10  H   UNL     1      -0.215  14.783  22.238  0.00  0.00    +0.000 HD
ENDROOT
BRANCH   1  17
ATOM     11  C   UNL     1       6.734  15.450  19.846  0.00  0.00    +0.000 C 
ATOM     12  C   UNL     1       5.644  15.111  18.863  0.00  0.00    +0.000 C 
ATOM     13  O   UNL     1       5.935  14.888  17.688  0.00  0.00    +0.000 OA
ATOM     14  N   UNL     1       4.341  15.062  19.342  0.00  0.00    +0.000 N 
ATOM     15  C   UNL     1       3.311  14.525  18.451  0.00  0.00    +0.000 C 
ATOM     16  C   UNL     1       1.972  15.239  18.620  0.00  0.00    +0.000 C 
ATOM     17  C   UNL     1       1.524  15.357  20.084  0.00  0.00    +0.000 C 
ATOM     18  C   UNL     1       2.662  15.919  20.945  0.00  0.00    +0.000 C 
ATOM     19  C   UNL     1       3.982  15.175  20.756  0.00  0.00    +0.000 C 
ENDBRANCH   1  17
BRANCH   4  20
ATOM     20  C   UNL     1       0.924   9.585  20.181  0.00  0.00    +0.000 A 
ATOM     21  C   UNL     1       0.940   9.831  18.811  0.00  0.00    +0.000 A 
ATOM     22  N   UNL     1       1.517   8.998  17.917  0.00  0.00    +0.000 NA
ATOM     23  C   UNL     1       2.083   7.891  18.457  0.00  0.00    +0.000 A 
ATOM     24  C   UNL     1       2.088   7.594  19.823  0.00  0.00    +0.000 A 
ATOM     25  N   UNL     1       1.515   8.459  20.686  0.00  0.00    +0.000 NA
BRANCH  24  26
ATOM     26  N   UNL     1       2.660   6.457  20.358  0.00  0.00    +0.000 N 
ATOM     27  H   UNL     1       3.550   6.613  20.815  0.00  0.00    +0.000 HD
BRANCH  26  28
ATOM     28  C   UNL     1       1.877   5.294  20.715  0.00  0.00    +0.000 C 
BRANCH  28  29
ATOM     29  C   UNL     1       2.047   4.174  19.718  0.00  0.00    +0.000 A 
ATOM     30  C   UNL     1       1.103   3.134  19.639  0.00  0.00    +0.000 A 
ATOM     31  C   UNL     1       1.231   2.123  18.683  0.00  0.00    +0.000 A 
ATOM     32  C   UNL     1       2.309   2.131  17.800  0.00  0.00    +0.000 A 
ATOM     33  C   UNL     1       3.250   3.148  17.885  0.00  0.00    +0.000 A 
ATOM     34  F   UNL     1       4.285   3.161  17.033  0.00  0.00    +0.000 F 
ATOM     35  C   UNL     1       3.132   4.162  18.831  0.00  0.00    +0.000 A 
ENDBRANCH  28  29
ENDBRANCH  26  28
ENDBRANCH  24  26
ENDBRANCH   4  20
TORSDOF 5
ENDMDL
MODEL 3
REMARK VINA RESULT:      -7.8      3.371      7.569
REMARK  Name = 
REMARK  6 active torsions:
REMARK  status: ('A' for Active; 'I' for Inactive)
REMARK    1  A    between atoms: C_1  and  C_2
REMARK    2  A    between atoms: C_7  and  C_8
REMARK    3  A    between atoms: C_11  and  C_12
REMARK    4  A    between atoms: C_16  and  N_17
REMARK    5  A    between atoms: N_17  and  C_18
REMARK    6  A    between atoms: C_18  and  C_19
REMARK                            x       y       z     vdW  Elec       q    Type
REMARK                         _______ _______ _______ _____ _____    ______ ____
ROOT
ATOM      1  C   UNL     1      -5.589  12.383  18.208  0.00  0.00    +0.000 A 
ATOM      2  C   UNL     1      -4.339  12.104  18.728  0.00  0.00    +0.000 A 
ATOM      3  C   UNL     1      -3.570  11.415  17.761  0.00  0.00    +0.000 A 
ATOM      4  C   UNL     1      -2.263  10.882  17.707  0.00  0.00    +0.000 A 
ATOM      5  C   UNL     1      -1.932  10.216  16.513  0.00  0.00    +0.000 A 
ATOM      6  C   UNL     1      -2.865  10.121  15.484  0.00  0.00    +0.000 A 
ATOM      7  N   UNL     1      -4.118  10.625  15.506  0.00  0.00    +0.000 NA
ATOM      8  C   UNL     1      -4.401  11.254  16.660  0.00  0.00    +0.000 A 
ATOM      9  N   UNL     1      -5.603  11.852  16.935  0.00  0.00    +0.000 N 
ATOM     10  H   UNL     1      -6.370  11.877  16.280  0.00  0.00    +0.000 HD
ENDROOT
BRANCH   1  17
ATOM     11  C   UNL     1      -7.030  12.660  23.985  0.00  0.00    +0.000 C 
ATOM     12  C   UNL     1      -6.451  13.688  23.047  0.00  0.00    +0.000 C 
ATOM     13  O   UNL     1      -6.003  14.740  23.502  0.00  0.00    +0.000 OA
ATOM     14  N   UNL     1      -6.447  13.387  21.691  0.00  0.00    +0.000 N 
ATOM     15  C   UNL     1      -5.696  14.275  20.802  0.00  0.00    +0.000 C 
ATOM     16  C   UNL     1      -6.373  14.440  19.443  0.00  0.00    +0.000 C 
ATOM     17  C   UNL     1      -6.770  13.107  18.794  0.00  0.00    +0.000 C 
ATOM     18  C   UNL     1      -7.544  12.239  19.794  0.00  0.00    +0.000 C 
ATOM     19  C   UNL     1      -6.833  12.089  21.137  0.00  0.00    +0.000 C 
ENDBRANCH   1  17
BRANCH   4  20
ATOM     20  C   UNL     1      -1.362  11.002  18.867  0.00  0.00    +0.000 A 
ATOM     21  C   UNL     1      -0.746  12.205  19.200  0.00  0.00    +0.000 A 
ATOM     22  N   UNL     1       0.119  12.332  20.231  0.00  0.00    +0.000 NA
ATOM     23  C   UNL     1       0.348  11.189  20.923  0.00  0.00    +0.000 A 
ATOM     24  C   UNL     1      -0.237   9.955  20.624  0.00  0.00    +0.000 A 
ATOM     25  N   UNL     1      -1.109   9.872  19.597  0.00  0.00    +0.000 NA
BRANCH  24  26
ATOM     26  N   UNL     1       0.013   8.797  21.332  0.00  0.00    +0.000 N 
ATOM     27  H   UNL     1      -0.765   8.149  21.364  0.00  0.00    +0.000 HD
BRANCH  26  28
ATOM     28  C   UNL     1       1.355   8.299  21.547  0.00  0.00    +0.000 C 
BRANCH  28  29
ATOM     29  C   UNL     1       1.796   7.374  20.439  0.00  0.00    +0.000 A 
ATOM     30  C   UNL     1       1.665   5.980  20.574  0.00  0.00    +0.000 A 
ATOM     31  C   UNL     1       2.025   5.124  19.529  0.00  0.00    +0.000 A 
ATOM     32  C   UNL     1       2.532   5.648  18.342  0.00  0.00    +0.000 A 
ATOM     33  C   UNL     1       2.676   7.023  18.212  0.00  0.00    +0.000 A 
ATOM     34  F   UNL     1       3.157   7.529  17.068  0.00  0.00    +0.000 F 
ATOM     35  C   UNL     1       2.317   7.885  19.243  0.00  0.00    +0.000 A 
ENDBRANCH  28  29
ENDBRANCH  26  28
ENDBRANCH  24  26
ENDBRANCH   4  20
TORSDOF 5
ENDMDL
MODEL 4
REMARK VINA RESULT:      -7.7      4.591      8.872
REMARK  Name = 
REMARK  6 active torsions:
REMARK  status: ('A' for Active; 'I' for Inactive)
REMARK    1  A    between atoms: C_1  and  C_2
REMARK    2  A    between atoms: C_7  and  C_8
REMARK    3  A    between atoms: C_11  and  C_12
REMARK    4  A    between atoms: C_16  and  N_17
REMARK    5  A    between atoms: N_17  and  C_18
REMARK    6  A    between atoms: C_18  and  C_19
REMARK                            x       y       z     vdW  Elec       q    Type
REMARK                         _______ _______ _______ _____ _____    ______ ____
ROOT
ATOM      1  C   UNL     1      -0.273  13.270  20.857  0.00  0.00    +0.000 A 
ATOM      2  C   UNL     1       0.304  12.170  20.252  0.00  0.00    +0.000 A 
ATOM      3  C   UNL     1       0.147  11.038  21.085  0.00  0.00    +0.000 A 
ATOM      4  C   UNL     1       0.513   9.676  21.013  0.00  0.00    +0.000 A 
ATOM      5  C   UNL     1       0.177   8.899  22.137  0.00  0.00    +0.000 A 
ATOM      6  C   UNL     1      -0.476   9.484  23.219  0.00  0.00    +0.000 A 
ATOM      7  N   UNL     1      -0.842  10.781  23.314  0.00  0.00    +0.000 NA
ATOM      8  C   UNL     1      -0.506  11.493  22.224  0.00  0.00    +0.000 A 
ATOM      9  N   UNL     1      -0.766  12.829  22.068  0.00  0.00    +0.000 N 
ATOM     10  H   UNL     1      -1.245  13.383  22.762  0.00  0.00    +0.000 HD
ENDROOT
BRANCH   1  17
ATOM     11  C   UNL     1       4.150  17.232  20.342  0.00  0.00    +0.000 C 
ATOM     12  C   UNL     1       3.351  16.483  19.307  0.00  0.00    +0.000 C 
ATOM     13  O   UNL     1       3.720  16.493  18.133  0.00  0.00    +0.000 OA
ATOM     14  N   UNL     1       2.221  15.801  19.740  0.00  0.00    +0.000 N 
ATOM     15  C   UNL     1       1.568  14.899  18.790  0.00  0.00    +0.000 C 
ATOM     16  C   UNL     1       0.050  14.892  18.950  0.00  0.00    +0.000 C 
ATOM     17  C   UNL     1      -0.409  14.697  20.402  0.00  0.00    +0.000 C 
ATOM     18  C   UNL     1       0.328  15.673  21.328  0.00  0.00    +0.000 C 
ATOM     19  C   UNL     1       1.844  15.646  21.146  0.00  0.00    +0.000 C 
ENDBRANCH   1  17
BRANCH   4  20
ATOM     20  C   UNL     1       1.237   9.161  19.837  0.00  0.00    +0.000 A 
ATOM     21  C   UNL     1       1.295   9.868  18.640  0.00  0.00    +0.000 A 
ATOM     22  N   UNL     1       1.914   9.400  17.533  0.00  0.00    +0.000 NA
ATOM     23  C   UNL     1       2.478   8.176  17.675  0.00  0.00    +0.000 A 
ATOM     24  C   UNL     1       2.442   7.422  18.851  0.00  0.00    +0.000 A 
ATOM     25  N   UNL     1       1.828   7.931  19.940  0.00  0.00    +0.000 NA
BRANCH  24  26
ATOM     26  N   UNL     1       3.013   6.172  18.978  0.00  0.00    +0.000 N 
ATOM     27  H   UNL     1       2.548   5.564  19.641  0.00  0.00    +0.000 HD
BRANCH  26  28
ATOM     28  C   UNL     1       3.825   5.585  17.933  0.00  0.00    +0.000 C 
BRANCH  28  29
ATOM     29  C   UNL     1       5.284   5.940  18.089  0.00  0.00    +0.000 A 
ATOM     30  C   UNL     1       5.910   6.813  17.182  0.00  0.00    +0.000 A 
ATOM     31  C   UNL     1       7.248   7.183  17.354  0.00  0.00    +0.000 A 
ATOM     32  C   UNL     1       7.979   6.676  18.425  0.00  0.00    +0.000 A 
ATOM     33  C   UNL     1       7.368   5.802  19.314  0.00  0.00    +0.000 A 
ATOM     34  F   UNL     1       8.068   5.317  20.348  0.00  0.00    +0.000 F 
ATOM     35  C   UNL     1       6.036   5.429  19.155  0.00  0.00    +0.000 A 
ENDBRANCH  28  29
ENDBRANCH  26  28
ENDBRANCH  24  26
ENDBRANCH   4  20
TORSDOF 5
ENDMDL
MODEL 5
REMARK VINA RESULT:      -7.6      4.076      8.259
REMARK  Name = 
REMARK  6 active torsions:
REMARK  status: ('A' for Active; 'I' for Inactive)
REMARK    1  A    between atoms: C_1  and  C_2
REMARK    2  A    between atoms: C_7  and  C_8
REMARK    3  A    between atoms: C_11  and  C_12
REMARK    4  A    between atoms: C_16  and  N_17
REMARK    5  A    between atoms: N_17  and  C_18
REMARK    6  A    between atoms: C_18  and  C_19
REMARK                            x       y       z     vdW  Elec       q    Type
REMARK                         _______ _______ _______ _____ _____    ______ ____
ROOT
ATOM      1  C   UNL     1       5.524   4.383  17.526  0.00  0.00    +0.000 A 
ATOM      2  C   UNL     1       4.604   5.184  18.176  0.00  0.00    +0.000 A 
ATOM      3  C   UNL     1       3.424   4.443  18.419  0.00  0.00    +0.000 A 
ATOM      4  C   UNL     1       2.176   4.706  19.025  0.00  0.00    +0.000 A 
ATOM      5  C   UNL     1       1.255   3.644  18.998  0.00  0.00    +0.000 A 
ATOM      6  C   UNL     1       1.602   2.434  18.404  0.00  0.00    +0.000 A 
ATOM      7  N   UNL     1       2.788   2.152  17.822  0.00  0.00    +0.000 NA
ATOM      8  C   UNL     1       3.644   3.187  17.866  0.00  0.00    +0.000 A 
ATOM      9  N   UNL     1       4.912   3.160  17.348  0.00  0.00    +0.000 N 
ATOM     10  H   UNL     1       5.308   2.347  16.900  0.00  0.00    +0.000 HD
ENDROOT
BRANCH   1  17
ATOM     11  C   UNL     1       8.214   9.702  17.425  0.00  0.00    +0.000 C 
ATOM     12  C   UNL     1       8.397   8.504  18.321  0.00  0.00    +0.000 C 
ATOM     13  O   UNL     1       9.071   8.610  19.345  0.00  0.00    +0.000 OA
ATOM     14  N   UNL     1       7.779   7.319  17.941  0.00  0.00    +0.000 N 
ATOM     15  C   UNL     1       7.770   6.219  18.907  0.00  0.00    +0.000 C 
ATOM     16  C   UNL     1       7.902   4.856  18.232  0.00  0.00    +0.000 C 
ATOM     17  C   UNL     1       6.928   4.659  17.061  0.00  0.00    +0.000 C 
ATOM     18  C   UNL     1       6.997   5.856  16.105  0.00  0.00    +0.000 C 
ATOM     19  C   UNL     1       6.853   7.201  16.814  0.00  0.00    +0.000 C 
ENDBRANCH   1  17
BRANCH   4  20
ATOM     20  C   UNL     1       1.891   6.036  19.593  0.00  0.00    +0.000 A 
ATOM     21  C   UNL     1       1.556   6.209  20.933  0.00  0.00    +0.000 A 
ATOM     22  N   UNL     1       1.246   7.410  21.469  0.00  0.00    +0.000 NA
ATOM     23  C   UNL     1       1.281   8.446  20.596  0.00  0.00    +0.000 A 
ATOM     24  C   UNL     1       1.602   8.326  19.241  0.00  0.00    +0.000 A 
ATOM     25  N   UNL     1       1.922   7.112  18.746  0.00  0.00    +0.000 NA
BRANCH  24  26
ATOM     26  N   UNL     1       1.624   9.389  18.361  0.00  0.00    +0.000 N 
ATOM     27  H   UNL     1       1.694   9.124  17.386  0.00  0.00    +0.000 HD
BRANCH  26  28
ATOM     28  C   UNL     1       1.078  10.685  18.703  0.00  0.00    +0.000 C 
BRANCH  28  29
ATOM     29  C   UNL     1      -0.404  10.761  18.427  0.00  0.00    +0.000 A 
ATOM     30  C   UNL     1      -1.007   9.893  17.499  0.00  0.00    +0.000 A 
ATOM     31  C   UNL     1      -2.387   9.927  17.279  0.00  0.00    +0.000 A 
ATOM     32  C   UNL     1      -3.181  10.836  17.975  0.00  0.00    +0.000 A 
ATOM     33  C   UNL     1      -2.587  11.703  18.883  0.00  0.00    +0.000 A 
ATOM     34  F   UNL     1      -3.350  12.573  19.558  0.00  0.00    +0.000 F 
ATOM     35  C   UNL     1      -1.214  11.676  19.112  0.00  0.00    +0.000 A 
ENDBRANCH  28  29
ENDBRANCH  26  28
ENDBRANCH  24  26
ENDBRANCH   4  20
TORSDOF 5
ENDMDL
MODEL 6
REMARK VINA RESULT:      -7.6      4.179      8.302
REMARK  Name = 
REMARK  6 active torsions:
REMARK  status: ('A' for Active; 'I' for Inactive)
REMARK    1  A    between atoms: C_1  and  C_2
REMARK    2  A    between atoms: C_7  and  C_8
REMARK    3  A    between atoms: C_11  and  C_12
REMARK    4  A    between atoms: C_16  and  N_17
REMARK    5  A    between atoms: N_17  and  C_18
REMARK    6  A    between atoms: C_18  and  C_19
REMARK                            x       y       z     vdW  Elec       q    Type
REMARK                         _______ _______ _______ _____ _____    ______ ____
ROOT
ATOM      1  C   UNL     1       5.493   4.359  17.657  0.00  0.00    +0.000 A 
ATOM      2  C   UNL     1       4.572   5.176  18.284  0.00  0.00    +0.000 A 
ATOM      3  C   UNL     1       3.430   4.416  18.631  0.00  0.00    +0.000 A 
ATOM      4  C   UNL     1       2.198   4.682  19.268  0.00  0.00    +0.000 A 
ATOM      5  C   UNL     1       1.315   3.591  19.358  0.00  0.00    +0.000 A 
ATOM      6  C   UNL     1       1.683   2.352  18.840  0.00  0.00    +0.000 A 
ATOM      7  N   UNL     1       2.854   2.067  18.230  0.00  0.00    +0.000 NA
ATOM      8  C   UNL     1       3.673   3.131  18.162  0.00  0.00    +0.000 A 
ATOM      9  N   UNL     1       4.919   3.107  17.594  0.00  0.00    +0.000 N 
ATOM     10  H   UNL     1       5.327   2.276  17.191  0.00  0.00    +0.000 HD
ENDROOT
BRANCH   1  17
ATOM     11  C   UNL     1       8.134   9.698  17.412  0.00  0.00    +0.000 C 
ATOM     12  C   UNL     1       8.376   8.500  18.294  0.00  0.00    +0.000 C 
ATOM     13  O   UNL     1       9.106   8.611  19.279  0.00  0.00    +0.000 OA
ATOM     14  N   UNL     1       7.746   7.311  17.948  0.00  0.00    +0.000 N 
ATOM     15  C   UNL     1       7.800   6.211  18.911  0.00  0.00    +0.000 C 
ATOM     16  C   UNL     1       7.903   4.849  18.228  0.00  0.00    +0.000 C 
ATOM     17  C   UNL     1       6.867   4.646  17.114  0.00  0.00    +0.000 C 
ATOM     18  C   UNL     1       6.873   5.845  16.157  0.00  0.00    +0.000 C 
ATOM     19  C   UNL     1       6.759   7.188  16.875  0.00  0.00    +0.000 C 
ENDBRANCH   1  17
BRANCH   4  20
ATOM     20  C   UNL     1       1.888   6.041  19.749  0.00  0.00    +0.000 A 
ATOM     21  C   UNL     1       1.439   6.279  21.045  0.00  0.00    +0.000 A 
ATOM     22  N   UNL     1       1.104   7.508  21.497  0.00  0.00    +0.000 NA
ATOM     23  C   UNL     1       1.235   8.502  20.586  0.00  0.00    +0.000 A 
ATOM     24  C   UNL     1       1.672   8.315  19.271  0.00  0.00    +0.000 A 
ATOM     25  N   UNL     1       2.013   7.075  18.861  0.00  0.00    +0.000 NA
BRANCH  24  26
ATOM     26  N   UNL     1       1.791   9.337  18.351  0.00  0.00    +0.000 N 
ATOM     27  H   UNL     1       1.866   9.027  17.389  0.00  0.00    +0.000 HD
BRANCH  26  28
ATOM     28  C   UNL     1       1.328  10.680  18.625  0.00  0.00    +0.000 C 
BRANCH  28  29
ATOM     29  C   UNL     1      -0.170  10.798  18.488  0.00  0.00    +0.000 A 
ATOM     30  C   UNL     1      -0.891  11.726  19.260  0.00  0.00    +0.000 A 
ATOM     31  C   UNL     1      -2.271  11.873  19.098  0.00  0.00    +0.000 A 
ATOM     32  C   UNL     1      -2.952  11.086  18.172  0.00  0.00    +0.000 A 
ATOM     33  C   UNL     1      -2.245  10.159  17.417  0.00  0.00    +0.000 A 
ATOM     34  F   UNL     1      -2.897   9.406  16.521  0.00  0.00    +0.000 F 
ATOM     35  C   UNL     1      -0.870  10.007  17.567  0.00  0.00    +0.000 A 
ENDBRANCH  28  29
ENDBRANCH  26  28
ENDBRANCH  24  26
ENDBRANCH   4  20
TORSDOF 5
ENDMDL
MODEL 7
REMARK VINA RESULT:      -7.6      4.355      8.773
REMARK  Name = 
REMARK  6 active torsions:
REMARK  status: ('A' for Active; 'I' for Inactive)
REMARK    1  A    between atoms: C_1  and  C_2
REMARK    2  A    between atoms: C_7  and  C_8
REMARK    3  A    between atoms: C_11  and  C_12
REMARK    4  A    between atoms: C_16  and  N_17
REMARK    5  A    between atoms: N_17  and  C_18
REMARK    6  A    between atoms: C_18  and  C_19
REMARK                            x       y       z     vdW  Elec       q    Type
REMARK                         _______ _______ _______ _____ _____    ______ ____
ROOT
ATOM      1  C   UNL     1      -0.256  13.730  20.911  0.00  0.00    +0.000 A 
ATOM      2  C   UNL     1       0.243  12.587  20.317  0.00  0.00    +0.000 A 
ATOM      3  C   UNL     1      -0.028  11.471  21.143  0.00  0.00    +0.000 A 
ATOM      4  C   UNL     1       0.226  10.083  21.077  0.00  0.00    +0.000 A 
ATOM      5  C   UNL     1      -0.201   9.337  22.190  0.00  0.00    +0.000 A 
ATOM      6  C   UNL     1      -0.830   9.972  23.257  0.00  0.00    +0.000 A 
ATOM      7  N   UNL     1      -1.090  11.295  23.346  0.00  0.00    +0.000 NA
ATOM      8  C   UNL     1      -0.670  11.977  22.266  0.00  0.00    +0.000 A 
ATOM      9  N   UNL     1      -0.814  13.330  22.107  0.00  0.00    +0.000 N 
ATOM     10  H   UNL     1      -1.263  13.922  22.791  0.00  0.00    +0.000 HD
ENDROOT
BRANCH   1  17
ATOM     11  C   UNL     1       4.532  17.198  20.151  0.00  0.00    +0.000 C 
ATOM     12  C   UNL     1       3.605  16.539  19.162  0.00  0.00    +0.000 C 
ATOM     13  O   UNL     1       3.912  16.510  17.970  0.00  0.00    +0.000 OA
ATOM     14  N   UNL     1       2.433  15.981  19.655  0.00  0.00    +0.000 N 
ATOM     15  C   UNL     1       1.640  15.155  18.744  0.00  0.00    +0.000 C 
ATOM     16  C   UNL     1       0.139  15.309  18.982  0.00  0.00    +0.000 C 
ATOM     17  C   UNL     1      -0.263  15.164  20.456  0.00  0.00    +0.000 C 
ATOM     18  C   UNL     1       0.621  16.055  21.338  0.00  0.00    +0.000 C 
ATOM     19  C   UNL     1       2.114  15.867  21.079  0.00  0.00    +0.000 C 
ENDBRANCH   1  17
BRANCH   4  20
ATOM     20  C   UNL     1       0.936   9.511  19.919  0.00  0.00    +0.000 A 
ATOM     21  C   UNL     1       0.861  10.084  18.653  0.00  0.00    +0.000 A 
ATOM     22  N   UNL     1       1.464   9.556  17.565  0.00  0.00    +0.000 NA
ATOM     23  C   UNL     1       2.152   8.411  17.798  0.00  0.00    +0.000 A 
ATOM     24  C   UNL     1       2.251   7.791  19.047  0.00  0.00    +0.000 A 
ATOM     25  N   UNL     1       1.648   8.358  20.113  0.00  0.00    +0.000 NA
BRANCH  24  26
ATOM     26  N   UNL     1       2.948   6.620  19.267  0.00  0.00    +0.000 N 
ATOM     27  H   UNL     1       2.694   6.137  20.120  0.00  0.00    +0.000 HD
BRANCH  26  28
ATOM     28  C   UNL     1       3.566   5.876  18.192  0.00  0.00    +0.000 C 
BRANCH  28  29
ATOM     29  C   UNL     1       3.106   4.438  18.165  0.00  0.00    +0.000 A 
ATOM     30  C   UNL     1       3.999   3.406  17.829  0.00  0.00    +0.000 A 
ATOM     31  C   UNL     1       3.588   2.070  17.853  0.00  0.00    +0.000 A 
ATOM     32  C   UNL     1       2.278   1.749  18.202  0.00  0.00    +0.000 A 
ATOM     33  C   UNL     1       1.391   2.768  18.522  0.00  0.00    +0.000 A 
ATOM     34  F   UNL     1       0.132   2.462  18.864  0.00  0.00    +0.000 F 
ATOM     35  C   UNL     1       1.788   4.102  18.504  0.00  0.00    +0.000 A 
ENDBRANCH  28  29
ENDBRANCH  26  28
ENDBRANCH  24  26
ENDBRANCH   4  20
TORSDOF 5
ENDMDL
MODEL 8
REMARK VINA RESULT:      -7.5      4.746     10.125
REMARK  Name = 
REMARK  6 active torsions:
REMARK  status: ('A' for Active; 'I' for Inactive)
REMARK    1  A    between atoms: C_1  and  C_2
REMARK    2  A    between atoms: C_7  and  C_8
REMARK    3  A    between atoms: C_11  and  C_12
REMARK    4  A    between atoms: C_16  and  N_17
REMARK    5  A    between atoms: N_17  and  C_18
REMARK    6  A    between atoms: C_18  and  C_19
REMARK                            x       y       z     vdW  Elec       q    Type
REMARK                         _______ _______ _______ _____ _____    ______ ____
ROOT
ATOM      1  C   UNL     1       1.563   8.966  18.655  0.00  0.00    +0.000 A 
ATOM      2  C   UNL     1       2.616   8.237  18.137  0.00  0.00    +0.000 A 
ATOM      3  C   UNL     1       2.759   7.034  18.868  0.00  0.00    +0.000 A 
ATOM      4  C   UNL     1       3.627   5.921  18.815  0.00  0.00    +0.000 A 
ATOM      5  C   UNL     1       3.420   4.946  19.807  0.00  0.00    +0.000 A 
ATOM      6  C   UNL     1       2.411   5.114  20.752  0.00  0.00    +0.000 A 
ATOM      7  N   UNL     1       1.565   6.165  20.824  0.00  0.00    +0.000 NA
ATOM      8  C   UNL     1       1.790   7.076  19.862  0.00  0.00    +0.000 A 
ATOM      9  N   UNL     1       1.070   8.232  19.714  0.00  0.00    +0.000 N 
ATOM     10  H   UNL     1       0.299   8.483  20.315  0.00  0.00    +0.000 HD
ENDROOT
BRANCH   1  17
ATOM     11  C   UNL     1      -1.829  12.506  22.046  0.00  0.00    +0.000 C 
ATOM     12  C   UNL     1      -0.399  12.630  21.585  0.00  0.00    +0.000 C 
ATOM     13  O   UNL     1       0.327  13.488  22.087  0.00  0.00    +0.000 OA
ATOM     14  N   UNL     1       0.036  11.750  20.603  0.00  0.00    +0.000 N 
ATOM     15  C   UNL     1       1.469  11.720  20.307  0.00  0.00    +0.000 C 
ATOM     16  C   UNL     1       1.749  11.478  18.826  0.00  0.00    +0.000 C 
ATOM     17  C   UNL     1       0.972  10.288  18.245  0.00  0.00    +0.000 C 
ATOM     18  C   UNL     1      -0.514  10.395  18.607  0.00  0.00    +0.000 C 
ATOM     19  C   UNL     1      -0.755  10.628  20.097  0.00  0.00    +0.000 C 
ENDBRANCH   1  17
BRANCH   4  20
ATOM     20  C   UNL     1       4.691   5.854  17.797  0.00  0.00    +0.000 A 
ATOM     21  C   UNL     1       4.729   4.849  16.836  0.00  0.00    +0.000 A 
ATOM     22  N   UNL     1       5.717   4.738  15.920  0.00  0.00    +0.000 NA
ATOM     23  C   UNL     1       6.681   5.686  16.009  0.00  0.00    +0.000 A 
ATOM     24  C   UNL     1       6.694   6.711  16.959  0.00  0.00    +0.000 A 
ATOM     25  N   UNL     1       5.681   6.798  17.847  0.00  0.00    +0.000 NA
BRANCH  24  26
ATOM     26  N   UNL     1       7.688   7.665  17.043  0.00  0.00    +0.000 N 
ATOM     27  H   UNL     1       7.674   8.351  16.299  0.00  0.00    +0.000 HD
BRANCH  26  28
ATOM     28  C   UNL     1       8.337   7.994  18.294  0.00  0.00    +0.000 C 
BRANCH  28  29
ATOM     29  C   UNL     1       8.586   9.477  18.426  0.00  0.00    +0.000 A 
ATOM     30  C   UNL     1       9.428   9.977  19.435  0.00  0.00    +0.000 A 
ATOM     31  C   UNL     1       9.699  11.345  19.527  0.00  0.00    +0.000 A 
ATOM     32  C   UNL     1       9.124  12.232  18.621  0.00  0.00    +0.000 A 
ATOM     33  C   UNL     1       8.280  11.743  17.631  0.00  0.00    +0.000 A 
ATOM     34  F   UNL     1       7.731  12.594  16.755  0.00  0.00    +0.000 F 
ATOM     35  C   UNL     1       8.005  10.383  17.527  0.00  0.00    +0.000 A 
ENDBRANCH  28  29
ENDBRANCH  26  28
ENDBRANCH  24  26
ENDBRANCH   4  20
TORSDOF 5
ENDMDL
MODEL 9
REMARK VINA RESULT:      -7.5      4.015      8.966
REMARK  Name = 
REMARK  6 active torsions:
REMARK  status: ('A' for Active; 'I' for Inactive)
REMARK    1  A    between atoms: C_1  and  C_2
REMARK    2  A    between atoms: C_7  and  C_8
REMARK    3  A    between atoms: C_11  and  C_12
REMARK    4  A    between atoms: C_16  and  N_17
REMARK    5  A    between atoms: N_17  and  C_18
REMARK    6  A    between atoms: C_18  and  C_19
REMARK                            x       y       z     vdW  Elec       q    Type
REMARK                         _______ _______ _______ _____ _____    ______ ____
ROOT
ATOM      1  C   UNL     1      -2.325  11.302  17.344  0.00  0.00    +0.000 A 
ATOM      2  C   UNL     1      -1.405  10.479  17.966  0.00  0.00    +0.000 A 
ATOM      3  C   UNL     1      -0.358  11.265  18.501  0.00  0.00    +0.000 A 
ATOM      4  C   UNL     1       0.829  11.005  19.222  0.00  0.00    +0.000 A 
ATOM      5  C   UNL     1       1.618  12.133  19.513  0.00  0.00    +0.000 A 
ATOM      6  C   UNL     1       1.208  13.397  19.099  0.00  0.00    +0.000 A 
ATOM      7  N   UNL     1       0.078  13.676  18.414  0.00  0.00    +0.000 NA
ATOM      8  C   UNL     1      -0.652  12.577  18.152  0.00  0.00    +0.000 A 
ATOM      9  N   UNL     1      -1.841  12.587  17.473  0.00  0.00    +0.000 N 
ATOM     10  H   UNL     1      -2.271  13.431  17.124  0.00  0.00    +0.000 HD
ENDROOT
BRANCH   1  17
ATOM     11  C   UNL     1      -7.279   9.177  19.888  0.00  0.00    +0.000 C 
ATOM     12  C   UNL     1      -6.935  10.543  19.350  0.00  0.00    +0.000 C 
ATOM     13  O   UNL     1      -7.679  11.493  19.592  0.00  0.00    +0.000 OA
ATOM     14  N   UNL     1      -5.773  10.662  18.600  0.00  0.00    +0.000 N 
ATOM     15  C   UNL     1      -5.320  12.013  18.262  0.00  0.00    +0.000 C 
ATOM     16  C   UNL     1      -4.681  12.078  16.877  0.00  0.00    +0.000 C 
ATOM     17  C   UNL     1      -3.620  10.993  16.643  0.00  0.00    +0.000 C 
ATOM     18  C   UNL     1      -4.173   9.616  17.029  0.00  0.00    +0.000 C 
ATOM     19  C   UNL     1      -4.796   9.587  18.423  0.00  0.00    +0.000 C 
ENDBRANCH   1  17
BRANCH   4  20
ATOM     20  C   UNL     1       1.195   9.623  19.580  0.00  0.00    +0.000 A 
ATOM     21  C   UNL     1       0.888   9.080  20.824  0.00  0.00    +0.000 A 
ATOM     22  N   UNL     1       1.250   7.832  21.196  0.00  0.00    +0.000 NA
ATOM     23  C   UNL     1       1.946   7.141  20.259  0.00  0.00    +0.000 A 
ATOM     24  C   UNL     1       2.286   7.643  19.000  0.00  0.00    +0.000 A 
ATOM     25  N   UNL     1       1.892   8.889  18.660  0.00  0.00    +0.000 NA
BRANCH  24  26
ATOM     26  N   UNL     1       3.003   6.932  18.060  0.00  0.00    +0.000 N 
ATOM     27  H   UNL     1       3.603   7.499  17.473  0.00  0.00    +0.000 HD
BRANCH  26  28
ATOM     28  C   UNL     1       3.300   5.524  18.218  0.00  0.00    +0.000 C 
BRANCH  28  29
ATOM     29  C   UNL     1       4.680   5.179  17.715  0.00  0.00    +0.000 A 
ATOM     30  C   UNL     1       4.877   4.771  16.384  0.00  0.00    +0.000 A 
ATOM     31  C   UNL     1       6.160   4.500  15.901  0.00  0.00    +0.000 A 
ATOM     32  C   UNL     1       7.262   4.622  16.744  0.00  0.00    +0.000 A 
ATOM     33  C   UNL     1       7.070   5.012  18.063  0.00  0.00    +0.000 A 
ATOM     34  F   UNL     1       8.129   5.136  18.875  0.00  0.00    +0.000 F 
ATOM     35  C   UNL     1       5.797   5.288  18.554  0.00  0.00    +0.000 A 
ENDBRANCH  28  29
ENDBRANCH  26  28
ENDBRANCH  24  26
ENDBRANCH   4  20
TORSDOF 5
ENDMDL
