MODEL 1
REMARK VINA RESULT:      -7.7      0.000      0.000
REMARK  Name = 
REMARK  7 active torsions:
REMARK  status: ('A' for Active; 'I' for Inactive)
REMARK    1  A    between atoms: C_1  and  C_2
REMARK    2  A    between atoms: C_2  and  N_3
REMARK    3  A    between atoms: N_6  and  C_7
REMARK    4  A    between atoms: C_8  and  C_9
REMARK    5  A    between atoms: C_9  and  C_11
REMARK    6  A    between atoms: C_14  and  O_15
REMARK    7  A    between atoms: O_15  and  C_16
REMARK                            x       y       z     vdW  Elec       q    Type
REMARK                         _______ _______ _______ _____ _____    ______ ____
ROOT
ATOM      1  C   UNL     1       3.449   5.843  19.047  0.00  0.00    +0.000 A 
ATOM      2  C   UNL     1       2.562   6.906  19.359  0.00  0.00    +0.000 A 
ATOM      3  C   UNL     1       1.613   6.692  20.358  0.00  0.00    +0.000 A 
ATOM      4  N   UNL     1       1.472   5.560  21.078  0.00  0.00    +0.000 NA
ATOM      5  C   UNL     1       2.303   4.550  20.812  0.00  0.00    +0.000 A 
ATOM      6  C   UNL     1       2.113   3.365  21.516  0.00  0.00    +0.000 A 
ATOM      7  C   UNL     1       2.912   2.241  21.311  0.00  0.00    +0.000 A 
ATOM      8  C   UNL     1       3.980   2.325  20.439  0.00  0.00    +0.000 A 
ATOM      9  C   UNL     1       4.207   3.522  19.763  0.00  0.00    +0.000 A 
ATOM     10  C   UNL     1       3.336   4.641  19.854  0.00  0.00    +0.000 A 
ENDROOT
BRANCH   1  14
ATOM     11  N   UNL     1       6.536   6.286  16.007  0.00  0.00    +0.000 NA
ATOM     12  C   UNL     1       5.085   6.150  15.681  0.00  0.00    +0.000 C 
ATOM     13  C   UNL     1       4.237   5.318  16.688  0.00  0.00    +0.000 C 
ATOM     14  N   UNL     1       4.427   5.867  18.041  0.00  0.00    +0.000 N 
ATOM     15  C   UNL     1       5.857   5.847  18.435  0.00  0.00    +0.000 C 
ATOM     16  C   UNL     1       6.656   6.711  17.420  0.00  0.00    +0.000 C 
BRANCH  11  18
ATOM     17  C   UNL     1       6.766   4.333  14.453  0.00  0.00    +0.000 C 
ATOM     18  C   UNL     1       7.259   5.041  15.714  0.00  0.00    +0.000 C 
ENDBRANCH  11  18
ENDBRANCH   1  14
BRANCH   2  19
ATOM     19  C   UNL     1       2.401   8.177  18.595  0.00  0.00    +0.000 C 
ATOM     20  O   UNL     1       3.130   8.398  17.631  0.00  0.00    +0.000 OA
BRANCH  19  21
ATOM     21  C   UNL     1       1.286   9.146  18.858  0.00  0.00    +0.000 A 
ATOM     22  C   UNL     1       0.352   9.350  17.825  0.00  0.00    +0.000 A 
ATOM     23  C   UNL     1      -0.742  10.198  18.005  0.00  0.00    +0.000 A 
ATOM     24  C   UNL     1      -0.943  10.841  19.226  0.00  0.00    +0.000 A 
ATOM     25  C   UNL     1      -0.002  10.677  20.247  0.00  0.00    +0.000 A 
ATOM     26  C   UNL     1       1.114   9.841  20.061  0.00  0.00    +0.000 A 
BRANCH  24  27
ATOM     27  O   UNL     1      -2.054  11.636  19.288  0.00  0.00    +0.000 OA
ATOM     28  C   UNL     1      -2.950  11.540  18.182  0.00  0.00    +0.000 C 
ENDBRANCH  24  27
ENDBRANCH  19  21
ENDBRANCH   2  19
TORSDOF 5
ENDMDL
MODEL 2
REMARK VINA RESULT:      -7.3      3.787      9.243
REMARK  Name = 
REMARK  7 active torsions:
REMARK  status: ('A' for Active; 'I' for Inactive)
REMARK    1  A    between atoms: C_1  and  C_2
REMARK    2  A    between atoms: C_2  and  N_3
REMARK    3  A    between atoms: N_6  and  C_7
REMARK    4  A    between atoms: C_8  and  C_9
REMARK    5  A    between atoms: C_9  and  C_11
REMARK    6  A    between atoms: C_14  and  O_15
REMARK    7  A    between atoms: O_15  and  C_16
REMARK                            x       y       z     vdW  Elec       q    Type
REMARK                         _______ _______ _______ _____ _____    ______ ____
ROOT
ATOM      1  C   UNL     1      -1.600  11.666  19.240  0.00  0.00    +0.000 A 
ATOM      2  C   UNL     1      -0.711  10.943  18.404  0.00  0.00    +0.000 A 
ATOM      3  C   UNL     1      -1.258  10.196  17.361  0.00  0.00    +0.000 A 
ATOM      4  N   UNL     1      -2.570  10.113  17.058  0.00  0.00    +0.000 NA
ATOM      5  C   UNL     1      -3.425  10.794  17.823  0.00  0.00    +0.000 A 
ATOM      6  C   UNL     1      -4.782  10.656  17.543  0.00  0.00    +0.000 A 
ATOM      7  C   UNL     1      -5.765  11.311  18.282  0.00  0.00    +0.000 A 
ATOM      8  C   UNL     1      -5.385  12.189  19.278  0.00  0.00    +0.000 A 
ATOM      9  C   UNL     1      -4.028  12.370  19.537  0.00  0.00    +0.000 A 
ATOM     10  C   UNL     1      -3.008  11.622  18.888  0.00  0.00    +0.000 A 
ENDROOT
BRANCH   1  14
ATOM     11  N   UNL     1      -0.086  13.952  22.624  0.00  0.00    +0.000 NA
ATOM     12  C   UNL     1      -0.728  12.612  22.768  0.00  0.00    +0.000 C 
ATOM     13  C   UNL     1      -1.808  12.257  21.704  0.00  0.00    +0.000 C 
ATOM     14  N   UNL     1      -1.229  12.426  20.360  0.00  0.00    +0.000 N 
ATOM     15  C   UNL     1      -0.741  13.811  20.154  0.00  0.00    +0.000 C 
ATOM     16  C   UNL     1       0.352  14.108  21.218  0.00  0.00    +0.000 C 
BRANCH  11  18
ATOM     17  C   UNL     1      -1.518  14.819  24.489  0.00  0.00    +0.000 C 
ATOM     18  C   UNL     1      -0.993  15.020  23.068  0.00  0.00    +0.000 C 
ENDBRANCH  11  18
ENDBRANCH   1  14
BRANCH   2  19
ATOM     19  C   UNL     1       0.748  10.732  18.636  0.00  0.00    +0.000 C 
ATOM     20  O   UNL     1       1.495  11.706  18.693  0.00  0.00    +0.000 OA
BRANCH  19  21
ATOM     21  C   UNL     1       1.334   9.388  18.950  0.00  0.00    +0.000 A 
ATOM     22  C   UNL     1       1.148   8.891  20.253  0.00  0.00    +0.000 A 
ATOM     23  C   UNL     1       1.620   7.628  20.613  0.00  0.00    +0.000 A 
ATOM     24  C   UNL     1       2.265   6.822  19.676  0.00  0.00    +0.000 A 
ATOM     25  C   UNL     1       2.491   7.319  18.389  0.00  0.00    +0.000 A 
ATOM     26  C   UNL     1       2.036   8.601  18.029  0.00  0.00    +0.000 A 
BRANCH  24  27
ATOM     27  O   UNL     1       2.673   5.602  20.140  0.00  0.00    +0.000 OA
ATOM     28  C   UNL     1       3.846   5.065  19.531  0.00  0.00    +0.000 C 
ENDBRANCH  24  27
ENDBRANCH  19  21
ENDBRANCH   2  19
TORSDOF 5
ENDMDL
MODEL 3
REMARK VINA RESULT:      -7.3      4.109      9.460
REMARK  Name = 
REMARK  7 active torsions:
REMARK  status: ('A' for Active; 'I' for Inactive)
REMARK    1  A    between atoms: C_1  and  C_2
REMARK    2  A    between atoms: C_2  and  N_3
REMARK    3  A    between atoms: N_6  and  C_7
REMARK    4  A    between atoms: C_8  and  C_9
REMARK    5  A    between atoms: C_9  and  C_11
REMARK    6  A    between atoms: C_14  and  O_15
REMARK    7  A    between atoms: O_15  and  C_16
REMARK                            x       y       z     vdW  Elec       q    Type
REMARK                         _______ _______ _______ _____ _____    ______ ____
ROOT
ATOM      1  C   UNL     1      -2.000  11.926  19.378  0.00  0.00    +0.000 A 
ATOM      2  C   UNL     1      -1.110  11.290  18.475  0.00  0.00    +0.000 A 
ATOM      3  C   UNL     1      -1.657  10.620  17.381  0.00  0.00    +0.000 A 
ATOM      4  N   UNL     1      -2.972  10.536  17.089  0.00  0.00    +0.000 NA
ATOM      5  C   UNL     1      -3.829  11.136  17.916  0.00  0.00    +0.000 A 
ATOM      6  C   UNL     1      -5.186  10.995  17.643  0.00  0.00    +0.000 A 
ATOM      7  C   UNL     1      -6.171  11.568  18.446  0.00  0.00    +0.000 A 
ATOM      8  C   UNL     1      -5.793  12.370  19.505  0.00  0.00    +0.000 A 
ATOM      9  C   UNL     1      -4.437  12.556  19.761  0.00  0.00    +0.000 A 
ATOM     10  C   UNL     1      -3.412  11.883  19.040  0.00  0.00    +0.000 A 
ENDROOT
BRANCH   1  14
ATOM     11  N   UNL     1      -0.482  13.982  22.904  0.00  0.00    +0.000 NA
ATOM     12  C   UNL     1      -1.015  12.587  22.940  0.00  0.00    +0.000 C 
ATOM     13  C   UNL     1      -2.121  12.255  21.896  0.00  0.00    +0.000 C 
ATOM     14  N   UNL     1      -1.628  12.599  20.551  0.00  0.00    +0.000 N 
ATOM     15  C   UNL     1      -1.255  14.032  20.465  0.00  0.00    +0.000 C 
ATOM     16  C   UNL     1      -0.132  14.308  21.503  0.00  0.00    +0.000 C 
BRANCH  11  18
ATOM     17  C   UNL     1      -0.825  16.280  23.844  0.00  0.00    +0.000 C 
ATOM     18  C   UNL     1      -1.441  14.926  23.496  0.00  0.00    +0.000 C 
ENDBRANCH  11  18
ENDBRANCH   1  14
BRANCH   2  19
ATOM     19  C   UNL     1       0.356  11.090  18.670  0.00  0.00    +0.000 C 
ATOM     20  O   UNL     1       1.107  12.062  18.636  0.00  0.00    +0.000 OA
BRANCH  19  21
ATOM     21  C   UNL     1       0.950   9.768  19.055  0.00  0.00    +0.000 A 
ATOM     22  C   UNL     1       1.632   9.051  18.055  0.00  0.00    +0.000 A 
ATOM     23  C   UNL     1       2.254   7.835  18.342  0.00  0.00    +0.000 A 
ATOM     24  C   UNL     1       2.232   7.319  19.638  0.00  0.00    +0.000 A 
ATOM     25  C   UNL     1       1.525   8.002  20.632  0.00  0.00    +0.000 A 
ATOM     26  C   UNL     1       0.877   9.216  20.340  0.00  0.00    +0.000 A 
BRANCH  24  27
ATOM     27  O   UNL     1       2.885   6.129  19.801  0.00  0.00    +0.000 OA
ATOM     28  C   UNL     1       2.110   5.066  20.352  0.00  0.00    +0.000 C 
ENDBRANCH  24  27
ENDBRANCH  19  21
ENDBRANCH   2  19
TORSDOF 5
ENDMDL
MODEL 4
REMARK VINA RESULT:      -7.3      0.609      1.073
REMARK  Name = 
REMARK  7 active torsions:
REMARK  status: ('A' for Active; 'I' for Inactive)
REMARK    1  A    between atoms: C_1  and  C_2
REMARK    2  A    between atoms: C_2  and  N_3
REMARK    3  A    between atoms: N_6  and  C_7
REMARK    4  A    between atoms: C_8  and  C_9
REMARK    5  A    between atoms: C_9  and  C_11
REMARK    6  A    between atoms: C_14  and  O_15
REMARK    7  A    between atoms: O_15  and  C_16
REMARK                            x       y       z     vdW  Elec       q    Type
REMARK                         _______ _______ _______ _____ _____    ______ ____
ROOT
ATOM      1  C   UNL     1       3.509   5.710  19.061  0.00  0.00    +0.000 A 
ATOM      2  C   UNL     1       2.596   6.742  19.399  0.00  0.00    +0.000 A 
ATOM      3  C   UNL     1       1.660   6.483  20.400  0.00  0.00    +0.000 A 
ATOM      4  N   UNL     1       1.554   5.334  21.098  0.00  0.00    +0.000 NA
ATOM      5  C   UNL     1       2.410   4.352  20.808  0.00  0.00    +0.000 A 
ATOM      6  C   UNL     1       2.257   3.149  21.489  0.00  0.00    +0.000 A 
ATOM      7  C   UNL     1       3.085   2.051  21.258  0.00  0.00    +0.000 A 
ATOM      8  C   UNL     1       4.144   2.181  20.381  0.00  0.00    +0.000 A 
ATOM      9  C   UNL     1       4.334   3.396  19.727  0.00  0.00    +0.000 A 
ATOM     10  C   UNL     1       3.434   4.490  19.845  0.00  0.00    +0.000 A 
ENDROOT
BRANCH   1  14
ATOM     11  N   UNL     1       6.562   6.295  16.011  0.00  0.00    +0.000 NA
ATOM     12  C   UNL     1       5.114   6.126  15.692  0.00  0.00    +0.000 C 
ATOM     13  C   UNL     1       4.295   5.252  16.688  0.00  0.00    +0.000 C 
ATOM     14  N   UNL     1       4.480   5.780  18.050  0.00  0.00    +0.000 N 
ATOM     15  C   UNL     1       5.912   5.791  18.435  0.00  0.00    +0.000 C 
ATOM     16  C   UNL     1       6.681   6.696  17.432  0.00  0.00    +0.000 C 
BRANCH  11  18
ATOM     17  C   UNL     1       6.816   4.363  14.435  0.00  0.00    +0.000 C 
ATOM     18  C   UNL     1       7.318   5.076  15.690  0.00  0.00    +0.000 C 
ENDBRANCH  11  18
ENDBRANCH   1  14
BRANCH   2  19
ATOM     19  C   UNL     1       2.396   8.023  18.661  0.00  0.00    +0.000 C 
ATOM     20  O   UNL     1       3.050   8.242  17.644  0.00  0.00    +0.000 OA
BRANCH  19  21
ATOM     21  C   UNL     1       1.321   9.006  19.020  0.00  0.00    +0.000 A 
ATOM     22  C   UNL     1       1.151   9.308  20.384  0.00  0.00    +0.000 A 
ATOM     23  C   UNL     1       0.206  10.248  20.798  0.00  0.00    +0.000 A 
ATOM     24  C   UNL     1      -0.573  10.926  19.860  0.00  0.00    +0.000 A 
ATOM     25  C   UNL     1      -0.442  10.607  18.506  0.00  0.00    +0.000 A 
ATOM     26  C   UNL     1       0.495   9.644  18.087  0.00  0.00    +0.000 A 
BRANCH  24  27
ATOM     27  O   UNL     1      -1.455  11.831  20.383  0.00  0.00    +0.000 OA
ATOM     28  C   UNL     1      -1.637  13.028  19.629  0.00  0.00    +0.000 C 
ENDBRANCH  24  27
ENDBRANCH  19  21
ENDBRANCH   2  19
TORSDOF 5
ENDMDL
MODEL 5
REMARK VINA RESULT:      -7.2      4.546     10.042
REMARK  Name = 
REMARK  7 active torsions:
REMARK  status: ('A' for Active; 'I' for Inactive)
REMARK    1  A    between atoms: C_1  and  C_2
REMARK    2  A    between atoms: C_2  and  N_3
REMARK    3  A    between atoms: N_6  and  C_7
REMARK    4  A    between atoms: C_8  and  C_9
REMARK    5  A    between atoms: C_9  and  C_11
REMARK    6  A    between atoms: C_14  and  O_15
REMARK    7  A    between atoms: O_15  and  C_16
REMARK                            x       y       z     vdW  Elec       q    Type
REMARK                         _______ _______ _______ _____ _____    ______ ____
ROOT
ATOM      1  C   UNL     1      -2.805  12.346  19.684  0.00  0.00    +0.000 A 
ATOM      2  C   UNL     1      -1.754  11.902  18.842  0.00  0.00    +0.000 A 
ATOM      3  C   UNL     1      -2.096  11.247  17.660  0.00  0.00    +0.000 A 
ATOM      4  N   UNL     1      -3.352  11.012  17.228  0.00  0.00    +0.000 NA
ATOM      5  C   UNL     1      -4.359  11.431  17.996  0.00  0.00    +0.000 A 
ATOM      6  C   UNL     1      -5.651  11.131  17.575  0.00  0.00    +0.000 A 
ATOM      7  C   UNL     1      -6.778  11.508  18.303  0.00  0.00    +0.000 A 
ATOM      8  C   UNL     1      -6.618  12.273  19.442  0.00  0.00    +0.000 A 
ATOM      9  C   UNL     1      -5.331  12.618  19.849  0.00  0.00    +0.000 A 
ATOM     10  C   UNL     1      -4.159  12.141  19.200  0.00  0.00    +0.000 A 
ENDROOT
BRANCH   1  14
ATOM     11  N   UNL     1      -2.625  14.124  23.656  0.00  0.00    +0.000 NA
ATOM     12  C   UNL     1      -2.998  14.896  22.434  0.00  0.00    +0.000 C 
ATOM     13  C   UNL     1      -2.359  14.410  21.100  0.00  0.00    +0.000 C 
ATOM     14  N   UNL     1      -2.644  12.975  20.928  0.00  0.00    +0.000 N 
ATOM     15  C   UNL     1      -2.121  12.182  22.067  0.00  0.00    +0.000 C 
ATOM     16  C   UNL     1      -2.808  12.683  23.368  0.00  0.00    +0.000 C 
BRANCH  11  18
ATOM     17  C   UNL     1      -1.221  15.451  25.252  0.00  0.00    +0.000 C 
ATOM     18  C   UNL     1      -1.262  14.457  24.092  0.00  0.00    +0.000 C 
ENDBRANCH  11  18
ENDBRANCH   1  14
BRANCH   2  19
ATOM     19  C   UNL     1      -0.300  11.885  19.177  0.00  0.00    +0.000 C 
ATOM     20  O   UNL     1       0.255  12.929  19.512  0.00  0.00    +0.000 OA
BRANCH  19  21
ATOM     21  C   UNL     1       0.497  10.617  19.266  0.00  0.00    +0.000 A 
ATOM     22  C   UNL     1       0.437   9.900  20.475  0.00  0.00    +0.000 A 
ATOM     23  C   UNL     1       1.110   8.686  20.623  0.00  0.00    +0.000 A 
ATOM     24  C   UNL     1       1.838   8.148  19.562  0.00  0.00    +0.000 A 
ATOM     25  C   UNL     1       1.938   8.870  18.369  0.00  0.00    +0.000 A 
ATOM     26  C   UNL     1       1.279  10.104  18.224  0.00  0.00    +0.000 A 
BRANCH  24  27
ATOM     27  O   UNL     1       2.444   6.951  19.821  0.00  0.00    +0.000 OA
ATOM     28  C   UNL     1       1.678   6.017  20.580  0.00  0.00    +0.000 C 
ENDBRANCH  24  27
ENDBRANCH  19  21
ENDBRANCH   2  19
TORSDOF 5
ENDMDL
MODEL 6
REMARK VINA RESULT:      -7.2      3.791      8.512
REMARK  Name = 
REMARK  7 active torsions:
REMARK  status: ('A' for Active; 'I' for Inactive)
REMARK    1  A    between atoms: C_1  and  C_2
REMARK    2  A    between atoms: C_2  and  N_3
REMARK    3  A    between atoms: N_6  and  C_7
REMARK    4  A    between atoms: C_8  and  C_9
REMARK    5  A    between atoms: C_9  and  C_11
REMARK    6  A    between atoms: C_14  and  O_15
REMARK    7  A    between atoms: O_15  and  C_16
REMARK                            x       y       z     vdW  Elec       q    Type
REMARK                         _______ _______ _______ _____ _____    ______ ____
ROOT
ATOM      1  C   UNL     1      -1.071  11.660  19.723  0.00  0.00    +0.000 A 
ATOM      2  C   UNL     1       0.323  11.492  19.926  0.00  0.00    +0.000 A 
ATOM      3  C   UNL     1       0.909  12.149  21.007  0.00  0.00    +0.000 A 
ATOM      4  N   UNL     1       0.260  12.924  21.901  0.00  0.00    +0.000 NA
ATOM      5  C   UNL     1      -1.054  13.087  21.739  0.00  0.00    +0.000 A 
ATOM      6  C   UNL     1      -1.707  13.936  22.628  0.00  0.00    +0.000 A 
ATOM      7  C   UNL     1      -3.075  14.191  22.546  0.00  0.00    +0.000 A 
ATOM      8  C   UNL     1      -3.828  13.521  21.603  0.00  0.00    +0.000 A 
ATOM      9  C   UNL     1      -3.193  12.634  20.736  0.00  0.00    +0.000 A 
ATOM     10  C   UNL     1      -1.783  12.450  20.711  0.00  0.00    +0.000 A 
ENDROOT
BRANCH   1  14
ATOM     11  N   UNL     1      -3.647  10.218  16.522  0.00  0.00    +0.000 NA
ATOM     12  C   UNL     1      -3.395   9.446  17.775  0.00  0.00    +0.000 C 
ATOM     13  C   UNL     1      -2.008   9.672  18.445  0.00  0.00    +0.000 C 
ATOM     14  N   UNL     1      -1.812  11.115  18.663  0.00  0.00    +0.000 N 
ATOM     15  C   UNL     1      -1.895  11.869  17.388  0.00  0.00    +0.000 C 
ATOM     16  C   UNL     1      -3.302  11.635  16.773  0.00  0.00    +0.000 C 
BRANCH  11  18
ATOM     17  C   UNL     1      -3.400  10.133  14.029  0.00  0.00    +0.000 C 
ATOM     18  C   UNL     1      -2.913   9.636  15.389  0.00  0.00    +0.000 C 
ENDBRANCH  11  18
ENDBRANCH   1  14
BRANCH   2  19
ATOM     19  C   UNL     1       1.282  10.838  18.988  0.00  0.00    +0.000 C 
ATOM     20  O   UNL     1       1.899  11.528  18.180  0.00  0.00    +0.000 OA
BRANCH  19  21
ATOM     21  C   UNL     1       1.643   9.385  19.079  0.00  0.00    +0.000 A 
ATOM     22  C   UNL     1       2.243   8.798  17.950  0.00  0.00    +0.000 A 
ATOM     23  C   UNL     1       2.653   7.463  17.969  0.00  0.00    +0.000 A 
ATOM     24  C   UNL     1       2.496   6.693  19.121  0.00  0.00    +0.000 A 
ATOM     25  C   UNL     1       1.866   7.253  20.236  0.00  0.00    +0.000 A 
ATOM     26  C   UNL     1       1.431   8.591  20.212  0.00  0.00    +0.000 A 
BRANCH  24  27
ATOM     27  O   UNL     1       2.945   5.405  19.024  0.00  0.00    +0.000 OA
ATOM     28  C   UNL     1       3.316   4.973  17.716  0.00  0.00    +0.000 C 
ENDBRANCH  24  27
ENDBRANCH  19  21
ENDBRANCH   2  19
TORSDOF 5
ENDMDL
MODEL 7
REMARK VINA RESULT:      -7.1      3.886      9.008
REMARK  Name = 
REMARK  7 active torsions:
REMARK  status: ('A' for Active; 'I' for Inactive)
REMARK    1  A    between atoms: C_1  and  C_2
REMARK    2  A    between atoms: C_2  and  N_3
REMARK    3  A    between atoms: N_6  and  C_7
REMARK    4  A    between atoms: C_8  and  C_9
REMARK    5  A    between atoms: C_9  and  C_11
REMARK    6  A    between atoms: C_14  and  O_15
REMARK    7  A    between atoms: O_15  and  C_16
REMARK                            x       y       z     vdW  Elec       q    Type
REMARK                         _______ _______ _______ _____ _____    ______ ____
ROOT
ATOM      1  C   UNL     1      -1.459  11.827  19.094  0.00  0.00    +0.000 A 
ATOM      2  C   UNL     1      -0.691  10.913  18.328  0.00  0.00    +0.000 A 
ATOM      3  C   UNL     1      -1.373   9.998  17.527  0.00  0.00    +0.000 A 
ATOM      4  N   UNL     1      -2.713   9.914  17.396  0.00  0.00    +0.000 NA
ATOM      5  C   UNL     1      -3.457  10.771  18.097  0.00  0.00    +0.000 A 
ATOM      6  C   UNL     1      -4.840  10.639  18.005  0.00  0.00    +0.000 A 
ATOM      7  C   UNL     1      -5.715  11.471  18.702  0.00  0.00    +0.000 A 
ATOM      8  C   UNL     1      -5.201  12.512  19.450  0.00  0.00    +0.000 A 
ATOM      9  C   UNL     1      -3.820  12.681  19.513  0.00  0.00    +0.000 A 
ATOM     10  C   UNL     1      -2.900  11.775  18.918  0.00  0.00    +0.000 A 
ENDROOT
BRANCH   1  14
ATOM     11  N   UNL     1      -0.159  14.708  22.089  0.00  0.00    +0.000 NA
ATOM     12  C   UNL     1      -0.726  15.107  20.767  0.00  0.00    +0.000 C 
ATOM     13  C   UNL     1      -0.475  14.117  19.592  0.00  0.00    +0.000 C 
ATOM     14  N   UNL     1      -0.943  12.777  19.987  0.00  0.00    +0.000 N 
ATOM     15  C   UNL     1      -0.253  12.306  21.213  0.00  0.00    +0.000 C 
ATOM     16  C   UNL     1      -0.556  13.308  22.361  0.00  0.00    +0.000 C 
BRANCH  11  18
ATOM     17  C   UNL     1       1.724  16.308  21.668  0.00  0.00    +0.000 C 
ATOM     18  C   UNL     1       1.296  14.913  22.120  0.00  0.00    +0.000 C 
ENDBRANCH  11  18
ENDBRANCH   1  14
BRANCH   2  19
ATOM     19  C   UNL     1       0.781  10.689  18.432  0.00  0.00    +0.000 C 
ATOM     20  O   UNL     1       1.545  11.646  18.326  0.00  0.00    +0.000 OA
BRANCH  19  21
ATOM     21  C   UNL     1       1.375   9.365  18.808  0.00  0.00    +0.000 A 
ATOM     22  C   UNL     1       1.190   8.927  20.132  0.00  0.00    +0.000 A 
ATOM     23  C   UNL     1       1.670   7.684  20.550  0.00  0.00    +0.000 A 
ATOM     24  C   UNL     1       2.323   6.841  19.651  0.00  0.00    +0.000 A 
ATOM     25  C   UNL     1       2.549   7.281  18.343  0.00  0.00    +0.000 A 
ATOM     26  C   UNL     1       2.086   8.542  17.925  0.00  0.00    +0.000 A 
BRANCH  24  27
ATOM     27  O   UNL     1       2.738   5.647  20.171  0.00  0.00    +0.000 OA
ATOM     28  C   UNL     1       1.731   4.645  20.308  0.00  0.00    +0.000 C 
ENDBRANCH  24  27
ENDBRANCH  19  21
ENDBRANCH   2  19
TORSDOF 5
ENDMDL
MODEL 8
REMARK VINA RESULT:      -7.1      4.417     10.061
REMARK  Name = 
REMARK  7 active torsions:
REMARK  status: ('A' for Active; 'I' for Inactive)
REMARK    1  A    between atoms: C_1  and  C_2
REMARK    2  A    between atoms: C_2  and  N_3
REMARK    3  A    between atoms: N_6  and  C_7
REMARK    4  A    between atoms: C_8  and  C_9
REMARK    5  A    between atoms: C_9  and  C_11
REMARK    6  A    between atoms: C_14  and  O_15
REMARK    7  A    between atoms: O_15  and  C_16
REMARK                            x       y       z     vdW  Elec       q    Type
REMARK                         _______ _______ _______ _____ _____    ______ ____
ROOT
ATOM      1  C   UNL     1      -2.970  12.388  19.692  0.00  0.00    +0.000 A 
ATOM      2  C   UNL     1      -2.127  11.946  18.640  0.00  0.00    +0.000 A 
ATOM      3  C   UNL     1      -2.715  11.269  17.573  0.00  0.00    +0.000 A 
ATOM      4  N   UNL     1      -4.032  11.009  17.438  0.00  0.00    +0.000 NA
ATOM      5  C   UNL     1      -4.847  11.425  18.408  0.00  0.00    +0.000 A 
ATOM      6  C   UNL     1      -6.196  11.101  18.292  0.00  0.00    +0.000 A 
ATOM      7  C   UNL     1      -7.136  11.474  19.251  0.00  0.00    +0.000 A 
ATOM      8  C   UNL     1      -6.737  12.258  20.316  0.00  0.00    +0.000 A 
ATOM      9  C   UNL     1      -5.398  12.627  20.418  0.00  0.00    +0.000 A 
ATOM     10  C   UNL     1      -4.394  12.157  19.527  0.00  0.00    +0.000 A 
ENDROOT
BRANCH   1  14
ATOM     11  N   UNL     1      -1.320  14.486  23.134  0.00  0.00    +0.000 NA
ATOM     12  C   UNL     1      -1.454  13.000  23.073  0.00  0.00    +0.000 C 
ATOM     13  C   UNL     1      -2.632  12.458  22.211  0.00  0.00    +0.000 C 
ATOM     14  N   UNL     1      -2.543  13.039  20.860  0.00  0.00    +0.000 N 
ATOM     15  C   UNL     1      -2.581  14.521  20.907  0.00  0.00    +0.000 C 
ATOM     16  C   UNL     1      -1.373  15.014  21.752  0.00  0.00    +0.000 C 
BRANCH  11  18
ATOM     17  C   UNL     1      -1.874  15.237  25.460  0.00  0.00    +0.000 C 
ATOM     18  C   UNL     1      -2.342  15.070  24.015  0.00  0.00    +0.000 C 
ENDBRANCH  11  18
ENDBRANCH   1  14
BRANCH   2  19
ATOM     19  C   UNL     1      -0.635  11.954  18.639  0.00  0.00    +0.000 C 
ATOM     20  O   UNL     1      -0.037  13.016  18.474  0.00  0.00    +0.000 OA
BRANCH  19  21
ATOM     21  C   UNL     1       0.183  10.743  18.977  0.00  0.00    +0.000 A 
ATOM     22  C   UNL     1       0.072  10.233  20.284  0.00  0.00    +0.000 A 
ATOM     23  C   UNL     1       0.763   9.081  20.665  0.00  0.00    +0.000 A 
ATOM     24  C   UNL     1       1.559   8.399  19.746  0.00  0.00    +0.000 A 
ATOM     25  C   UNL     1       1.710   8.917  18.456  0.00  0.00    +0.000 A 
ATOM     26  C   UNL     1       1.033  10.090  18.075  0.00  0.00    +0.000 A 
BRANCH  24  27
ATOM     27  O   UNL     1       2.176   7.279  20.230  0.00  0.00    +0.000 OA
ATOM     28  C   UNL     1       2.742   6.408  19.251  0.00  0.00    +0.000 C 
ENDBRANCH  24  27
ENDBRANCH  19  21
ENDBRANCH   2  19
TORSDOF 5
ENDMDL
MODEL 9
REMARK VINA RESULT:      -7.1      3.857      8.505
REMARK  Name = 
REMARK  7 active torsions:
REMARK  status: ('A' for Active; 'I' for Inactive)
REMARK    1  A    between atoms: C_1  and  C_2
REMARK    2  A    between atoms: C_2  and  N_3
REMARK    3  A    between atoms: N_6  and  C_7
REMARK    4  A    between atoms: C_8  and  C_9
REMARK    5  A    between atoms: C_9  and  C_11
REMARK    6  A    between atoms: C_14  and  O_15
REMARK    7  A    between atoms: O_15  and  C_16
REMARK                            x       y       z     vdW  Elec       q    Type
REMARK                         _______ _______ _______ _____ _____    ______ ____
ROOT
ATOM      1  C   UNL     1      -1.197  11.543  19.790  0.00  0.00    +0.000 A 
ATOM      2  C   UNL     1       0.192  11.376  20.025  0.00  0.00    +0.000 A 
ATOM      3  C   UNL     1       0.736  11.967  21.166  0.00  0.00    +0.000 A 
ATOM      4  N   UNL     1       0.050  12.674  22.087  0.00  0.00    +0.000 NA
ATOM      5  C   UNL     1      -1.261  12.834  21.894  0.00  0.00    +0.000 A 
ATOM      6  C   UNL     1      -1.951  13.616  22.815  0.00  0.00    +0.000 A 
ATOM      7  C   UNL     1      -3.319  13.861  22.707  0.00  0.00    +0.000 A 
ATOM      8  C   UNL     1      -4.035  13.247  21.698  0.00  0.00    +0.000 A 
ATOM      9  C   UNL     1      -3.362  12.426  20.796  0.00  0.00    +0.000 A 
ATOM     10  C   UNL     1      -1.950  12.259  20.804  0.00  0.00    +0.000 A 
ENDROOT
BRANCH   1  14
ATOM     11  N   UNL     1      -3.664  10.270  16.433  0.00  0.00    +0.000 NA
ATOM     12  C   UNL     1      -3.370   9.395  17.607  0.00  0.00    +0.000 C 
ATOM     13  C   UNL     1      -2.003   9.638  18.312  0.00  0.00    +0.000 C 
ATOM     14  N   UNL     1      -1.897  11.062  18.673  0.00  0.00    +0.000 N 
ATOM     15  C   UNL     1      -2.021  11.932  17.478  0.00  0.00    +0.000 C 
ATOM     16  C   UNL     1      -3.408  11.674  16.827  0.00  0.00    +0.000 C 
BRANCH  11  18
ATOM     17  C   UNL     1      -3.654   9.992  13.943  0.00  0.00    +0.000 C 
ATOM     18  C   UNL     1      -2.889   9.850  15.257  0.00  0.00    +0.000 C 
ENDBRANCH  11  18
ENDBRANCH   1  14
BRANCH   2  19
ATOM     19  C   UNL     1       1.187  10.796  19.078  0.00  0.00    +0.000 C 
ATOM     20  O   UNL     1       1.771  11.536  18.289  0.00  0.00    +0.000 OA
BRANCH  19  21
ATOM     21  C   UNL     1       1.623   9.362  19.136  0.00  0.00    +0.000 A 
ATOM     22  C   UNL     1       1.396   8.667  20.338  0.00  0.00    +0.000 A 
ATOM     23  C   UNL     1       1.729   7.317  20.459  0.00  0.00    +0.000 A 
ATOM     24  C   UNL     1       2.272   6.624  19.377  0.00  0.00    +0.000 A 
ATOM     25  C   UNL     1       2.539   7.312  18.190  0.00  0.00    +0.000 A 
ATOM     26  C   UNL     1       2.225   8.679  18.072  0.00  0.00    +0.000 A 
BRANCH  24  27
ATOM     27  O   UNL     1       2.545   5.305  19.610  0.00  0.00    +0.000 OA
ATOM     28  C   UNL     1       1.877   4.718  20.726  0.00  0.00    +0.000 C 
ENDBRANCH  24  27
ENDBRANCH  19  21
ENDBRANCH   2  19
TORSDOF 5
ENDMDL
