MODEL 1
REMARK VINA RESULT:      -8.2      0.000      0.000
REMARK  Name = 
REMARK  3 active torsions:
REMARK  status: ('A' for Active; 'I' for Inactive)
REMARK    1  A    between atoms: S_2  and  C_4
REMARK    2  A    between atoms: S_2  and  N_15
REMARK    3  A    between atoms: C_7  and  N_8
REMARK                            x       y       z     vdW  Elec       q    Type
REMARK                         _______ _______ _______ _____ _____    ______ ____
ROOT
ATOM      1  O   UNL     1       2.244   2.423  19.257  0.00  0.00    +0.000 OA
ATOM      2  S   UNL     1       2.675   3.371  18.213  0.00  0.00    +0.000 S 
ATOM      3  O   UNL     1       2.035   3.358  16.914  0.00  0.00    +0.000 OA
ENDROOT
BRANCH   2   4
ATOM      4  N   UNL     1       4.433   3.267  17.989  0.00  0.00    +0.000 N 
ATOM      5  C   UNL     1       5.000   3.600  19.342  0.00  0.00    +0.000 C 
ATOM      6  C   UNL     1       5.360   5.070  19.382  0.00  0.00    +0.000 C 
ATOM      7  C   UNL     1       6.649   5.121  18.627  0.00  0.00    +0.000 C 
ATOM      8  C   UNL     1       6.265   4.908  17.193  0.00  0.00    +0.000 A 
ATOM      9  C   UNL     1       7.069   5.609  16.268  0.00  0.00    +0.000 A 
ATOM     10  C   UNL     1       6.947   5.354  14.926  0.00  0.00    +0.000 A 
ATOM     11  C   UNL     1       6.027   4.381  14.534  0.00  0.00    +0.000 A 
ATOM     12  C   UNL     1       5.148   3.720  15.472  0.00  0.00    +0.000 A 
ATOM     13  C   UNL     1       5.213   3.995  16.847  0.00  0.00    +0.000 A 
ENDBRANCH   2   4
BRANCH   2  14
ATOM     14  C   UNL     1       2.342   5.119  18.905  0.00  0.00    +0.000 A 
ATOM     15  C   UNL     1       1.887   5.260  20.229  0.00  0.00    +0.000 A 
ATOM     16  C   UNL     1       1.552   6.525  20.775  0.00  0.00    +0.000 A 
ATOM     17  C   UNL     1       1.682   7.702  20.018  0.00  0.00    +0.000 A 
ATOM     18  C   UNL     1       2.189   7.583  18.710  0.00  0.00    +0.000 A 
ATOM     19  C   UNL     1       2.525   6.294  18.155  0.00  0.00    +0.000 A 
BRANCH  17  20
ATOM     20  N   UNL     1       1.312   8.974  20.589  0.00  0.00    +0.000 N 
ATOM     21  C   UNL     1       1.180   9.298  21.925  0.00  0.00    +0.000 A 
ATOM     22  N   UNL     1       0.839  10.559  22.076  0.00  0.00    +0.000 NA
ATOM     23  C   UNL     1       0.759  10.998  20.794  0.00  0.00    +0.000 A 
ATOM     24  N   UNL     1       1.023  10.080  19.851  0.00  0.00    +0.000 NA
ENDBRANCH  17  20
ENDBRANCH   2  14
TORSDOF 3
ENDMDL
MODEL 2
REMARK VINA RESULT:      -8.0      3.695      8.181
REMARK  Name = 
REMARK  3 active torsions:
REMARK  status: ('A' for Active; 'I' for Inactive)
REMARK    1  A    between atoms: S_2  and  C_4
REMARK    2  A    between atoms: S_2  and  N_15
REMARK    3  A    between atoms: C_7  and  N_8
REMARK                            x       y       z     vdW  Elec       q    Type
REMARK                         _______ _______ _______ _____ _____    ______ ____
ROOT
ATOM      1  O   UNL     1      -0.616   8.462  21.296  0.00  0.00    +0.000 OA
ATOM      2  S   UNL     1       0.559   9.291  20.972  0.00  0.00    +0.000 S 
ATOM      3  O   UNL     1       1.411   9.787  22.033  0.00  0.00    +0.000 OA
ENDROOT
BRANCH   2   4
ATOM      4  N   UNL     1       0.074  10.652  19.940  0.00  0.00    +0.000 N 
ATOM      5  C   UNL     1      -0.096  11.801  20.896  0.00  0.00    +0.000 C 
ATOM      6  C   UNL     1      -1.556  11.917  21.280  0.00  0.00    +0.000 C 
ATOM      7  C   UNL     1      -2.164  12.583  20.088  0.00  0.00    +0.000 C 
ATOM      8  C   UNL     1      -2.180  11.525  19.023  0.00  0.00    +0.000 A 
ATOM      9  C   UNL     1      -3.283  11.604  18.145  0.00  0.00    +0.000 A 
ATOM     10  C   UNL     1      -3.317  10.822  17.020  0.00  0.00    +0.000 A 
ATOM     11  C   UNL     1      -2.230   9.981  16.783  0.00  0.00    +0.000 A 
ATOM     12  C   UNL     1      -1.138   9.841  17.720  0.00  0.00    +0.000 A 
ATOM     13  C   UNL     1      -1.097  10.591  18.906  0.00  0.00    +0.000 A 
ENDBRANCH   2   4
BRANCH   2  14
ATOM     14  C   UNL     1       1.703   8.206  19.895  0.00  0.00    +0.000 A 
ATOM     15  C   UNL     1       2.162   8.704  18.661  0.00  0.00    +0.000 A 
ATOM     16  C   UNL     1       2.952   7.918  17.784  0.00  0.00    +0.000 A 
ATOM     17  C   UNL     1       3.331   6.607  18.122  0.00  0.00    +0.000 A 
ATOM     18  C   UNL     1       2.925   6.115  19.378  0.00  0.00    +0.000 A 
ATOM     19  C   UNL     1       2.118   6.915  20.267  0.00  0.00    +0.000 A 
BRANCH  17  20
ATOM     20  N   UNL     1       4.115   5.820  17.202  0.00  0.00    +0.000 N 
ATOM     21  C   UNL     1       4.210   4.444  17.130  0.00  0.00    +0.000 A 
ATOM     22  N   UNL     1       5.012   4.074  16.156  0.00  0.00    +0.000 NA
ATOM     23  C   UNL     1       5.414   5.263  15.638  0.00  0.00    +0.000 A 
ATOM     24  N   UNL     1       4.913   6.354  16.239  0.00  0.00    +0.000 NA
ENDBRANCH  17  20
ENDBRANCH   2  14
TORSDOF 3
ENDMDL
MODEL 3
REMARK VINA RESULT:      -7.9      3.917      8.404
REMARK  Name = 
REMARK  3 active torsions:
REMARK  status: ('A' for Active; 'I' for Inactive)
REMARK    1  A    between atoms: S_2  and  C_4
REMARK    2  A    between atoms: S_2  and  N_15
REMARK    3  A    between atoms: C_7  and  N_8
REMARK                            x       y       z     vdW  Elec       q    Type
REMARK                         _______ _______ _______ _____ _____    ______ ____
ROOT
ATOM      1  O   UNL     1      -0.648   8.957  21.537  0.00  0.00    +0.000 OA
ATOM      2  S   UNL     1       0.437   9.793  20.993  0.00  0.00    +0.000 S 
ATOM      3  O   UNL     1       1.417  10.379  21.884  0.00  0.00    +0.000 OA
ENDROOT
BRANCH   2   4
ATOM      4  N   UNL     1      -0.241  11.071  19.964  0.00  0.00    +0.000 N 
ATOM      5  C   UNL     1      -0.455  12.228  20.900  0.00  0.00    +0.000 C 
ATOM      6  C   UNL     1      -1.891  12.221  21.380  0.00  0.00    +0.000 C 
ATOM      7  C   UNL     1      -2.636  12.790  20.216  0.00  0.00    +0.000 C 
ATOM      8  C   UNL     1      -2.623  11.703  19.181  0.00  0.00    +0.000 A 
ATOM      9  C   UNL     1      -3.783  11.653  18.379  0.00  0.00    +0.000 A 
ATOM     10  C   UNL     1      -3.817  10.836  17.278  0.00  0.00    +0.000 A 
ATOM     11  C   UNL     1      -2.674  10.092  16.989  0.00  0.00    +0.000 A 
ATOM     12  C   UNL     1      -1.514  10.083  17.853  0.00  0.00    +0.000 A 
ATOM     13  C   UNL     1      -1.466  10.870  19.014  0.00  0.00    +0.000 A 
ENDBRANCH   2   4
BRANCH   2  14
ATOM     14  C   UNL     1       1.448   8.669  19.827  0.00  0.00    +0.000 A 
ATOM     15  C   UNL     1       1.855   7.399  20.277  0.00  0.00    +0.000 A 
ATOM     16  C   UNL     1       2.670   6.550  19.486  0.00  0.00    +0.000 A 
ATOM     17  C   UNL     1       3.089   6.934  18.200  0.00  0.00    +0.000 A 
ATOM     18  C   UNL     1       2.643   8.178  17.714  0.00  0.00    +0.000 A 
ATOM     19  C   UNL     1       1.818   9.042  18.523  0.00  0.00    +0.000 A 
BRANCH  17  20
ATOM     20  N   UNL     1       3.937   6.062  17.425  0.00  0.00    +0.000 N 
ATOM     21  C   UNL     1       4.932   6.417  16.535  0.00  0.00    +0.000 A 
ATOM     22  N   UNL     1       5.508   5.354  16.017  0.00  0.00    +0.000 NA
ATOM     23  C   UNL     1       4.831   4.336  16.609  0.00  0.00    +0.000 A 
ATOM     24  N   UNL     1       3.862   4.704  17.461  0.00  0.00    +0.000 NA
ENDBRANCH  17  20
ENDBRANCH   2  14
TORSDOF 3
ENDMDL
MODEL 4
REMARK VINA RESULT:      -7.9      0.240      1.011
REMARK  Name = 
REMARK  3 active torsions:
REMARK  status: ('A' for Active; 'I' for Inactive)
REMARK    1  A    between atoms: S_2  and  C_4
REMARK    2  A    between atoms: S_2  and  N_15
REMARK    3  A    between atoms: C_7  and  N_8
REMARK                            x       y       z     vdW  Elec       q    Type
REMARK                         _______ _______ _______ _____ _____    ______ ____
ROOT
ATOM      1  O   UNL     1       2.361   2.136  19.172  0.00  0.00    +0.000 OA
ATOM      2  S   UNL     1       2.749   3.170  18.196  0.00  0.00    +0.000 S 
ATOM      3  O   UNL     1       2.165   3.171  16.870  0.00  0.00    +0.000 OA
ENDROOT
BRANCH   2   4
ATOM      4  N   UNL     1       4.517   3.228  18.045  0.00  0.00    +0.000 N 
ATOM      5  C   UNL     1       4.994   3.609  19.420  0.00  0.00    +0.000 C 
ATOM      6  C   UNL     1       5.216   5.105  19.473  0.00  0.00    +0.000 C 
ATOM      7  C   UNL     1       6.526   5.276  18.773  0.00  0.00    +0.000 C 
ATOM      8  C   UNL     1       6.222   5.032  17.323  0.00  0.00    +0.000 A 
ATOM      9  C   UNL     1       6.997   5.806  16.431  0.00  0.00    +0.000 A 
ATOM     10  C   UNL     1       6.954   5.544  15.086  0.00  0.00    +0.000 A 
ATOM     11  C   UNL     1       6.144   4.492  14.658  0.00  0.00    +0.000 A 
ATOM     12  C   UNL     1       5.292   3.751  15.559  0.00  0.00    +0.000 A 
ATOM     13  C   UNL     1       5.274   4.027  16.935  0.00  0.00    +0.000 A 
ENDBRANCH   2   4
BRANCH   2  14
ATOM     14  C   UNL     1       2.237   4.845  18.956  0.00  0.00    +0.000 A 
ATOM     15  C   UNL     1       2.391   6.020  18.197  0.00  0.00    +0.000 A 
ATOM     16  C   UNL     1       2.099   7.301  18.733  0.00  0.00    +0.000 A 
ATOM     17  C   UNL     1       1.619   7.449  20.046  0.00  0.00    +0.000 A 
ATOM     18  C   UNL     1       1.407   6.277  20.798  0.00  0.00    +0.000 A 
ATOM     19  C   UNL     1       1.709   4.976  20.252  0.00  0.00    +0.000 A 
BRANCH  17  20
ATOM     20  N   UNL     1       1.352   8.764  20.575  0.00  0.00    +0.000 N 
ATOM     21  C   UNL     1       1.343   9.160  21.898  0.00  0.00    +0.000 A 
ATOM     22  N   UNL     1       1.070  10.442  22.008  0.00  0.00    +0.000 NA
ATOM     23  C   UNL     1       0.904  10.819  20.714  0.00  0.00    +0.000 A 
ATOM     24  N   UNL     1       1.051   9.843  19.804  0.00  0.00    +0.000 NA
ENDBRANCH  17  20
ENDBRANCH   2  14
TORSDOF 3
ENDMDL
MODEL 5
REMARK VINA RESULT:      -7.8      0.703      1.009
REMARK  Name = 
REMARK  3 active torsions:
REMARK  status: ('A' for Active; 'I' for Inactive)
REMARK    1  A    between atoms: S_2  and  C_4
REMARK    2  A    between atoms: S_2  and  N_15
REMARK    3  A    between atoms: C_7  and  N_8
REMARK                            x       y       z     vdW  Elec       q    Type
REMARK                         _______ _______ _______ _____ _____    ______ ____
ROOT
ATOM      1  O   UNL     1       2.426   2.793  19.921  0.00  0.00    +0.000 OA
ATOM      2  S   UNL     1       2.689   3.468  18.638  0.00  0.00    +0.000 S 
ATOM      3  O   UNL     1       1.901   3.134  17.469  0.00  0.00    +0.000 OA
ENDROOT
BRANCH   2   4
ATOM      4  N   UNL     1       4.411   3.339  18.226  0.00  0.00    +0.000 N 
ATOM      5  C   UNL     1       5.125   3.699  19.499  0.00  0.00    +0.000 C 
ATOM      6  C   UNL     1       5.500   5.166  19.461  0.00  0.00    +0.000 C 
ATOM      7  C   UNL     1       6.700   5.183  18.569  0.00  0.00    +0.000 C 
ATOM      8  C   UNL     1       6.158   4.939  17.191  0.00  0.00    +0.000 A 
ATOM      9  C   UNL     1       6.863   5.607  16.166  0.00  0.00    +0.000 A 
ATOM     10  C   UNL     1       6.592   5.319  14.853  0.00  0.00    +0.000 A 
ATOM     11  C   UNL     1       5.626   4.348  14.589  0.00  0.00    +0.000 A 
ATOM     12  C   UNL     1       4.850   3.720  15.634  0.00  0.00    +0.000 A 
ATOM     13  C   UNL     1       5.067   4.029  16.986  0.00  0.00    +0.000 A 
ENDBRANCH   2   4
BRANCH   2  14
ATOM     14  C   UNL     1       2.364   5.327  18.932  0.00  0.00    +0.000 A 
ATOM     15  C   UNL     1       1.944   5.759  20.204  0.00  0.00    +0.000 A 
ATOM     16  C   UNL     1       1.616   7.114  20.464  0.00  0.00    +0.000 A 
ATOM     17  C   UNL     1       1.718   8.093  19.460  0.00  0.00    +0.000 A 
ATOM     18  C   UNL     1       2.191   7.686  18.198  0.00  0.00    +0.000 A 
ATOM     19  C   UNL     1       2.520   6.305  17.935  0.00  0.00    +0.000 A 
BRANCH  17  20
ATOM     20  N   UNL     1       1.356   9.460  19.744  0.00  0.00    +0.000 N 
ATOM     21  C   UNL     1       1.349  10.534  18.874  0.00  0.00    +0.000 A 
ATOM     22  N   UNL     1       0.950  11.631  19.479  0.00  0.00    +0.000 NA
ATOM     23  C   UNL     1       0.721  11.202  20.746  0.00  0.00    +0.000 A 
ATOM     24  N   UNL     1       0.961   9.901  20.968  0.00  0.00    +0.000 NA
ENDBRANCH  17  20
ENDBRANCH   2  14
TORSDOF 3
ENDMDL
MODEL 6
REMARK VINA RESULT:      -7.8      2.585      4.477
REMARK  Name = 
REMARK  3 active torsions:
REMARK  status: ('A' for Active; 'I' for Inactive)
REMARK    1  A    between atoms: S_2  and  C_4
REMARK    2  A    between atoms: S_2  and  N_15
REMARK    3  A    between atoms: C_7  and  N_8
REMARK                            x       y       z     vdW  Elec       q    Type
REMARK                         _______ _______ _______ _____ _____    ______ ____
ROOT
ATOM      1  O   UNL     1       5.759   5.398  17.105  0.00  0.00    +0.000 OA
ATOM      2  S   UNL     1       5.241   5.257  18.478  0.00  0.00    +0.000 S 
ATOM      3  O   UNL     1       6.107   5.519  19.609  0.00  0.00    +0.000 OA
ENDROOT
BRANCH   2   4
ATOM      4  N   UNL     1       4.495   3.659  18.684  0.00  0.00    +0.000 N 
ATOM      5  C   UNL     1       4.165   3.221  17.283  0.00  0.00    +0.000 C 
ATOM      6  C   UNL     1       2.721   3.562  16.982  0.00  0.00    +0.000 C 
ATOM      7  C   UNL     1       1.966   2.484  17.692  0.00  0.00    +0.000 C 
ATOM      8  C   UNL     1       2.094   2.821  19.149  0.00  0.00    +0.000 A 
ATOM      9  C   UNL     1       0.964   2.479  19.923  0.00  0.00    +0.000 A 
ATOM     10  C   UNL     1       1.024   2.556  21.291  0.00  0.00    +0.000 A 
ATOM     11  C   UNL     1       2.230   2.961  21.863  0.00  0.00    +0.000 A 
ATOM     12  C   UNL     1       3.362   3.385  21.070  0.00  0.00    +0.000 A 
ATOM     13  C   UNL     1       3.316   3.366  19.668  0.00  0.00    +0.000 A 
ENDBRANCH   2   4
BRANCH   2  14
ATOM     14  C   UNL     1       3.819   6.520  18.648  0.00  0.00    +0.000 A 
ATOM     15  C   UNL     1       3.585   7.437  17.606  0.00  0.00    +0.000 A 
ATOM     16  C   UNL     1       2.593   8.446  17.706  0.00  0.00    +0.000 A 
ATOM     17  C   UNL     1       1.782   8.559  18.848  0.00  0.00    +0.000 A 
ATOM     18  C   UNL     1       1.967   7.614  19.875  0.00  0.00    +0.000 A 
ATOM     19  C   UNL     1       2.979   6.591  19.774  0.00  0.00    +0.000 A 
BRANCH  17  20
ATOM     20  N   UNL     1       0.796   9.608  18.934  0.00  0.00    +0.000 N 
ATOM     21  C   UNL     1      -0.181   9.932  18.013  0.00  0.00    +0.000 A 
ATOM     22  N   UNL     1      -0.912  10.943  18.431  0.00  0.00    +0.000 NA
ATOM     23  C   UNL     1      -0.349  11.235  19.631  0.00  0.00    +0.000 A 
ATOM     24  N   UNL     1       0.695  10.469  19.983  0.00  0.00    +0.000 NA
ENDBRANCH  17  20
ENDBRANCH   2  14
TORSDOF 3
ENDMDL
MODEL 7
REMARK VINA RESULT:      -7.8      2.608      4.354
REMARK  Name = 
REMARK  3 active torsions:
REMARK  status: ('A' for Active; 'I' for Inactive)
REMARK    1  A    between atoms: S_2  and  C_4
REMARK    2  A    between atoms: S_2  and  N_15
REMARK    3  A    between atoms: C_7  and  N_8
REMARK                            x       y       z     vdW  Elec       q    Type
REMARK                         _______ _______ _______ _____ _____    ______ ____
ROOT
ATOM      1  O   UNL     1       5.309   5.049  16.654  0.00  0.00    +0.000 OA
ATOM      2  S   UNL     1       4.874   4.957  18.059  0.00  0.00    +0.000 S 
ATOM      3  O   UNL     1       5.851   5.027  19.126  0.00  0.00    +0.000 OA
ENDROOT
BRANCH   2   4
ATOM      4  N   UNL     1       3.873   3.508  18.290  0.00  0.00    +0.000 N 
ATOM      5  C   UNL     1       3.024   3.443  17.050  0.00  0.00    +0.000 C 
ATOM      6  C   UNL     1       1.683   4.088  17.332  0.00  0.00    +0.000 C 
ATOM      7  C   UNL     1       0.958   3.033  18.104  0.00  0.00    +0.000 C 
ATOM      8  C   UNL     1       1.616   3.024  19.453  0.00  0.00    +0.000 A 
ATOM      9  C   UNL     1       0.741   2.729  20.522  0.00  0.00    +0.000 A 
ATOM     10  C   UNL     1       1.247   2.501  21.775  0.00  0.00    +0.000 A 
ATOM     11  C   UNL     1       2.632   2.556  21.933  0.00  0.00    +0.000 A 
ATOM     12  C   UNL     1       3.522   2.935  20.859  0.00  0.00    +0.000 A 
ATOM     13  C   UNL     1       3.032   3.223  19.576  0.00  0.00    +0.000 A 
ENDBRANCH   2   4
BRANCH   2  14
ATOM     14  C   UNL     1       3.713   6.443  18.361  0.00  0.00    +0.000 A 
ATOM     15  C   UNL     1       2.982   6.512  19.561  0.00  0.00    +0.000 A 
ATOM     16  C   UNL     1       2.049   7.550  19.811  0.00  0.00    +0.000 A 
ATOM     17  C   UNL     1       1.831   8.574  18.873  0.00  0.00    +0.000 A 
ATOM     18  C   UNL     1       2.596   8.549  17.691  0.00  0.00    +0.000 A 
ATOM     19  C   UNL     1       3.542   7.489  17.438  0.00  0.00    +0.000 A 
BRANCH  17  20
ATOM     20  N   UNL     1       0.859   9.606  19.141  0.00  0.00    +0.000 N 
ATOM     21  C   UNL     1       0.682  10.321  20.309  0.00  0.00    +0.000 A 
ATOM     22  N   UNL     1      -0.296  11.193  20.188  0.00  0.00    +0.000 NA
ATOM     23  C   UNL     1      -0.718  10.986  18.915  0.00  0.00    +0.000 A 
ATOM     24  N   UNL     1      -0.064  10.030  18.237  0.00  0.00    +0.000 NA
ENDBRANCH  17  20
ENDBRANCH   2  14
TORSDOF 3
ENDMDL
MODEL 8
REMARK VINA RESULT:      -7.7      2.738      4.435
REMARK  Name = 
REMARK  3 active torsions:
REMARK  status: ('A' for Active; 'I' for Inactive)
REMARK    1  A    between atoms: S_2  and  C_4
REMARK    2  A    between atoms: S_2  and  N_15
REMARK    3  A    between atoms: C_7  and  N_8
REMARK                            x       y       z     vdW  Elec       q    Type
REMARK                         _______ _______ _______ _____ _____    ______ ____
ROOT
ATOM      1  O   UNL     1       4.832   5.608  16.517  0.00  0.00    +0.000 OA
ATOM      2  S   UNL     1       4.555   5.392  17.949  0.00  0.00    +0.000 S 
ATOM      3  O   UNL     1       5.628   5.483  18.917  0.00  0.00    +0.000 OA
ENDROOT
BRANCH   2   4
ATOM      4  N   UNL     1       3.705   3.850  18.176  0.00  0.00    +0.000 N 
ATOM      5  C   UNL     1       2.794   3.749  16.983  0.00  0.00    +0.000 C 
ATOM      6  C   UNL     1       1.419   4.257  17.363  0.00  0.00    +0.000 C 
ATOM      7  C   UNL     1       0.839   3.113  18.131  0.00  0.00    +0.000 C 
ATOM      8  C   UNL     1       1.572   3.118  19.441  0.00  0.00    +0.000 A 
ATOM      9  C   UNL     1       0.791   2.706  20.543  0.00  0.00    +0.000 A 
ATOM     10  C   UNL     1       1.388   2.483  21.757  0.00  0.00    +0.000 A 
ATOM     11  C   UNL     1       2.769   2.661  21.841  0.00  0.00    +0.000 A 
ATOM     12  C   UNL     1       3.557   3.158  20.736  0.00  0.00    +0.000 A 
ATOM     13  C   UNL     1       2.969   3.443  19.494  0.00  0.00    +0.000 A 
ENDBRANCH   2   4
BRANCH   2  14
ATOM     14  C   UNL     1       3.314   6.749  18.466  0.00  0.00    +0.000 A 
ATOM     15  C   UNL     1       3.052   7.813  17.583  0.00  0.00    +0.000 A 
ATOM     16  C   UNL     1       2.198   8.888  17.940  0.00  0.00    +0.000 A 
ATOM     17  C   UNL     1       1.557   8.925  19.190  0.00  0.00    +0.000 A 
ATOM     18  C   UNL     1       1.766   7.839  20.062  0.00  0.00    +0.000 A 
ATOM     19  C   UNL     1       2.638   6.748  19.699  0.00  0.00    +0.000 A 
BRANCH  17  20
ATOM     20  N   UNL     1       0.712  10.041  19.538  0.00  0.00    +0.000 N 
ATOM     21  C   UNL     1       0.135  10.320  20.762  0.00  0.00    +0.000 A 
ATOM     22  N   UNL     1      -0.564  11.432  20.714  0.00  0.00    +0.000 NA
ATOM     23  C   UNL     1      -0.407  11.824  19.424  0.00  0.00    +0.000 A 
ATOM     24  N   UNL     1       0.346  11.015  18.662  0.00  0.00    +0.000 NA
ENDBRANCH  17  20
ENDBRANCH   2  14
TORSDOF 3
ENDMDL
MODEL 9
REMARK VINA RESULT:      -7.4      2.196      3.001
REMARK  Name = 
REMARK  3 active torsions:
REMARK  status: ('A' for Active; 'I' for Inactive)
REMARK    1  A    between atoms: S_2  and  C_4
REMARK    2  A    between atoms: S_2  and  N_15
REMARK    3  A    between atoms: C_7  and  N_8
REMARK                            x       y       z     vdW  Elec       q    Type
REMARK                         _______ _______ _______ _____ _____    ______ ____
ROOT
ATOM      1  O   UNL     1       3.877   5.727  20.295  0.00  0.00    +0.000 OA
ATOM      2  S   UNL     1       2.550   5.689  19.655  0.00  0.00    +0.000 S 
ATOM      3  O   UNL     1       1.434   5.069  20.337  0.00  0.00    +0.000 OA
ENDROOT
BRANCH   2   4
ATOM      4  N   UNL     1       2.684   4.998  18.025  0.00  0.00    +0.000 N 
ATOM      5  C   UNL     1       2.113   3.613  18.160  0.00  0.00    +0.000 C 
ATOM      6  C   UNL     1       3.243   2.630  18.381  0.00  0.00    +0.000 C 
ATOM      7  C   UNL     1       3.811   2.458  17.009  0.00  0.00    +0.000 C 
ATOM      8  C   UNL     1       4.535   3.742  16.729  0.00  0.00    +0.000 A 
ATOM      9  C   UNL     1       5.695   3.593  15.937  0.00  0.00    +0.000 A 
ATOM     10  C   UNL     1       6.337   4.702  15.451  0.00  0.00    +0.000 A 
ATOM     11  C   UNL     1       5.793   5.950  15.754  0.00  0.00    +0.000 A 
ATOM     12  C   UNL     1       4.652   6.108  16.628  0.00  0.00    +0.000 A 
ATOM     13  C   UNL     1       4.001   4.995  17.183  0.00  0.00    +0.000 A 
ENDBRANCH   2   4
BRANCH   2  14
ATOM     14  C   UNL     1       2.022   7.508  19.406  0.00  0.00    +0.000 A 
ATOM     15  C   UNL     1       1.434   8.206  20.477  0.00  0.00    +0.000 A 
ATOM     16  C   UNL     1       0.954   9.532  20.333  0.00  0.00    +0.000 A 
ATOM     17  C   UNL     1       1.066  10.218  19.111  0.00  0.00    +0.000 A 
ATOM     18  C   UNL     1       1.702   9.552  18.046  0.00  0.00    +0.000 A 
ATOM     19  C   UNL     1       2.186   8.201  18.194  0.00  0.00    +0.000 A 
BRANCH  17  20
ATOM     20  N   UNL     1       0.549  11.558  18.983  0.00  0.00    +0.000 N 
ATOM     21  C   UNL     1      -0.750  11.988  19.174  0.00  0.00    +0.000 A 
ATOM     22  N   UNL     1      -0.854  13.285  18.982  0.00  0.00    +0.000 NA
ATOM     23  C   UNL     1       0.417  13.637  18.660  0.00  0.00    +0.000 A 
ATOM     24  N   UNL     1       1.306  12.632  18.634  0.00  0.00    +0.000 NA
ENDBRANCH  17  20
ENDBRANCH   2  14
TORSDOF 3
ENDMDL
