MODEL 1
REMARK VINA RESULT:      -7.4      0.000      0.000
REMARK  Name = 
REMARK  3 active torsions:
REMARK  status: ('A' for Active; 'I' for Inactive)
REMARK    1  A    between atoms: C_2  and  C_3
REMARK    2  A    between atoms: C_16  and  C_17
REMARK    3  A    between atoms: C_17  and  N_18
REMARK                            x       y       z     vdW  Elec       q    Type
REMARK                         _______ _______ _______ _____ _____    ______ ____
ROOT
ATOM      1  O   UNL     1       4.449   1.638  19.768  0.00  0.00    +0.000 OA
ATOM      2  C   UNL     1       4.118   2.776  19.421  0.00  0.00    +0.000 C 
ATOM      3  N   UNL     1       3.104   3.423  20.138  0.00  0.00    +0.000 N 
ATOM      4  C   UNL     1       2.487   2.738  21.265  0.00  0.00    +0.000 C 
ATOM      5  C   UNL     1       1.029   3.132  21.160  0.00  0.00    +0.000 C 
ATOM      6  C   UNL     1       1.111   4.589  20.731  0.00  0.00    +0.000 C 
ATOM      7  C   UNL     1       2.353   4.651  19.815  0.00  0.00    +0.000 C 
ENDROOT
BRANCH   2   8
ATOM      8  C   UNL     1       4.811   3.470  18.334  0.00  0.00    +0.000 A 
ATOM      9  C   UNL     1       5.959   4.247  18.275  0.00  0.00    +0.000 A 
ATOM     10  C   UNL     1       6.377   4.513  16.940  0.00  0.00    +0.000 A 
ATOM     11  C   UNL     1       5.431   4.110  16.029  0.00  0.00    +0.000 A 
ATOM     12  S   UNL     1       4.109   3.344  16.754  0.00  0.00    +0.000 S 
ATOM     13  C   UNL     1       5.541   4.358  14.565  0.00  0.00    +0.000 C 
ATOM     14  C   UNL     1       6.946   4.894  14.220  0.00  0.00    +0.000 C 
ATOM     15  O   UNL     1       7.465   5.803  15.208  0.00  0.00    +0.000 OA
ATOM     16  C   UNL     1       7.642   5.160  16.486  0.00  0.00    +0.000 C 
ENDBRANCH   2   8
BRANCH   7  17
ATOM     17  C   UNL     1       3.135   5.954  20.050  0.00  0.00    +0.000 C 
BRANCH  17  18
ATOM     18  N   UNL     1       2.552   7.089  19.354  0.00  0.00    +0.000 N 
ATOM     19  C   UNL     1       2.602   7.344  18.013  0.00  0.00    +0.000 A 
ATOM     20  C   UNL     1       1.896   8.507  17.819  0.00  0.00    +0.000 A 
ATOM     21  C   UNL     1       1.453   8.875  19.100  0.00  0.00    +0.000 A 
ATOM     22  N   UNL     1       1.842   8.008  20.041  0.00  0.00    +0.000 NA
ENDBRANCH  17  18
ENDBRANCH   7  17
TORSDOF 3
ENDMDL
MODEL 2
REMARK VINA RESULT:      -6.8      1.324      1.814
REMARK  Name = 
REMARK  3 active torsions:
REMARK  status: ('A' for Active; 'I' for Inactive)
REMARK    1  A    between atoms: C_2  and  C_3
REMARK    2  A    between atoms: C_16  and  C_17
REMARK    3  A    between atoms: C_17  and  N_18
REMARK                            x       y       z     vdW  Elec       q    Type
REMARK                         _______ _______ _______ _____ _____    ______ ____
ROOT
ATOM      1  O   UNL     1       4.733   1.891  20.109  0.00  0.00    +0.000 OA
ATOM      2  C   UNL     1       4.338   3.007  19.758  0.00  0.00    +0.000 C 
ATOM      3  N   UNL     1       3.100   3.455  20.234  0.00  0.00    +0.000 N 
ATOM      4  C   UNL     1       2.333   2.599  21.127  0.00  0.00    +0.000 C 
ATOM      5  C   UNL     1       0.902   2.819  20.682  0.00  0.00    +0.000 C 
ATOM      6  C   UNL     1       0.877   4.308  20.375  0.00  0.00    +0.000 C 
ATOM      7  C   UNL     1       2.282   4.606  19.805  0.00  0.00    +0.000 C 
ENDROOT
BRANCH   2   8
ATOM      8  C   UNL     1       5.167   3.878  18.923  0.00  0.00    +0.000 A 
ATOM      9  C   UNL     1       5.260   4.083  17.554  0.00  0.00    +0.000 A 
ATOM     10  C   UNL     1       6.053   5.218  17.219  0.00  0.00    +0.000 A 
ATOM     11  C   UNL     1       6.705   5.715  18.321  0.00  0.00    +0.000 A 
ATOM     12  S   UNL     1       6.302   4.898  19.744  0.00  0.00    +0.000 S 
ATOM     13  C   UNL     1       7.690   6.830  18.258  0.00  0.00    +0.000 C 
ATOM     14  C   UNL     1       7.677   7.475  16.857  0.00  0.00    +0.000 C 
ATOM     15  O   UNL     1       7.508   6.521  15.794  0.00  0.00    +0.000 OA
ATOM     16  C   UNL     1       6.238   5.845  15.878  0.00  0.00    +0.000 C 
ENDBRANCH   2   8
BRANCH   7  17
ATOM     17  C   UNL     1       2.792   5.969  20.306  0.00  0.00    +0.000 C 
BRANCH  17  18
ATOM     18  N   UNL     1       2.525   7.044  19.366  0.00  0.00    +0.000 N 
ATOM     19  C   UNL     1       2.910   7.105  18.057  0.00  0.00    +0.000 A 
ATOM     20  C   UNL     1       2.415   8.290  17.568  0.00  0.00    +0.000 A 
ATOM     21  C   UNL     1       1.739   8.871  18.654  0.00  0.00    +0.000 A 
ATOM     22  N   UNL     1       1.795   8.111  19.753  0.00  0.00    +0.000 NA
ENDBRANCH  17  18
ENDBRANCH   7  17
TORSDOF 3
ENDMDL
MODEL 3
REMARK VINA RESULT:      -6.6      0.805      1.100
REMARK  Name = 
REMARK  3 active torsions:
REMARK  status: ('A' for Active; 'I' for Inactive)
REMARK    1  A    between atoms: C_2  and  C_3
REMARK    2  A    between atoms: C_16  and  C_17
REMARK    3  A    between atoms: C_17  and  N_18
REMARK                            x       y       z     vdW  Elec       q    Type
REMARK                         _______ _______ _______ _____ _____    ______ ____
ROOT
ATOM      1  O   UNL     1       4.709   2.208  20.005  0.00  0.00    +0.000 OA
ATOM      2  C   UNL     1       4.308   3.245  19.469  0.00  0.00    +0.000 C 
ATOM      3  N   UNL     1       3.241   3.932  20.062  0.00  0.00    +0.000 N 
ATOM      4  C   UNL     1       2.653   3.406  21.285  0.00  0.00    +0.000 C 
ATOM      5  C   UNL     1       1.173   3.676  21.108  0.00  0.00    +0.000 C 
ATOM      6  C   UNL     1       1.164   5.041  20.439  0.00  0.00    +0.000 C 
ATOM      7  C   UNL     1       2.414   5.033  19.531  0.00  0.00    +0.000 C 
ENDROOT
BRANCH   2   8
ATOM      8  C   UNL     1       4.970   3.792  18.284  0.00  0.00    +0.000 A 
ATOM      9  C   UNL     1       6.151   4.495  18.087  0.00  0.00    +0.000 A 
ATOM     10  C   UNL     1       6.503   4.608  16.712  0.00  0.00    +0.000 A 
ATOM     11  C   UNL     1       5.486   4.174  15.897  0.00  0.00    +0.000 A 
ATOM     12  S   UNL     1       4.172   3.557  16.763  0.00  0.00    +0.000 S 
ATOM     13  C   UNL     1       5.523   4.274  14.412  0.00  0.00    +0.000 C 
ATOM     14  C   UNL     1       6.930   4.696  13.942  0.00  0.00    +0.000 C 
ATOM     15  O   UNL     1       7.552   5.663  14.806  0.00  0.00    +0.000 OA
ATOM     16  C   UNL     1       7.771   5.136  16.130  0.00  0.00    +0.000 C 
ENDBRANCH   2   8
BRANCH   7  17
ATOM     17  C   UNL     1       3.103   6.409  19.546  0.00  0.00    +0.000 C 
BRANCH  17  18
ATOM     18  N   UNL     1       2.176   7.494  19.820  0.00  0.00    +0.000 N 
ATOM     19  C   UNL     1       1.546   7.757  21.003  0.00  0.00    +0.000 A 
ATOM     20  C   UNL     1       0.792   8.887  20.791  0.00  0.00    +0.000 A 
ATOM     21  C   UNL     1       1.039   9.236  19.454  0.00  0.00    +0.000 A 
ATOM     22  N   UNL     1       1.891   8.395  18.857  0.00  0.00    +0.000 NA
ENDBRANCH  17  18
ENDBRANCH   7  17
TORSDOF 3
ENDMDL
MODEL 4
REMARK VINA RESULT:      -6.3      3.050      5.820
REMARK  Name = 
REMARK  3 active torsions:
REMARK  status: ('A' for Active; 'I' for Inactive)
REMARK    1  A    between atoms: C_2  and  C_3
REMARK    2  A    between atoms: C_16  and  C_17
REMARK    3  A    between atoms: C_17  and  N_18
REMARK                            x       y       z     vdW  Elec       q    Type
REMARK                         _______ _______ _______ _____ _____    ______ ____
ROOT
ATOM      1  O   UNL     1       1.225   4.402  17.327  0.00  0.00    +0.000 OA
ATOM      2  C   UNL     1       2.087   4.883  18.069  0.00  0.00    +0.000 C 
ATOM      3  N   UNL     1       3.193   4.093  18.405  0.00  0.00    +0.000 N 
ATOM      4  C   UNL     1       3.290   2.745  17.864  0.00  0.00    +0.000 C 
ATOM      5  C   UNL     1       3.870   1.946  19.013  0.00  0.00    +0.000 C 
ATOM      6  C   UNL     1       4.878   2.914  19.612  0.00  0.00    +0.000 C 
ATOM      7  C   UNL     1       4.229   4.304  19.435  0.00  0.00    +0.000 C 
ENDROOT
BRANCH   2   8
ATOM      8  C   UNL     1       2.002   6.268  18.533  0.00  0.00    +0.000 A 
ATOM      9  C   UNL     1       2.107   7.498  17.898  0.00  0.00    +0.000 A 
ATOM     10  C   UNL     1       1.711   8.584  18.729  0.00  0.00    +0.000 A 
ATOM     11  C   UNL     1       1.517   8.177  20.027  0.00  0.00    +0.000 A 
ATOM     12  S   UNL     1       1.713   6.510  20.226  0.00  0.00    +0.000 S 
ATOM     13  C   UNL     1       1.205   9.111  21.143  0.00  0.00    +0.000 C 
ATOM     14  C   UNL     1       0.902  10.519  20.591  0.00  0.00    +0.000 C 
ATOM     15  O   UNL     1       1.736  10.884  19.476  0.00  0.00    +0.000 OA
ATOM     16  C   UNL     1       1.529  10.014  18.346  0.00  0.00    +0.000 C 
ENDBRANCH   2   8
BRANCH   7  17
ATOM     17  C   UNL     1       5.290   5.354  19.062  0.00  0.00    +0.000 C 
BRANCH  17  18
ATOM     18  N   UNL     1       5.732   5.236  17.682  0.00  0.00    +0.000 N 
ATOM     19  C   UNL     1       5.217   5.886  16.597  0.00  0.00    +0.000 A 
ATOM     20  C   UNL     1       5.965   5.478  15.518  0.00  0.00    +0.000 A 
ATOM     21  C   UNL     1       6.911   4.588  16.054  0.00  0.00    +0.000 A 
ATOM     22  N   UNL     1       6.779   4.443  17.377  0.00  0.00    +0.000 NA
ENDBRANCH  17  18
ENDBRANCH   7  17
TORSDOF 3
ENDMDL
MODEL 5
REMARK VINA RESULT:      -6.1      2.884      6.050
REMARK  Name = 
REMARK  3 active torsions:
REMARK  status: ('A' for Active; 'I' for Inactive)
REMARK    1  A    between atoms: C_2  and  C_3
REMARK    2  A    between atoms: C_16  and  C_17
REMARK    3  A    between atoms: C_17  and  N_18
REMARK                            x       y       z     vdW  Elec       q    Type
REMARK                         _______ _______ _______ _____ _____    ______ ____
ROOT
ATOM      1  O   UNL     1       7.280   4.809  19.776  0.00  0.00    +0.000 OA
ATOM      2  C   UNL     1       6.305   5.286  19.187  0.00  0.00    +0.000 C 
ATOM      3  N   UNL     1       6.527   6.282  18.228  0.00  0.00    +0.000 N 
ATOM      4  C   UNL     1       7.891   6.711  17.956  0.00  0.00    +0.000 C 
ATOM      5  C   UNL     1       7.755   8.205  17.747  0.00  0.00    +0.000 C 
ATOM      6  C   UNL     1       6.446   8.313  16.981  0.00  0.00    +0.000 C 
ATOM      7  C   UNL     1       5.567   7.182  17.560  0.00  0.00    +0.000 C 
ENDROOT
BRANCH   2   8
ATOM      8  C   UNL     1       4.952   4.779  19.425  0.00  0.00    +0.000 A 
ATOM      9  C   UNL     1       3.772   5.370  19.855  0.00  0.00    +0.000 A 
ATOM     10  C   UNL     1       2.642   4.516  19.704  0.00  0.00    +0.000 A 
ATOM     11  C   UNL     1       3.020   3.241  19.363  0.00  0.00    +0.000 A 
ATOM     12  S   UNL     1       4.688   3.091  19.136  0.00  0.00    +0.000 S 
ATOM     13  C   UNL     1       2.064   2.105  19.244  0.00  0.00    +0.000 C 
ATOM     14  C   UNL     1       0.612   2.620  19.319  0.00  0.00    +0.000 C 
ATOM     15  O   UNL     1       0.438   3.693  20.261  0.00  0.00    +0.000 OA
ATOM     16  C   UNL     1       1.202   4.858  19.893  0.00  0.00    +0.000 C 
ENDBRANCH   2   8
BRANCH   7  17
ATOM     17  C   UNL     1       4.741   6.514  16.447  0.00  0.00    +0.000 C 
BRANCH  17  18
ATOM     18  N   UNL     1       5.490   5.496  15.729  0.00  0.00    +0.000 N 
ATOM     19  C   UNL     1       5.302   4.144  15.788  0.00  0.00    +0.000 A 
ATOM     20  C   UNL     1       6.223   3.594  14.928  0.00  0.00    +0.000 A 
ATOM     21  C   UNL     1       6.914   4.693  14.392  0.00  0.00    +0.000 A 
ATOM     22  N   UNL     1       6.465   5.858  14.870  0.00  0.00    +0.000 NA
ENDBRANCH  17  18
ENDBRANCH   7  17
TORSDOF 3
ENDMDL
MODEL 6
REMARK VINA RESULT:      -6.0      2.928      6.124
REMARK  Name = 
REMARK  3 active torsions:
REMARK  status: ('A' for Active; 'I' for Inactive)
REMARK    1  A    between atoms: C_2  and  C_3
REMARK    2  A    between atoms: C_16  and  C_17
REMARK    3  A    between atoms: C_17  and  N_18
REMARK                            x       y       z     vdW  Elec       q    Type
REMARK                         _______ _______ _______ _____ _____    ______ ____
ROOT
ATOM      1  O   UNL     1       7.122   4.420  19.400  0.00  0.00    +0.000 OA
ATOM      2  C   UNL     1       6.203   4.989  18.802  0.00  0.00    +0.000 C 
ATOM      3  N   UNL     1       6.513   6.097  18.006  0.00  0.00    +0.000 N 
ATOM      4  C   UNL     1       7.898   6.532  17.905  0.00  0.00    +0.000 C 
ATOM      5  C   UNL     1       7.793   8.043  17.885  0.00  0.00    +0.000 C 
ATOM      6  C   UNL     1       6.553   8.276  17.036  0.00  0.00    +0.000 C 
ATOM      7  C   UNL     1       5.620   7.096  17.386  0.00  0.00    +0.000 C 
ENDROOT
BRANCH   2   8
ATOM      8  C   UNL     1       4.831   4.481  18.860  0.00  0.00    +0.000 A 
ATOM      9  C   UNL     1       4.201   3.367  18.325  0.00  0.00    +0.000 A 
ATOM     10  C   UNL     1       2.895   3.163  18.855  0.00  0.00    +0.000 A 
ATOM     11  C   UNL     1       2.491   4.234  19.616  0.00  0.00    +0.000 A 
ATOM     12  S   UNL     1       3.689   5.417  19.768  0.00  0.00    +0.000 S 
ATOM     13  C   UNL     1       1.131   4.354  20.208  0.00  0.00    +0.000 C 
ATOM     14  C   UNL     1       0.361   3.027  20.048  0.00  0.00    +0.000 C 
ATOM     15  O   UNL     1       0.611   2.373  18.791  0.00  0.00    +0.000 OA
ATOM     16  C   UNL     1       1.994   1.992  18.652  0.00  0.00    +0.000 C 
ENDBRANCH   2   8
BRANCH   7  17
ATOM     17  C   UNL     1       4.883   6.597  16.131  0.00  0.00    +0.000 C 
BRANCH  17  18
ATOM     18  N   UNL     1       5.634   5.582  15.410  0.00  0.00    +0.000 N 
ATOM     19  C   UNL     1       5.289   4.271  15.239  0.00  0.00    +0.000 A 
ATOM     20  C   UNL     1       6.285   3.710  14.476  0.00  0.00    +0.000 A 
ATOM     21  C   UNL     1       7.182   4.762  14.230  0.00  0.00    +0.000 A 
ATOM     22  N   UNL     1       6.786   5.910  14.789  0.00  0.00    +0.000 NA
ENDBRANCH  17  18
ENDBRANCH   7  17
TORSDOF 3
ENDMDL
MODEL 7
REMARK VINA RESULT:      -5.9      2.825      6.455
REMARK  Name = 
REMARK  3 active torsions:
REMARK  status: ('A' for Active; 'I' for Inactive)
REMARK    1  A    between atoms: C_2  and  C_3
REMARK    2  A    between atoms: C_16  and  C_17
REMARK    3  A    between atoms: C_17  and  N_18
REMARK                            x       y       z     vdW  Elec       q    Type
REMARK                         _______ _______ _______ _____ _____    ______ ____
ROOT
ATOM      1  O   UNL     1       4.531   7.834  16.660  0.00  0.00    +0.000 OA
ATOM      2  C   UNL     1       3.915   7.079  17.420  0.00  0.00    +0.000 C 
ATOM      3  N   UNL     1       4.277   5.727  17.453  0.00  0.00    +0.000 N 
ATOM      4  C   UNL     1       5.364   5.264  16.603  0.00  0.00    +0.000 C 
ATOM      5  C   UNL     1       4.894   3.900  16.141  0.00  0.00    +0.000 C 
ATOM      6  C   UNL     1       4.223   3.344  17.387  0.00  0.00    +0.000 C 
ATOM      7  C   UNL     1       3.582   4.577  18.062  0.00  0.00    +0.000 C 
ENDROOT
BRANCH   2   8
ATOM      8  C   UNL     1       2.880   7.589  18.320  0.00  0.00    +0.000 A 
ATOM      9  C   UNL     1       2.475   7.246  19.603  0.00  0.00    +0.000 A 
ATOM     10  C   UNL     1       1.573   8.191  20.168  0.00  0.00    +0.000 A 
ATOM     11  C   UNL     1       1.158   9.108  19.233  0.00  0.00    +0.000 A 
ATOM     12  S   UNL     1       1.907   8.897  17.732  0.00  0.00    +0.000 S 
ATOM     13  C   UNL     1       0.130  10.150  19.504  0.00  0.00    +0.000 C 
ATOM     14  C   UNL     1      -0.200  10.194  21.010  0.00  0.00    +0.000 C 
ATOM     15  O   UNL     1      -0.225   8.894  21.625  0.00  0.00    +0.000 OA
ATOM     16  C   UNL     1       1.064   8.250  21.569  0.00  0.00    +0.000 C 
ENDBRANCH   2   8
BRANCH   7  17
ATOM     17  C   UNL     1       3.720   4.490  19.592  0.00  0.00    +0.000 C 
BRANCH  17  18
ATOM     18  N   UNL     1       2.609   3.788  20.213  0.00  0.00    +0.000 N 
ATOM     19  C   UNL     1       1.312   3.761  19.785  0.00  0.00    +0.000 A 
ATOM     20  C   UNL     1       0.634   2.956  20.670  0.00  0.00    +0.000 A 
ATOM     21  C   UNL     1       1.608   2.539  21.592  0.00  0.00    +0.000 A 
ATOM     22  N   UNL     1       2.818   3.036  21.314  0.00  0.00    +0.000 NA
ENDBRANCH  17  18
ENDBRANCH   7  17
TORSDOF 3
ENDMDL
MODEL 8
REMARK VINA RESULT:      -5.9      3.220      6.186
REMARK  Name = 
REMARK  3 active torsions:
REMARK  status: ('A' for Active; 'I' for Inactive)
REMARK    1  A    between atoms: C_2  and  C_3
REMARK    2  A    between atoms: C_16  and  C_17
REMARK    3  A    between atoms: C_17  and  N_18
REMARK                            x       y       z     vdW  Elec       q    Type
REMARK                         _______ _______ _______ _____ _____    ______ ____
ROOT
ATOM      1  O   UNL     1       1.311   4.653  19.733  0.00  0.00    +0.000 OA
ATOM      2  C   UNL     1       2.235   5.410  19.418  0.00  0.00    +0.000 C 
ATOM      3  N   UNL     1       3.453   4.845  19.022  0.00  0.00    +0.000 N 
ATOM      4  C   UNL     1       3.584   3.397  18.988  0.00  0.00    +0.000 C 
ATOM      5  C   UNL     1       4.996   3.158  19.482  0.00  0.00    +0.000 C 
ATOM      6  C   UNL     1       5.767   4.300  18.838  0.00  0.00    +0.000 C 
ATOM      7  C   UNL     1       4.771   5.480  18.829  0.00  0.00    +0.000 C 
ENDROOT
BRANCH   2   8
ATOM      8  C   UNL     1       2.049   6.862  19.387  0.00  0.00    +0.000 A 
ATOM      9  C   UNL     1       2.233   7.828  18.408  0.00  0.00    +0.000 A 
ATOM     10  C   UNL     1       1.687   9.092  18.771  0.00  0.00    +0.000 A 
ATOM     11  C   UNL     1       1.292   9.108  20.086  0.00  0.00    +0.000 A 
ATOM     12  S   UNL     1       1.484   7.610  20.845  0.00  0.00    +0.000 S 
ATOM     13  C   UNL     1       0.785  10.325  20.778  0.00  0.00    +0.000 C 
ATOM     14  C   UNL     1       0.550  11.458  19.757  0.00  0.00    +0.000 C 
ATOM     15  O   UNL     1       1.546  11.506  18.721  0.00  0.00    +0.000 OA
ATOM     16  C   UNL     1       1.542  10.308  17.919  0.00  0.00    +0.000 C 
ENDBRANCH   2   8
BRANCH   7  17
ATOM     17  C   UNL     1       4.902   6.289  17.527  0.00  0.00    +0.000 C 
BRANCH  17  18
ATOM     18  N   UNL     1       5.527   5.529  16.458  0.00  0.00    +0.000 N 
ATOM     19  C   UNL     1       4.974   4.499  15.750  0.00  0.00    +0.000 A 
ATOM     20  C   UNL     1       5.924   4.111  14.836  0.00  0.00    +0.000 A 
ATOM     21  C   UNL     1       7.012   4.970  15.063  0.00  0.00    +0.000 A 
ATOM     22  N   UNL     1       6.773   5.844  16.047  0.00  0.00    +0.000 NA
ENDBRANCH  17  18
ENDBRANCH   7  17
TORSDOF 3
ENDMDL
MODEL 9
REMARK VINA RESULT:      -5.8      2.974      6.071
REMARK  Name = 
REMARK  3 active torsions:
REMARK  status: ('A' for Active; 'I' for Inactive)
REMARK    1  A    between atoms: C_2  and  C_3
REMARK    2  A    between atoms: C_16  and  C_17
REMARK    3  A    between atoms: C_17  and  N_18
REMARK                            x       y       z     vdW  Elec       q    Type
REMARK                         _______ _______ _______ _____ _____    ______ ____
ROOT
ATOM      1  O   UNL     1       5.092   6.078  19.326  0.00  0.00    +0.000 OA
ATOM      2  C   UNL     1       3.926   5.908  18.957  0.00  0.00    +0.000 C 
ATOM      3  N   UNL     1       3.582   4.680  18.380  0.00  0.00    +0.000 N 
ATOM      4  C   UNL     1       4.603   3.652  18.243  0.00  0.00    +0.000 C 
ATOM      5  C   UNL     1       4.289   3.020  16.902  0.00  0.00    +0.000 C 
ATOM      6  C   UNL     1       2.769   2.999  16.896  0.00  0.00    +0.000 C 
ATOM      7  C   UNL     1       2.364   4.288  17.646  0.00  0.00    +0.000 C 
ENDROOT
BRANCH   2   8
ATOM      8  C   UNL     1       2.903   6.931  19.180  0.00  0.00    +0.000 A 
ATOM      9  C   UNL     1       2.069   7.232  20.248  0.00  0.00    +0.000 A 
ATOM     10  C   UNL     1       1.400   8.479  20.091  0.00  0.00    +0.000 A 
ATOM     11  C   UNL     1       1.581   8.988  18.828  0.00  0.00    +0.000 A 
ATOM     12  S   UNL     1       2.608   8.038  17.879  0.00  0.00    +0.000 S 
ATOM     13  C   UNL     1       0.911  10.225  18.336  0.00  0.00    +0.000 C 
ATOM     14  C   UNL     1       0.208  10.949  19.503  0.00  0.00    +0.000 C 
ATOM     15  O   UNL     1      -0.405  10.049  20.443  0.00  0.00    +0.000 OA
ATOM     16  C   UNL     1       0.568   9.208  21.092  0.00  0.00    +0.000 C 
ENDBRANCH   2   8
BRANCH   7  17
ATOM     17  C   UNL     1       1.138   4.032  18.540  0.00  0.00    +0.000 C 
BRANCH  17  18
ATOM     18  N   UNL     1       1.492   3.422  19.811  0.00  0.00    +0.000 N 
ATOM     19  C   UNL     1       1.906   2.137  20.019  0.00  0.00    +0.000 A 
ATOM     20  C   UNL     1       2.146   2.026  21.368  0.00  0.00    +0.000 A 
ATOM     21  C   UNL     1       1.856   3.298  21.888  0.00  0.00    +0.000 A 
ATOM     22  N   UNL     1       1.465   4.158  20.941  0.00  0.00    +0.000 NA
ENDBRANCH  17  18
ENDBRANCH   7  17
TORSDOF 3
ENDMDL
