MODEL 1
REMARK VINA RESULT:      -8.3      0.000      0.000
REMARK  Name = 
REMARK  9 active torsions:
REMARK  status: ('A' for Active; 'I' for Inactive)
REMARK    1  A    between atoms: C_1  and  C_2
REMARK    2  A    between atoms: C_2  and  C_3
REMARK    3  A    between atoms: C_4  and  C_5
REMARK    4  A    between atoms: C_5  and  S_6
REMARK    5  A    between atoms: S_6  and  C_7
REMARK    6  A    between atoms: C_9  and  O_10
REMARK    7  A    between atoms: C_12  and  C_13
REMARK    8  A    between atoms: C_13  and  C_14
REMARK    9  A    between atoms: C_18  and  C_19
REMARK                            x       y       z     vdW  Elec       q    Type
REMARK                         _______ _______ _______ _____ _____    ______ ____
ROOT
ATOM      1  C   UNL     1       6.631   5.303  15.735  0.00  0.00    +0.000 A 
ATOM      2  N   UNL     1       7.523   4.968  16.678  0.00  0.00    +0.000 NA
ATOM      3  C   UNL     1       7.092   5.084  17.931  0.00  0.00    +0.000 A 
ATOM      4  C   UNL     1       5.849   5.514  18.314  0.00  0.00    +0.000 A 
ATOM      5  C   UNL     1       5.012   5.876  17.280  0.00  0.00    +0.000 A 
ATOM      6  N   UNL     1       5.390   5.763  15.984  0.00  0.00    +0.000 NA
ENDROOT
BRANCH   3   7
ATOM      7  O   UNL     1       8.023   4.774  18.867  0.00  0.00    +0.000 OA
ATOM      8  H   UNL     1       8.437   5.645  19.006  0.00  0.00    +0.000 HD
ENDBRANCH   3   7
BRANCH   1   9
ATOM      9  S   UNL     1       7.110   5.159  14.024  0.00  0.00    +0.000 S 
BRANCH   9  10
ATOM     10  C   UNL     1       6.351   3.555  13.632  0.00  0.00    +0.000 C 
BRANCH  10  14
ATOM     11  C   UNL     1       3.669   3.308  10.798  0.00  0.00    +0.000 C 
ATOM     12  C   UNL     1       4.852   2.957  11.661  0.00  0.00    +0.000 C 
ATOM     13  C   UNL     1       5.614   1.714  11.298  0.00  0.00    +0.000 C 
ATOM     14  C   UNL     1       5.185   3.746  12.703  0.00  0.00    +0.000 C 
ENDBRANCH  10  14
ENDBRANCH   9  10
ENDBRANCH   1   9
BRANCH   5  15
ATOM     15  C   UNL     1       3.656   6.483  17.575  0.00  0.00    +0.000 C 
BRANCH  15  16
ATOM     16  C   UNL     1       2.777   5.690  18.517  0.00  0.00    +0.000 A 
ATOM     17  C   UNL     1       2.432   6.209  19.772  0.00  0.00    +0.000 A 
ATOM     18  C   UNL     1       1.655   5.463  20.659  0.00  0.00    +0.000 A 
ATOM     19  C   UNL     1       1.211   4.188  20.304  0.00  0.00    +0.000 A 
ATOM     20  C   UNL     1       1.549   3.646  19.060  0.00  0.00    +0.000 A 
ATOM     21  C   UNL     1       1.062   2.284  18.661  0.00  0.00    +0.000 C 
ATOM     22  C   UNL     1       2.336   4.399  18.176  0.00  0.00    +0.000 A 
ENDBRANCH  15  16
ENDBRANCH   5  15
TORSDOF 6
ENDMDL
MODEL 2
REMARK VINA RESULT:      -8.1      0.902      1.684
REMARK  Name = 
REMARK  9 active torsions:
REMARK  status: ('A' for Active; 'I' for Inactive)
REMARK    1  A    between atoms: C_1  and  C_2
REMARK    2  A    between atoms: C_2  and  C_3
REMARK    3  A    between atoms: C_4  and  C_5
REMARK    4  A    between atoms: C_5  and  S_6
REMARK    5  A    between atoms: S_6  and  C_7
REMARK    6  A    between atoms: C_9  and  O_10
REMARK    7  A    between atoms: C_12  and  C_13
REMARK    8  A    between atoms: C_13  and  C_14
REMARK    9  A    between atoms: C_18  and  C_19
REMARK                            x       y       z     vdW  Elec       q    Type
REMARK                         _______ _______ _______ _____ _____    ______ ____
ROOT
ATOM      1  C   UNL     1       6.664   5.266  16.269  0.00  0.00    +0.000 A 
ATOM      2  N   UNL     1       7.613   5.122  17.204  0.00  0.00    +0.000 NA
ATOM      3  C   UNL     1       7.185   5.209  18.461  0.00  0.00    +0.000 A 
ATOM      4  C   UNL     1       5.893   5.438  18.853  0.00  0.00    +0.000 A 
ATOM      5  C   UNL     1       4.993   5.615  17.825  0.00  0.00    +0.000 A 
ATOM      6  N   UNL     1       5.366   5.519  16.526  0.00  0.00    +0.000 NA
ENDROOT
BRANCH   3   7
ATOM      7  O   UNL     1       8.169   5.096  19.389  0.00  0.00    +0.000 OA
ATOM      8  H   UNL     1       8.737   4.424  18.970  0.00  0.00    +0.000 HD
ENDBRANCH   3   7
BRANCH   1   9
ATOM      9  S   UNL     1       7.137   5.142  14.555  0.00  0.00    +0.000 S 
BRANCH   9  10
ATOM     10  C   UNL     1       5.705   4.225  13.913  0.00  0.00    +0.000 C 
BRANCH  10  14
ATOM     11  C   UNL     1       6.086   1.547  11.090  0.00  0.00    +0.000 C 
ATOM     12  C   UNL     1       5.510   2.680  11.896  0.00  0.00    +0.000 C 
ATOM     13  C   UNL     1       4.205   3.257  11.424  0.00  0.00    +0.000 C 
ATOM     14  C   UNL     1       6.162   3.132  12.987  0.00  0.00    +0.000 C 
ENDBRANCH  10  14
ENDBRANCH   9  10
ENDBRANCH   1   9
BRANCH   5  15
ATOM     15  C   UNL     1       3.558   5.995  18.126  0.00  0.00    +0.000 C 
BRANCH  15  16
ATOM     16  C   UNL     1       2.675   4.870  18.619  0.00  0.00    +0.000 A 
ATOM     17  C   UNL     1       1.778   4.237  17.748  0.00  0.00    +0.000 A 
ATOM     18  C   UNL     1       0.933   3.228  18.211  0.00  0.00    +0.000 A 
ATOM     19  C   UNL     1       0.973   2.835  19.549  0.00  0.00    +0.000 A 
ATOM     20  C   UNL     1       1.855   3.458  20.440  0.00  0.00    +0.000 A 
ATOM     21  C   UNL     1       1.918   3.032  21.877  0.00  0.00    +0.000 C 
ATOM     22  C   UNL     1       2.696   4.477  19.969  0.00  0.00    +0.000 A 
ENDBRANCH  15  16
ENDBRANCH   5  15
TORSDOF 6
ENDMDL
MODEL 3
REMARK VINA RESULT:      -7.8      0.915      1.320
REMARK  Name = 
REMARK  9 active torsions:
REMARK  status: ('A' for Active; 'I' for Inactive)
REMARK    1  A    between atoms: C_1  and  C_2
REMARK    2  A    between atoms: C_2  and  C_3
REMARK    3  A    between atoms: C_4  and  C_5
REMARK    4  A    between atoms: C_5  and  S_6
REMARK    5  A    between atoms: S_6  and  C_7
REMARK    6  A    between atoms: C_9  and  O_10
REMARK    7  A    between atoms: C_12  and  C_13
REMARK    8  A    between atoms: C_13  and  C_14
REMARK    9  A    between atoms: C_18  and  C_19
REMARK                            x       y       z     vdW  Elec       q    Type
REMARK                         _______ _______ _______ _____ _____    ______ ____
ROOT
ATOM      1  C   UNL     1       6.629   4.782  15.557  0.00  0.00    +0.000 A 
ATOM      2  N   UNL     1       7.496   4.917  16.570  0.00  0.00    +0.000 NA
ATOM      3  C   UNL     1       7.015   4.608  17.771  0.00  0.00    +0.000 A 
ATOM      4  C   UNL     1       5.740   4.185  18.039  0.00  0.00    +0.000 A 
ATOM      5  C   UNL     1       4.905   4.115  16.944  0.00  0.00    +0.000 A 
ATOM      6  N   UNL     1       5.344   4.401  15.694  0.00  0.00    +0.000 NA
ENDROOT
BRANCH   3   7
ATOM      7  O   UNL     1       7.899   4.787  18.784  0.00  0.00    +0.000 OA
ATOM      8  H   UNL     1       8.188   5.702  18.613  0.00  0.00    +0.000 HD
ENDBRANCH   3   7
BRANCH   1   9
ATOM      9  S   UNL     1       7.188   5.152  13.906  0.00  0.00    +0.000 S 
BRANCH   9  10
ATOM     10  C   UNL     1       6.774   3.582  13.089  0.00  0.00    +0.000 C 
BRANCH  10  14
ATOM     11  C   UNL     1       3.636   3.103  10.806  0.00  0.00    +0.000 C 
ATOM     12  C   UNL     1       4.939   2.808  11.499  0.00  0.00    +0.000 C 
ATOM     13  C   UNL     1       5.590   1.488  11.193  0.00  0.00    +0.000 C 
ATOM     14  C   UNL     1       5.471   3.710  12.350  0.00  0.00    +0.000 C 
ENDBRANCH  10  14
ENDBRANCH   9  10
ENDBRANCH   1   9
BRANCH   5  15
ATOM     15  C   UNL     1       3.439   3.780  17.123  0.00  0.00    +0.000 C 
BRANCH  15  16
ATOM     16  C   UNL     1       2.820   4.237  18.425  0.00  0.00    +0.000 A 
ATOM     17  C   UNL     1       2.692   5.603  18.709  0.00  0.00    +0.000 A 
ATOM     18  C   UNL     1       2.159   6.028  19.926  0.00  0.00    +0.000 A 
ATOM     19  C   UNL     1       1.744   5.095  20.877  0.00  0.00    +0.000 A 
ATOM     20  C   UNL     1       1.868   3.725  20.619  0.00  0.00    +0.000 A 
ATOM     21  C   UNL     1       1.409   2.712  21.627  0.00  0.00    +0.000 C 
ATOM     22  C   UNL     1       2.412   3.305  19.396  0.00  0.00    +0.000 A 
ENDBRANCH  15  16
ENDBRANCH   5  15
TORSDOF 6
ENDMDL
MODEL 4
REMARK VINA RESULT:      -7.7      1.294      1.298
REMARK  Name = 
REMARK  9 active torsions:
REMARK  status: ('A' for Active; 'I' for Inactive)
REMARK    1  A    between atoms: C_1  and  C_2
REMARK    2  A    between atoms: C_2  and  C_3
REMARK    3  A    between atoms: C_4  and  C_5
REMARK    4  A    between atoms: C_5  and  S_6
REMARK    5  A    between atoms: S_6  and  C_7
REMARK    6  A    between atoms: C_9  and  O_10
REMARK    7  A    between atoms: C_12  and  C_13
REMARK    8  A    between atoms: C_13  and  C_14
REMARK    9  A    between atoms: C_18  and  C_19
REMARK                            x       y       z     vdW  Elec       q    Type
REMARK                         _______ _______ _______ _____ _____    ______ ____
ROOT
ATOM      1  C   UNL     1       5.794   4.999  16.185  0.00  0.00    +0.000 A 
ATOM      2  N   UNL     1       6.817   5.859  16.288  0.00  0.00    +0.000 NA
ATOM      3  C   UNL     1       6.556   6.968  16.974  0.00  0.00    +0.000 A 
ATOM      4  C   UNL     1       5.358   7.288  17.554  0.00  0.00    +0.000 A 
ATOM      5  C   UNL     1       4.351   6.366  17.362  0.00  0.00    +0.000 A 
ATOM      6  N   UNL     1       4.562   5.210  16.687  0.00  0.00    +0.000 NA
ENDROOT
BRANCH   3   7
ATOM      7  O   UNL     1       7.595   7.839  17.034  0.00  0.00    +0.000 OA
ATOM      8  H   UNL     1       7.143   8.675  16.822  0.00  0.00    +0.000 HD
ENDBRANCH   3   7
BRANCH   1   9
ATOM      9  S   UNL     1       6.054   3.473  15.301  0.00  0.00    +0.000 S 
BRANCH   9  10
ATOM     10  C   UNL     1       6.406   4.138  13.647  0.00  0.00    +0.000 C 
BRANCH  10  14
ATOM     11  C   UNL     1       3.707   3.159  10.993  0.00  0.00    +0.000 C 
ATOM     12  C   UNL     1       4.971   3.110  11.809  0.00  0.00    +0.000 C 
ATOM     13  C   UNL     1       5.946   2.012  11.491  0.00  0.00    +0.000 C 
ATOM     14  C   UNL     1       5.187   4.028  12.774  0.00  0.00    +0.000 C 
ENDBRANCH  10  14
ENDBRANCH   9  10
ENDBRANCH   1   9
BRANCH   5  15
ATOM     15  C   UNL     1       2.947   6.659  17.849  0.00  0.00    +0.000 C 
BRANCH  15  16
ATOM     16  C   UNL     1       2.361   5.642  18.802  0.00  0.00    +0.000 A 
ATOM     17  C   UNL     1       2.435   5.842  20.187  0.00  0.00    +0.000 A 
ATOM     18  C   UNL     1       1.932   4.886  21.070  0.00  0.00    +0.000 A 
ATOM     19  C   UNL     1       1.347   3.717  20.583  0.00  0.00    +0.000 A 
ATOM     20  C   UNL     1       1.268   3.491  19.204  0.00  0.00    +0.000 A 
ATOM     21  C   UNL     1       0.626   2.245  18.668  0.00  0.00    +0.000 C 
ATOM     22  C   UNL     1       1.783   4.453  18.322  0.00  0.00    +0.000 A 
ENDBRANCH  15  16
ENDBRANCH   5  15
TORSDOF 6
ENDMDL
MODEL 5
REMARK VINA RESULT:      -7.6      1.370      1.822
REMARK  Name = 
REMARK  9 active torsions:
REMARK  status: ('A' for Active; 'I' for Inactive)
REMARK    1  A    between atoms: C_1  and  C_2
REMARK    2  A    between atoms: C_2  and  C_3
REMARK    3  A    between atoms: C_4  and  C_5
REMARK    4  A    between atoms: C_5  and  S_6
REMARK    5  A    between atoms: S_6  and  C_7
REMARK    6  A    between atoms: C_9  and  O_10
REMARK    7  A    between atoms: C_12  and  C_13
REMARK    8  A    between atoms: C_13  and  C_14
REMARK    9  A    between atoms: C_18  and  C_19
REMARK                            x       y       z     vdW  Elec       q    Type
REMARK                         _______ _______ _______ _____ _____    ______ ____
ROOT
ATOM      1  C   UNL     1       5.948   4.949  16.174  0.00  0.00    +0.000 A 
ATOM      2  N   UNL     1       6.952   5.836  16.207  0.00  0.00    +0.000 NA
ATOM      3  C   UNL     1       6.728   6.917  16.949  0.00  0.00    +0.000 A 
ATOM      4  C   UNL     1       5.582   7.184  17.650  0.00  0.00    +0.000 A 
ATOM      5  C   UNL     1       4.587   6.238  17.525  0.00  0.00    +0.000 A 
ATOM      6  N   UNL     1       4.764   5.108  16.798  0.00  0.00    +0.000 NA
ENDROOT
BRANCH   3   7
ATOM      7  O   UNL     1       7.743   7.817  16.938  0.00  0.00    +0.000 OA
ATOM      8  H   UNL     1       7.283   8.606  16.600  0.00  0.00    +0.000 HD
ENDBRANCH   3   7
BRANCH   1   9
ATOM      9  S   UNL     1       6.164   3.457  15.224  0.00  0.00    +0.000 S 
BRANCH   9  10
ATOM     10  C   UNL     1       6.496   4.185  13.592  0.00  0.00    +0.000 C 
BRANCH  10  14
ATOM     11  C   UNL     1       3.796   3.172  10.951  0.00  0.00    +0.000 C 
ATOM     12  C   UNL     1       5.055   3.127  11.775  0.00  0.00    +0.000 C 
ATOM     13  C   UNL     1       6.015   2.006  11.493  0.00  0.00    +0.000 C 
ATOM     14  C   UNL     1       5.280   4.069  12.715  0.00  0.00    +0.000 C 
ENDBRANCH  10  14
ENDBRANCH   9  10
ENDBRANCH   1   9
BRANCH   5  15
ATOM     15  C   UNL     1       3.228   6.474  18.151  0.00  0.00    +0.000 C 
BRANCH  15  16
ATOM     16  C   UNL     1       2.510   5.235  18.638  0.00  0.00    +0.000 A 
ATOM     17  C   UNL     1       1.683   4.507  17.772  0.00  0.00    +0.000 A 
ATOM     18  C   UNL     1       0.987   3.388  18.229  0.00  0.00    +0.000 A 
ATOM     19  C   UNL     1       1.107   2.979  19.557  0.00  0.00    +0.000 A 
ATOM     20  C   UNL     1       1.920   3.694  20.443  0.00  0.00    +0.000 A 
ATOM     21  C   UNL     1       2.070   3.253  21.870  0.00  0.00    +0.000 C 
ATOM     22  C   UNL     1       2.612   4.823  19.978  0.00  0.00    +0.000 A 
ENDBRANCH  15  16
ENDBRANCH   5  15
TORSDOF 6
ENDMDL
MODEL 6
REMARK VINA RESULT:      -7.6      1.353      2.055
REMARK  Name = 
REMARK  9 active torsions:
REMARK  status: ('A' for Active; 'I' for Inactive)
REMARK    1  A    between atoms: C_1  and  C_2
REMARK    2  A    between atoms: C_2  and  C_3
REMARK    3  A    between atoms: C_4  and  C_5
REMARK    4  A    between atoms: C_5  and  S_6
REMARK    5  A    between atoms: S_6  and  C_7
REMARK    6  A    between atoms: C_9  and  O_10
REMARK    7  A    between atoms: C_12  and  C_13
REMARK    8  A    between atoms: C_13  and  C_14
REMARK    9  A    between atoms: C_18  and  C_19
REMARK                            x       y       z     vdW  Elec       q    Type
REMARK                         _______ _______ _______ _____ _____    ______ ____
ROOT
ATOM      1  C   UNL     1       6.922   5.353  16.194  0.00  0.00    +0.000 A 
ATOM      2  N   UNL     1       7.682   6.261  16.820  0.00  0.00    +0.000 NA
ATOM      3  C   UNL     1       7.575   6.272  18.146  0.00  0.00    +0.000 A 
ATOM      4  C   UNL     1       6.766   5.456  18.891  0.00  0.00    +0.000 A 
ATOM      5  C   UNL     1       5.988   4.581  18.162  0.00  0.00    +0.000 A 
ATOM      6  N   UNL     1       6.067   4.513  16.811  0.00  0.00    +0.000 NA
ENDROOT
BRANCH   3   7
ATOM      7  O   UNL     1       8.327   7.223  18.754  0.00  0.00    +0.000 OA
ATOM      8  H   UNL     1       8.377   7.893  18.048  0.00  0.00    +0.000 HD
ENDBRANCH   3   7
BRANCH   1   9
ATOM      9  S   UNL     1       7.013   5.247  14.418  0.00  0.00    +0.000 S 
BRANCH   9  10
ATOM     10  C   UNL     1       6.161   3.662  14.165  0.00  0.00    +0.000 C 
BRANCH  10  14
ATOM     11  C   UNL     1       3.927   3.400  10.968  0.00  0.00    +0.000 C 
ATOM     12  C   UNL     1       5.032   3.113  11.948  0.00  0.00    +0.000 C 
ATOM     13  C   UNL     1       6.018   2.044  11.569  0.00  0.00    +0.000 C 
ATOM     14  C   UNL     1       5.106   3.804  13.104  0.00  0.00    +0.000 C 
ENDBRANCH  10  14
ENDBRANCH   9  10
ENDBRANCH   1   9
BRANCH   5  15
ATOM     15  C   UNL     1       4.963   3.711  18.859  0.00  0.00    +0.000 C 
BRANCH  15  16
ATOM     16  C   UNL     1       3.788   4.445  19.466  0.00  0.00    +0.000 A 
ATOM     17  C   UNL     1       2.936   3.797  20.369  0.00  0.00    +0.000 A 
ATOM     18  C   UNL     1       1.827   4.459  20.898  0.00  0.00    +0.000 A 
ATOM     19  C   UNL     1       1.556   5.778  20.534  0.00  0.00    +0.000 A 
ATOM     20  C   UNL     1       2.388   6.444  19.629  0.00  0.00    +0.000 A 
ATOM     21  C   UNL     1       2.116   7.869  19.243  0.00  0.00    +0.000 C 
ATOM     22  C   UNL     1       3.497   5.770  19.094  0.00  0.00    +0.000 A 
ENDBRANCH  15  16
ENDBRANCH   5  15
TORSDOF 6
ENDMDL
MODEL 7
REMARK VINA RESULT:      -7.5      3.237      5.633
REMARK  Name = 
REMARK  9 active torsions:
REMARK  status: ('A' for Active; 'I' for Inactive)
REMARK    1  A    between atoms: C_1  and  C_2
REMARK    2  A    between atoms: C_2  and  C_3
REMARK    3  A    between atoms: C_4  and  C_5
REMARK    4  A    between atoms: C_5  and  S_6
REMARK    5  A    between atoms: S_6  and  C_7
REMARK    6  A    between atoms: C_9  and  O_10
REMARK    7  A    between atoms: C_12  and  C_13
REMARK    8  A    between atoms: C_13  and  C_14
REMARK    9  A    between atoms: C_18  and  C_19
REMARK                            x       y       z     vdW  Elec       q    Type
REMARK                         _______ _______ _______ _____ _____    ______ ____
ROOT
ATOM      1  C   UNL     1       6.929   5.766  17.240  0.00  0.00    +0.000 A 
ATOM      2  N   UNL     1       7.430   5.791  15.998  0.00  0.00    +0.000 NA
ATOM      3  C   UNL     1       6.674   5.207  15.071  0.00  0.00    +0.000 A 
ATOM      4  C   UNL     1       5.468   4.596  15.290  0.00  0.00    +0.000 A 
ATOM      5  C   UNL     1       5.050   4.581  16.604  0.00  0.00    +0.000 A 
ATOM      6  N   UNL     1       5.768   5.175  17.587  0.00  0.00    +0.000 NA
ENDROOT
BRANCH   3   7
ATOM      7  O   UNL     1       7.219   5.213  13.829  0.00  0.00    +0.000 OA
ATOM      8  H   UNL     1       6.488   4.831  13.309  0.00  0.00    +0.000 HD
ENDBRANCH   3   7
BRANCH   1   9
ATOM      9  S   UNL     1       7.859   6.543  18.547  0.00  0.00    +0.000 S 
BRANCH   9  10
ATOM     10  C   UNL     1       7.966   8.230  17.879  0.00  0.00    +0.000 C 
BRANCH  10  14
ATOM     11  C   UNL     1      10.000  11.106  19.574  0.00  0.00    +0.000 C 
ATOM     12  C   UNL     1       9.039  10.409  18.649  0.00  0.00    +0.000 C 
ATOM     13  C   UNL     1       8.318  11.263  17.645  0.00  0.00    +0.000 C 
ATOM     14  C   UNL     1       8.857   9.075  18.745  0.00  0.00    +0.000 C 
ENDBRANCH  10  14
ENDBRANCH   9  10
ENDBRANCH   1   9
BRANCH   5  15
ATOM     15  C   UNL     1       3.794   3.831  16.995  0.00  0.00    +0.000 C 
BRANCH  15  16
ATOM     16  C   UNL     1       3.090   4.338  18.234  0.00  0.00    +0.000 A 
ATOM     17  C   UNL     1       2.748   5.691  18.352  0.00  0.00    +0.000 A 
ATOM     18  C   UNL     1       2.136   6.170  19.511  0.00  0.00    +0.000 A 
ATOM     19  C   UNL     1       1.855   5.302  20.568  0.00  0.00    +0.000 A 
ATOM     20  C   UNL     1       2.194   3.948  20.476  0.00  0.00    +0.000 A 
ATOM     21  C   UNL     1       1.881   3.003  21.599  0.00  0.00    +0.000 C 
ATOM     22  C   UNL     1       2.816   3.476  19.311  0.00  0.00    +0.000 A 
ENDBRANCH  15  16
ENDBRANCH   5  15
TORSDOF 6
ENDMDL
MODEL 8
REMARK VINA RESULT:      -7.5      0.940      1.458
REMARK  Name = 
REMARK  9 active torsions:
REMARK  status: ('A' for Active; 'I' for Inactive)
REMARK    1  A    between atoms: C_1  and  C_2
REMARK    2  A    between atoms: C_2  and  C_3
REMARK    3  A    between atoms: C_4  and  C_5
REMARK    4  A    between atoms: C_5  and  S_6
REMARK    5  A    between atoms: S_6  and  C_7
REMARK    6  A    between atoms: C_9  and  O_10
REMARK    7  A    between atoms: C_12  and  C_13
REMARK    8  A    between atoms: C_13  and  C_14
REMARK    9  A    between atoms: C_18  and  C_19
REMARK                            x       y       z     vdW  Elec       q    Type
REMARK                         _______ _______ _______ _____ _____    ______ ____
ROOT
ATOM      1  C   UNL     1       6.405   5.175  15.822  0.00  0.00    +0.000 A 
ATOM      2  N   UNL     1       7.528   4.663  16.342  0.00  0.00    +0.000 NA
ATOM      3  C   UNL     1       7.506   4.473  17.659  0.00  0.00    +0.000 A 
ATOM      4  C   UNL     1       6.458   4.762  18.492  0.00  0.00    +0.000 A 
ATOM      5  C   UNL     1       5.360   5.323  17.877  0.00  0.00    +0.000 A 
ATOM      6  N   UNL     1       5.318   5.524  16.538  0.00  0.00    +0.000 NA
ENDROOT
BRANCH   3   7
ATOM      7  O   UNL     1       8.667   3.989  18.168  0.00  0.00    +0.000 OA
ATOM      8  H   UNL     1       9.317   4.512  17.665  0.00  0.00    +0.000 HD
ENDBRANCH   3   7
BRANCH   1   9
ATOM      9  S   UNL     1       6.330   5.444  14.062  0.00  0.00    +0.000 S 
BRANCH   9  10
ATOM     10  C   UNL     1       6.032   3.739  13.508  0.00  0.00    +0.000 C 
BRANCH  10  14
ATOM     11  C   UNL     1       3.589   2.951  10.559  0.00  0.00    +0.000 C 
ATOM     12  C   UNL     1       4.757   2.825  11.500  0.00  0.00    +0.000 C 
ATOM     13  C   UNL     1       5.714   1.693  11.252  0.00  0.00    +0.000 C 
ATOM     14  C   UNL     1       4.909   3.707  12.510  0.00  0.00    +0.000 C 
ENDBRANCH  10  14
ENDBRANCH   9  10
ENDBRANCH   1   9
BRANCH   5  15
ATOM     15  C   UNL     1       4.184   5.800  18.705  0.00  0.00    +0.000 C 
BRANCH  15  16
ATOM     16  C   UNL     1       3.069   4.796  18.893  0.00  0.00    +0.000 A 
ATOM     17  C   UNL     1       2.223   4.466  17.826  0.00  0.00    +0.000 A 
ATOM     18  C   UNL     1       1.168   3.571  18.007  0.00  0.00    +0.000 A 
ATOM     19  C   UNL     1       0.944   2.992  19.257  0.00  0.00    +0.000 A 
ATOM     20  C   UNL     1       1.770   3.311  20.339  0.00  0.00    +0.000 A 
ATOM     21  C   UNL     1       1.549   2.682  21.684  0.00  0.00    +0.000 C 
ATOM     22  C   UNL     1       2.825   4.218  20.151  0.00  0.00    +0.000 A 
ENDBRANCH  15  16
ENDBRANCH   5  15
TORSDOF 6
ENDMDL
MODEL 9
REMARK VINA RESULT:      -7.5      4.266      6.709
REMARK  Name = 
REMARK  9 active torsions:
REMARK  status: ('A' for Active; 'I' for Inactive)
REMARK    1  A    between atoms: C_1  and  C_2
REMARK    2  A    between atoms: C_2  and  C_3
REMARK    3  A    between atoms: C_4  and  C_5
REMARK    4  A    between atoms: C_5  and  S_6
REMARK    5  A    between atoms: S_6  and  C_7
REMARK    6  A    between atoms: C_9  and  O_10
REMARK    7  A    between atoms: C_12  and  C_13
REMARK    8  A    between atoms: C_13  and  C_14
REMARK    9  A    between atoms: C_18  and  C_19
REMARK                            x       y       z     vdW  Elec       q    Type
REMARK                         _______ _______ _______ _____ _____    ______ ____
ROOT
ATOM      1  C   UNL     1       7.912   8.009  17.949  0.00  0.00    +0.000 A 
ATOM      2  N   UNL     1       8.446   7.308  18.958  0.00  0.00    +0.000 NA
ATOM      3  C   UNL     1       8.059   6.037  19.031  0.00  0.00    +0.000 A 
ATOM      4  C   UNL     1       7.178   5.419  18.185  0.00  0.00    +0.000 A 
ATOM      5  C   UNL     1       6.646   6.226  17.203  0.00  0.00    +0.000 A 
ATOM      6  N   UNL     1       7.016   7.523  17.068  0.00  0.00    +0.000 NA
ENDROOT
BRANCH   3   7
ATOM      7  O   UNL     1       8.586   5.359  20.082  0.00  0.00    +0.000 OA
ATOM      8  H   UNL     1       8.104   5.770  20.823  0.00  0.00    +0.000 HD
ENDBRANCH   3   7
BRANCH   1   9
ATOM      9  S   UNL     1       8.388   9.716  17.755  0.00  0.00    +0.000 S 
BRANCH   9  10
ATOM     10  C   UNL     1       9.382   9.925  19.262  0.00  0.00    +0.000 C 
BRANCH  10  14
ATOM     11  C   UNL     1      10.541  13.564  20.099  0.00  0.00    +0.000 C 
ATOM     12  C   UNL     1      10.608  12.118  19.686  0.00  0.00    +0.000 C 
ATOM     13  C   UNL     1      11.967  11.565  19.361  0.00  0.00    +0.000 C 
ATOM     14  C   UNL     1       9.480  11.381  19.621  0.00  0.00    +0.000 C 
ENDBRANCH  10  14
ENDBRANCH   9  10
ENDBRANCH   1   9
BRANCH   5  15
ATOM     15  C   UNL     1       5.569   5.695  16.280  0.00  0.00    +0.000 C 
BRANCH  15  16
ATOM     16  C   UNL     1       4.283   5.272  16.954  0.00  0.00    +0.000 A 
ATOM     17  C   UNL     1       3.464   6.221  17.578  0.00  0.00    +0.000 A 
ATOM     18  C   UNL     1       2.297   5.829  18.236  0.00  0.00    +0.000 A 
ATOM     19  C   UNL     1       1.933   4.483  18.278  0.00  0.00    +0.000 A 
ATOM     20  C   UNL     1       2.738   3.515  17.669  0.00  0.00    +0.000 A 
ATOM     21  C   UNL     1       2.347   2.067  17.693  0.00  0.00    +0.000 C 
ATOM     22  C   UNL     1       3.914   3.916  17.015  0.00  0.00    +0.000 A 
ENDBRANCH  15  16
ENDBRANCH   5  15
TORSDOF 6
ENDMDL
