MODEL 1
REMARK VINA RESULT:      -7.0      0.000      0.000
REMARK  Name = 
REMARK  4 active torsions:
REMARK  status: ('A' for Active; 'I' for Inactive)
REMARK    1  A    between atoms: C_1  and  C_2
REMARK    2  A    between atoms: N_6  and  N_7
REMARK    3  A    between atoms: C_8  and  C_9
REMARK    4  A    between atoms: N_14  and  C_15
REMARK                            x       y       z     vdW  Elec       q    Type
REMARK                         _______ _______ _______ _____ _____    ______ ____
ROOT
ATOM      1  C   UNL     1       4.382   2.227  19.892  0.00  0.00    +0.000 C 
ATOM      2  C   UNL     1       3.600   3.499  19.774  0.00  0.00    +0.000 A 
ATOM      3  C   UNL     1       2.574   3.747  20.610  0.00  0.00    +0.000 A 
ATOM      4  S   UNL     1       1.915   5.335  20.404  0.00  0.00    +0.000 S 
ATOM      5  C   UNL     1       3.106   5.706  19.104  0.00  0.00    +0.000 A 
ATOM      6  N   UNL     1       3.145   6.855  18.488  0.00  0.00    +0.000 NA
ATOM      7  N   UNL     1       3.918   4.568  18.899  0.00  0.00    +0.000 N 
ENDROOT
BRANCH   7   8
ATOM      8  C   UNL     1       4.916   4.546  17.871  0.00  0.00    +0.000 A 
ATOM      9  C   UNL     1       4.603   4.166  16.550  0.00  0.00    +0.000 A 
ATOM     10  C   UNL     1       5.580   4.085  15.550  0.00  0.00    +0.000 A 
ATOM     11  C   UNL     1       6.896   4.420  15.835  0.00  0.00    +0.000 A 
ATOM     12  C   UNL     1       7.238   4.814  17.121  0.00  0.00    +0.000 A 
ATOM     13  C   UNL     1       6.263   4.853  18.126  0.00  0.00    +0.000 A 
ENDBRANCH   7   8
BRANCH   6  14
ATOM     14  N   UNL     1       2.234   7.810  18.919  0.00  0.00    +0.000 NA
ATOM     15  C   UNL     1       1.903   8.614  17.960  0.00  0.00    +0.000 C 
BRANCH  15  16
ATOM     16  C   UNL     1       0.945   9.665  18.202  0.00  0.00    +0.000 A 
ATOM     17  C   UNL     1      -0.402   9.673  17.911  0.00  0.00    +0.000 A 
ATOM     18  C   UNL     1      -1.021  10.909  18.255  0.00  0.00    +0.000 A 
ATOM     19  C   UNL     1      -0.124  11.794  18.808  0.00  0.00    +0.000 A 
ATOM     20  S   UNL     1       1.448  11.126  18.928  0.00  0.00    +0.000 S 
ENDBRANCH  15  16
ENDBRANCH   6  14
TORSDOF 3
ENDMDL
MODEL 2
REMARK VINA RESULT:      -7.0      1.828      1.896
REMARK  Name = 
REMARK  4 active torsions:
REMARK  status: ('A' for Active; 'I' for Inactive)
REMARK    1  A    between atoms: C_1  and  C_2
REMARK    2  A    between atoms: N_6  and  N_7
REMARK    3  A    between atoms: C_8  and  C_9
REMARK    4  A    between atoms: N_14  and  C_15
REMARK                            x       y       z     vdW  Elec       q    Type
REMARK                         _______ _______ _______ _____ _____    ______ ____
ROOT
ATOM      1  C   UNL     1       3.675   1.360  18.557  0.00  0.00    +0.000 C 
ATOM      2  C   UNL     1       2.978   2.602  19.024  0.00  0.00    +0.000 A 
ATOM      3  C   UNL     1       1.870   2.516  19.783  0.00  0.00    +0.000 A 
ATOM      4  S   UNL     1       1.323   4.061  20.341  0.00  0.00    +0.000 S 
ATOM      5  C   UNL     1       2.683   4.892  19.503  0.00  0.00    +0.000 A 
ATOM      6  N   UNL     1       2.856   6.184  19.546  0.00  0.00    +0.000 NA
ATOM      7  N   UNL     1       3.456   3.921  18.826  0.00  0.00    +0.000 N 
ENDROOT
BRANCH   7   8
ATOM      8  C   UNL     1       4.572   4.300  18.011  0.00  0.00    +0.000 A 
ATOM      9  C   UNL     1       4.445   4.452  16.615  0.00  0.00    +0.000 A 
ATOM     10  C   UNL     1       5.539   4.765  15.800  0.00  0.00    +0.000 A 
ATOM     11  C   UNL     1       6.790   4.973  16.365  0.00  0.00    +0.000 A 
ATOM     12  C   UNL     1       6.949   4.848  17.738  0.00  0.00    +0.000 A 
ATOM     13  C   UNL     1       5.858   4.493  18.542  0.00  0.00    +0.000 A 
ENDBRANCH   7   8
BRANCH   6  14
ATOM     14  N   UNL     1       1.948   6.896  20.318  0.00  0.00    +0.000 NA
ATOM     15  C   UNL     1       1.887   8.137  19.951  0.00  0.00    +0.000 C 
BRANCH  15  16
ATOM     16  C   UNL     1       0.980   9.038  20.617  0.00  0.00    +0.000 A 
ATOM     17  C   UNL     1       0.548   9.000  21.926  0.00  0.00    +0.000 A 
ATOM     18  C   UNL     1      -0.387  10.034  22.216  0.00  0.00    +0.000 A 
ATOM     19  C   UNL     1      -0.622  10.833  21.121  0.00  0.00    +0.000 A 
ATOM     20  S   UNL     1       0.294  10.346  19.760  0.00  0.00    +0.000 S 
ENDBRANCH  15  16
ENDBRANCH   6  14
TORSDOF 3
ENDMDL
MODEL 3
REMARK VINA RESULT:      -6.9      1.777      2.119
REMARK  Name = 
REMARK  4 active torsions:
REMARK  status: ('A' for Active; 'I' for Inactive)
REMARK    1  A    between atoms: C_1  and  C_2
REMARK    2  A    between atoms: N_6  and  N_7
REMARK    3  A    between atoms: C_8  and  C_9
REMARK    4  A    between atoms: N_14  and  C_15
REMARK                            x       y       z     vdW  Elec       q    Type
REMARK                         _______ _______ _______ _____ _____    ______ ____
ROOT
ATOM      1  C   UNL     1       3.693   1.297  18.567  0.00  0.00    +0.000 C 
ATOM      2  C   UNL     1       3.030   2.555  19.040  0.00  0.00    +0.000 A 
ATOM      3  C   UNL     1       1.942   2.496  19.830  0.00  0.00    +0.000 A 
ATOM      4  S   UNL     1       1.436   4.056  20.386  0.00  0.00    +0.000 S 
ATOM      5  C   UNL     1       2.787   4.855  19.503  0.00  0.00    +0.000 A 
ATOM      6  N   UNL     1       2.983   6.144  19.529  0.00  0.00    +0.000 NA
ATOM      7  N   UNL     1       3.525   3.865  18.816  0.00  0.00    +0.000 N 
ENDROOT
BRANCH   7   8
ATOM      8  C   UNL     1       4.625   4.216  17.967  0.00  0.00    +0.000 A 
ATOM      9  C   UNL     1       5.916   4.433  18.489  0.00  0.00    +0.000 A 
ATOM     10  C   UNL     1       6.986   4.833  17.680  0.00  0.00    +0.000 A 
ATOM     11  C   UNL     1       6.803   4.990  16.314  0.00  0.00    +0.000 A 
ATOM     12  C   UNL     1       5.549   4.769  15.761  0.00  0.00    +0.000 A 
ATOM     13  C   UNL     1       4.474   4.410  16.584  0.00  0.00    +0.000 A 
ENDBRANCH   7   8
BRANCH   6  14
ATOM     14  N   UNL     1       2.109   6.879  20.318  0.00  0.00    +0.000 NA
ATOM     15  C   UNL     1       1.925   8.068  19.838  0.00  0.00    +0.000 C 
BRANCH  15  16
ATOM     16  C   UNL     1       1.028   8.980  20.503  0.00  0.00    +0.000 A 
ATOM     17  C   UNL     1       0.560   8.923  21.799  0.00  0.00    +0.000 A 
ATOM     18  C   UNL     1      -0.350   9.977  22.091  0.00  0.00    +0.000 A 
ATOM     19  C   UNL     1      -0.534  10.809  21.011  0.00  0.00    +0.000 A 
ATOM     20  S   UNL     1       0.403  10.327  19.661  0.00  0.00    +0.000 S 
ENDBRANCH  15  16
ENDBRANCH   6  14
TORSDOF 3
ENDMDL
MODEL 4
REMARK VINA RESULT:      -6.9      1.340      1.737
REMARK  Name = 
REMARK  4 active torsions:
REMARK  status: ('A' for Active; 'I' for Inactive)
REMARK    1  A    between atoms: C_1  and  C_2
REMARK    2  A    between atoms: N_6  and  N_7
REMARK    3  A    between atoms: C_8  and  C_9
REMARK    4  A    between atoms: N_14  and  C_15
REMARK                            x       y       z     vdW  Elec       q    Type
REMARK                         _______ _______ _______ _____ _____    ______ ____
ROOT
ATOM      1  C   UNL     1       3.694   1.365  18.565  0.00  0.00    +0.000 C 
ATOM      2  C   UNL     1       3.074   2.684  18.911  0.00  0.00    +0.000 A 
ATOM      3  C   UNL     1       1.976   2.736  19.687  0.00  0.00    +0.000 A 
ATOM      4  S   UNL     1       1.522   4.358  20.092  0.00  0.00    +0.000 S 
ATOM      5  C   UNL     1       2.912   5.024  19.160  0.00  0.00    +0.000 A 
ATOM      6  N   UNL     1       3.157   6.302  19.072  0.00  0.00    +0.000 NA
ATOM      7  N   UNL     1       3.620   3.948  18.577  0.00  0.00    +0.000 N 
ENDROOT
BRANCH   7   8
ATOM      8  C   UNL     1       4.742   4.180  17.716  0.00  0.00    +0.000 A 
ATOM      9  C   UNL     1       6.032   4.412  18.235  0.00  0.00    +0.000 A 
ATOM     10  C   UNL     1       7.125   4.697  17.409  0.00  0.00    +0.000 A 
ATOM     11  C   UNL     1       6.966   4.721  16.030  0.00  0.00    +0.000 A 
ATOM     12  C   UNL     1       5.714   4.481  15.482  0.00  0.00    +0.000 A 
ATOM     13  C   UNL     1       4.616   4.238  16.318  0.00  0.00    +0.000 A 
ENDBRANCH   7   8
BRANCH   6  14
ATOM     14  N   UNL     1       2.302   7.137  19.777  0.00  0.00    +0.000 NA
ATOM     15  C   UNL     1       2.002   8.195  19.093  0.00  0.00    +0.000 C 
BRANCH  15  16
ATOM     16  C   UNL     1       1.103   9.177  19.645  0.00  0.00    +0.000 A 
ATOM     17  C   UNL     1       0.456  10.203  18.990  0.00  0.00    +0.000 A 
ATOM     18  C   UNL     1      -0.319  11.004  19.876  0.00  0.00    +0.000 A 
ATOM     19  C   UNL     1      -0.246  10.551  21.173  0.00  0.00    +0.000 A 
ATOM     20  S   UNL     1       0.738   9.157  21.313  0.00  0.00    +0.000 S 
ENDBRANCH  15  16
ENDBRANCH   6  14
TORSDOF 3
ENDMDL
MODEL 5
REMARK VINA RESULT:      -6.8      1.170      1.220
REMARK  Name = 
REMARK  4 active torsions:
REMARK  status: ('A' for Active; 'I' for Inactive)
REMARK    1  A    between atoms: C_1  and  C_2
REMARK    2  A    between atoms: N_6  and  N_7
REMARK    3  A    between atoms: C_8  and  C_9
REMARK    4  A    between atoms: N_14  and  C_15
REMARK                            x       y       z     vdW  Elec       q    Type
REMARK                         _______ _______ _______ _____ _____    ______ ____
ROOT
ATOM      1  C   UNL     1       3.940   1.501  18.634  0.00  0.00    +0.000 C 
ATOM      2  C   UNL     1       3.264   2.808  18.918  0.00  0.00    +0.000 A 
ATOM      3  C   UNL     1       2.184   2.856  19.719  0.00  0.00    +0.000 A 
ATOM      4  S   UNL     1       1.661   4.476  20.038  0.00  0.00    +0.000 S 
ATOM      5  C   UNL     1       2.995   5.148  19.031  0.00  0.00    +0.000 A 
ATOM      6  N   UNL     1       3.174   6.429  18.860  0.00  0.00    +0.000 NA
ATOM      7  N   UNL     1       3.740   4.074  18.494  0.00  0.00    +0.000 N 
ENDROOT
BRANCH   7   8
ATOM      8  C   UNL     1       4.828   4.306  17.591  0.00  0.00    +0.000 A 
ATOM      9  C   UNL     1       4.640   4.293  16.194  0.00  0.00    +0.000 A 
ATOM     10  C   UNL     1       5.704   4.461  15.300  0.00  0.00    +0.000 A 
ATOM     11  C   UNL     1       6.986   4.686  15.780  0.00  0.00    +0.000 A 
ATOM     12  C   UNL     1       7.207   4.721  17.150  0.00  0.00    +0.000 A 
ATOM     13  C   UNL     1       6.144   4.511  18.038  0.00  0.00    +0.000 A 
ENDBRANCH   7   8
BRANCH   6  14
ATOM     14  N   UNL     1       2.296   7.264  19.537  0.00  0.00    +0.000 NA
ATOM     15  C   UNL     1       2.010   8.316  18.838  0.00  0.00    +0.000 C 
BRANCH  15  16
ATOM     16  C   UNL     1       1.092   9.298  19.360  0.00  0.00    +0.000 A 
ATOM     17  C   UNL     1       0.547  10.385  18.711  0.00  0.00    +0.000 A 
ATOM     18  C   UNL     1      -0.287  11.160  19.565  0.00  0.00    +0.000 A 
ATOM     19  C   UNL     1      -0.359  10.629  20.831  0.00  0.00    +0.000 A 
ATOM     20  S   UNL     1       0.561   9.192  20.979  0.00  0.00    +0.000 S 
ENDBRANCH  15  16
ENDBRANCH   6  14
TORSDOF 3
ENDMDL
MODEL 6
REMARK VINA RESULT:      -6.8      0.364      1.130
REMARK  Name = 
REMARK  4 active torsions:
REMARK  status: ('A' for Active; 'I' for Inactive)
REMARK    1  A    between atoms: C_1  and  C_2
REMARK    2  A    between atoms: N_6  and  N_7
REMARK    3  A    between atoms: C_8  and  C_9
REMARK    4  A    between atoms: N_14  and  C_15
REMARK                            x       y       z     vdW  Elec       q    Type
REMARK                         _______ _______ _______ _____ _____    ______ ____
ROOT
ATOM      1  C   UNL     1       4.383   2.230  20.003  0.00  0.00    +0.000 C 
ATOM      2  C   UNL     1       3.592   3.492  19.838  0.00  0.00    +0.000 A 
ATOM      3  C   UNL     1       2.557   3.757  20.656  0.00  0.00    +0.000 A 
ATOM      4  S   UNL     1       1.887   5.333  20.394  0.00  0.00    +0.000 S 
ATOM      5  C   UNL     1       3.087   5.672  19.095  0.00  0.00    +0.000 A 
ATOM      6  N   UNL     1       3.123   6.802  18.444  0.00  0.00    +0.000 NA
ATOM      7  N   UNL     1       3.910   4.535  18.933  0.00  0.00    +0.000 N 
ENDROOT
BRANCH   7   8
ATOM      8  C   UNL     1       4.918   4.489  17.915  0.00  0.00    +0.000 A 
ATOM      9  C   UNL     1       6.251   4.861  18.183  0.00  0.00    +0.000 A 
ATOM     10  C   UNL     1       7.233   4.876  17.186  0.00  0.00    +0.000 A 
ATOM     11  C   UNL     1       6.916   4.481  15.893  0.00  0.00    +0.000 A 
ATOM     12  C   UNL     1       5.617   4.093  15.595  0.00  0.00    +0.000 A 
ATOM     13  C   UNL     1       4.631   4.120  16.590  0.00  0.00    +0.000 A 
ENDBRANCH   7   8
BRANCH   6  14
ATOM     14  N   UNL     1       2.201   7.762  18.836  0.00  0.00    +0.000 NA
ATOM     15  C   UNL     1       2.273   8.819  18.091  0.00  0.00    +0.000 C 
BRANCH  15  16
ATOM     16  C   UNL     1       1.377   9.924  18.325  0.00  0.00    +0.000 A 
ATOM     17  C   UNL     1       0.005   9.897  18.457  0.00  0.00    +0.000 A 
ATOM     18  C   UNL     1      -0.546  11.197  18.634  0.00  0.00    +0.000 A 
ATOM     19  C   UNL     1       0.427  12.169  18.644  0.00  0.00    +0.000 A 
ATOM     20  S   UNL     1       1.997  11.510  18.459  0.00  0.00    +0.000 S 
ENDBRANCH  15  16
ENDBRANCH   6  14
TORSDOF 3
ENDMDL
MODEL 7
REMARK VINA RESULT:      -6.8      1.066      1.181
REMARK  Name = 
REMARK  4 active torsions:
REMARK  status: ('A' for Active; 'I' for Inactive)
REMARK    1  A    between atoms: C_1  and  C_2
REMARK    2  A    between atoms: N_6  and  N_7
REMARK    3  A    between atoms: C_8  and  C_9
REMARK    4  A    between atoms: N_14  and  C_15
REMARK                            x       y       z     vdW  Elec       q    Type
REMARK                         _______ _______ _______ _____ _____    ______ ____
ROOT
ATOM      1  C   UNL     1       4.391   1.766  19.732  0.00  0.00    +0.000 C 
ATOM      2  C   UNL     1       3.606   3.037  19.850  0.00  0.00    +0.000 A 
ATOM      3  C   UNL     1       2.606   3.138  20.745  0.00  0.00    +0.000 A 
ATOM      4  S   UNL     1       1.942   4.736  20.825  0.00  0.00    +0.000 S 
ATOM      5  C   UNL     1       3.094   5.322  19.570  0.00  0.00    +0.000 A 
ATOM      6  N   UNL     1       3.115   6.558  19.153  0.00  0.00    +0.000 NA
ATOM      7  N   UNL     1       3.898   4.237  19.155  0.00  0.00    +0.000 N 
ENDROOT
BRANCH   7   8
ATOM      8  C   UNL     1       4.865   4.390  18.108  0.00  0.00    +0.000 A 
ATOM      9  C   UNL     1       4.531   4.159  16.759  0.00  0.00    +0.000 A 
ATOM     10  C   UNL     1       5.479   4.249  15.732  0.00  0.00    +0.000 A 
ATOM     11  C   UNL     1       6.787   4.611  16.025  0.00  0.00    +0.000 A 
ATOM     12  C   UNL     1       7.149   4.862  17.341  0.00  0.00    +0.000 A 
ATOM     13  C   UNL     1       6.204   4.730  18.367  0.00  0.00    +0.000 A 
ENDBRANCH   7   8
BRANCH   6  14
ATOM     14  N   UNL     1       2.219   7.424  19.763  0.00  0.00    +0.000 NA
ATOM     15  C   UNL     1       1.927   8.423  18.992  0.00  0.00    +0.000 C 
BRANCH  15  16
ATOM     16  C   UNL     1       0.990   9.424  19.438  0.00  0.00    +0.000 A 
ATOM     17  C   UNL     1       0.801   9.906  20.715  0.00  0.00    +0.000 A 
ATOM     18  C   UNL     1      -0.252  10.862  20.781  0.00  0.00    +0.000 A 
ATOM     19  C   UNL     1      -0.818  11.085  19.547  0.00  0.00    +0.000 A 
ATOM     20  S   UNL     1      -0.069  10.158  18.318  0.00  0.00    +0.000 S 
ENDBRANCH  15  16
ENDBRANCH   6  14
TORSDOF 3
ENDMDL
MODEL 8
REMARK VINA RESULT:      -6.5      1.893      1.948
REMARK  Name = 
REMARK  4 active torsions:
REMARK  status: ('A' for Active; 'I' for Inactive)
REMARK    1  A    between atoms: C_1  and  C_2
REMARK    2  A    between atoms: N_6  and  N_7
REMARK    3  A    between atoms: C_8  and  C_9
REMARK    4  A    between atoms: N_14  and  C_15
REMARK                            x       y       z     vdW  Elec       q    Type
REMARK                         _______ _______ _______ _____ _____    ______ ____
ROOT
ATOM      1  C   UNL     1       3.787   1.737  18.844  0.00  0.00    +0.000 C 
ATOM      2  C   UNL     1       2.993   2.944  19.243  0.00  0.00    +0.000 A 
ATOM      3  C   UNL     1       1.857   2.807  19.952  0.00  0.00    +0.000 A 
ATOM      4  S   UNL     1       1.189   4.329  20.440  0.00  0.00    +0.000 S 
ATOM      5  C   UNL     1       2.535   5.222  19.645  0.00  0.00    +0.000 A 
ATOM      6  N   UNL     1       2.627   6.523  19.661  0.00  0.00    +0.000 NA
ATOM      7  N   UNL     1       3.398   4.286  19.032  0.00  0.00    +0.000 N 
ENDROOT
BRANCH   7   8
ATOM      8  C   UNL     1       4.528   4.713  18.260  0.00  0.00    +0.000 A 
ATOM      9  C   UNL     1       4.438   4.896  16.866  0.00  0.00    +0.000 A 
ATOM     10  C   UNL     1       5.547   5.258  16.091  0.00  0.00    +0.000 A 
ATOM     11  C   UNL     1       6.774   5.485  16.699  0.00  0.00    +0.000 A 
ATOM     12  C   UNL     1       6.896   5.330  18.073  0.00  0.00    +0.000 A 
ATOM     13  C   UNL     1       5.792   4.927  18.835  0.00  0.00    +0.000 A 
ENDBRANCH   7   8
BRANCH   6  14
ATOM     14  N   UNL     1       1.640   7.196  20.369  0.00  0.00    +0.000 NA
ATOM     15  C   UNL     1       1.722   8.477  20.194  0.00  0.00    +0.000 C 
BRANCH  15  16
ATOM     16  C   UNL     1       0.768   9.350  20.829  0.00  0.00    +0.000 A 
ATOM     17  C   UNL     1      -0.172  10.164  20.233  0.00  0.00    +0.000 A 
ATOM     18  C   UNL     1      -0.911  10.922  21.184  0.00  0.00    +0.000 A 
ATOM     19  C   UNL     1      -0.518  10.649  22.473  0.00  0.00    +0.000 A 
ATOM     20  S   UNL     1       0.723   9.471  22.532  0.00  0.00    +0.000 S 
ENDBRANCH  15  16
ENDBRANCH   6  14
TORSDOF 3
ENDMDL
MODEL 9
REMARK VINA RESULT:      -6.4      2.894      6.910
REMARK  Name = 
REMARK  4 active torsions:
REMARK  status: ('A' for Active; 'I' for Inactive)
REMARK    1  A    between atoms: C_1  and  C_2
REMARK    2  A    between atoms: N_6  and  N_7
REMARK    3  A    between atoms: C_8  and  C_9
REMARK    4  A    between atoms: N_14  and  C_15
REMARK                            x       y       z     vdW  Elec       q    Type
REMARK                         _______ _______ _______ _____ _____    ______ ____
ROOT
ATOM      1  C   UNL     1       1.712   7.732  19.758  0.00  0.00    +0.000 C 
ATOM      2  C   UNL     1       2.663   7.145  18.761  0.00  0.00    +0.000 A 
ATOM      3  C   UNL     1       3.326   7.942  17.902  0.00  0.00    +0.000 A 
ATOM      4  S   UNL     1       4.487   7.078  16.951  0.00  0.00    +0.000 S 
ATOM      5  C   UNL     1       4.065   5.529  17.768  0.00  0.00    +0.000 A 
ATOM      6  N   UNL     1       4.647   4.398  17.481  0.00  0.00    +0.000 NA
ATOM      7  N   UNL     1       3.036   5.779  18.704  0.00  0.00    +0.000 N 
ENDROOT
BRANCH   7   8
ATOM      8  C   UNL     1       2.447   4.712  19.458  0.00  0.00    +0.000 A 
ATOM      9  C   UNL     1       1.442   3.891  18.909  0.00  0.00    +0.000 A 
ATOM     10  C   UNL     1       0.816   2.884  19.653  0.00  0.00    +0.000 A 
ATOM     11  C   UNL     1       1.208   2.643  20.963  0.00  0.00    +0.000 A 
ATOM     12  C   UNL     1       2.207   3.421  21.532  0.00  0.00    +0.000 A 
ATOM     13  C   UNL     1       2.798   4.455  20.794  0.00  0.00    +0.000 A 
ENDBRANCH   7   8
BRANCH   6  14
ATOM     14  N   UNL     1       5.655   4.454  16.528  0.00  0.00    +0.000 NA
ATOM     15  C   UNL     1       5.184   4.297  15.332  0.00  0.00    +0.000 C 
BRANCH  15  16
ATOM     16  C   UNL     1       6.072   4.347  14.198  0.00  0.00    +0.000 A 
ATOM     17  C   UNL     1       7.236   5.073  14.058  0.00  0.00    +0.000 A 
ATOM     18  C   UNL     1       7.824   4.907  12.772  0.00  0.00    +0.000 A 
ATOM     19  C   UNL     1       7.095   4.048  11.983  0.00  0.00    +0.000 A 
ATOM     20  S   UNL     1       5.720   3.435  12.798  0.00  0.00    +0.000 S 
ENDBRANCH  15  16
ENDBRANCH   6  14
TORSDOF 3
ENDMDL
