MODEL 1
REMARK VINA RESULT:      -9.2      0.000      0.000
REMARK  Name = 
REMARK  8 active torsions:
REMARK  status: ('A' for Active; 'I' for Inactive)
REMARK    1  A    between atoms: C_1  and  C_2
REMARK    2  A    between atoms: C_5  and  C_6
REMARK    3  A    between atoms: C_6  and  C_8
REMARK    4  A    between atoms: C_12  and  C_13
REMARK    5  A    between atoms: N_21  and  C_22
REMARK    6  A    between atoms: C_22  and  C_23
REMARK    7  A    between atoms: C_23  and  C_24
REMARK    8  A    between atoms: C_24  and  N_25
REMARK                            x       y       z     vdW  Elec       q    Type
REMARK                         _______ _______ _______ _____ _____    ______ ____
ROOT
ATOM      1  C   UNL     1       6.056   6.092  16.868  0.00  0.00    +0.000 A 
ATOM      2  C   UNL     1       4.847   5.936  17.571  0.00  0.00    +0.000 A 
ATOM      3  C   UNL     1       3.773   6.837  17.571  0.00  0.00    +0.000 A 
ATOM      4  C   UNL     1       2.886   6.572  18.650  0.00  0.00    +0.000 A 
ATOM      5  C   UNL     1       3.031   5.480  19.598  0.00  0.00    +0.000 A 
ATOM      6  C   UNL     1       4.226   4.714  19.704  0.00  0.00    +0.000 A 
ATOM      7  C   UNL     1       5.159   5.175  18.789  0.00  0.00    +0.000 A 
ATOM      8  N   UNL     1       6.454   5.586  19.039  0.00  0.00    +0.000 N 
ATOM      9  O   UNL     1       7.174   5.490  20.072  0.00  0.00    +0.000 OA
ATOM     10  N   UNL     1       6.775   6.496  18.006  0.00  0.00    +0.000 N 
ENDROOT
BRANCH   5  11
ATOM     11  C   UNL     1       1.882   5.164  20.542  0.00  0.00    +0.000 C 
ATOM     12  F   UNL     1       0.958   4.320  20.008  0.00  0.00    +0.000 F 
ATOM     13  F   UNL     1       2.318   4.565  21.685  0.00  0.00    +0.000 F 
ATOM     14  F   UNL     1       1.194   6.270  20.938  0.00  0.00    +0.000 F 
ENDBRANCH   5  11
BRANCH   1  15
ATOM     15  C   UNL     1       6.859   5.195  15.997  0.00  0.00    +0.000 C 
ATOM     16  O   UNL     1       7.899   4.698  16.452  0.00  0.00    +0.000 OA
BRANCH  15  21
ATOM     17  C   UNL     1       5.851   2.302  11.216  0.00  0.00    +0.000 C 
ATOM     18  C   UNL     1       6.003   3.352  12.274  0.00  0.00    +0.000 A 
ATOM     19  C   UNL     1       5.001   3.504  13.231  0.00  0.00    +0.000 A 
ATOM     20  C   UNL     1       5.271   4.231  14.384  0.00  0.00    +0.000 A 
ATOM     21  C   UNL     1       6.548   4.791  14.609  0.00  0.00    +0.000 A 
ATOM     22  C   UNL     1       7.470   4.806  13.568  0.00  0.00    +0.000 A 
ATOM     23  C   UNL     1       7.195   4.079  12.405  0.00  0.00    +0.000 A 
ENDBRANCH  15  21
ENDBRANCH   1  15
BRANCH  10  24
ATOM     24  C   UNL     1       7.950   7.340  17.919  0.00  0.00    +0.000 C 
BRANCH  24  25
ATOM     25  C   UNL     1       7.711   8.841  17.796  0.00  0.00    +0.000 C 
BRANCH  25  26
ATOM     26  C   UNL     1       8.890   9.736  18.148  0.00  0.00    +0.000 C 
BRANCH  26  27
ATOM     27  N   UNL     1       9.172   9.714  19.575  0.00  0.00    +0.000 NA
ATOM     28  H   UNL     1       9.760  10.530  19.797  0.00  0.00    +0.000 HD
ATOM     29  H   UNL     1       9.771   8.917  19.786  0.00  0.00    +0.000 HD
ENDBRANCH  26  27
ENDBRANCH  25  26
ENDBRANCH  24  25
ENDBRANCH  10  24
TORSDOF 7
ENDMDL
MODEL 2
REMARK VINA RESULT:      -8.3      2.065      4.940
REMARK  Name = 
REMARK  8 active torsions:
REMARK  status: ('A' for Active; 'I' for Inactive)
REMARK    1  A    between atoms: C_1  and  C_2
REMARK    2  A    between atoms: C_5  and  C_6
REMARK    3  A    between atoms: C_6  and  C_8
REMARK    4  A    between atoms: C_12  and  C_13
REMARK    5  A    between atoms: N_21  and  C_22
REMARK    6  A    between atoms: C_22  and  C_23
REMARK    7  A    between atoms: C_23  and  C_24
REMARK    8  A    between atoms: C_24  and  N_25
REMARK                            x       y       z     vdW  Elec       q    Type
REMARK                         _______ _______ _______ _____ _____    ______ ____
ROOT
ATOM      1  C   UNL     1       5.783   4.378  17.217  0.00  0.00    +0.000 A 
ATOM      2  C   UNL     1       4.786   3.983  18.128  0.00  0.00    +0.000 A 
ATOM      3  C   UNL     1       4.112   2.754  18.129  0.00  0.00    +0.000 A 
ATOM      4  C   UNL     1       2.935   2.819  18.924  0.00  0.00    +0.000 A 
ATOM      5  C   UNL     1       2.507   3.981  19.685  0.00  0.00    +0.000 A 
ATOM      6  C   UNL     1       3.087   5.268  19.505  0.00  0.00    +0.000 A 
ATOM      7  C   UNL     1       4.074   5.204  18.533  0.00  0.00    +0.000 A 
ATOM      8  N   UNL     1       4.184   5.972  17.391  0.00  0.00    +0.000 N 
ATOM      9  O   UNL     1       3.566   7.009  17.021  0.00  0.00    +0.000 OA
ATOM     10  N   UNL     1       4.911   5.186  16.468  0.00  0.00    +0.000 N 
ENDROOT
BRANCH   5  11
ATOM     11  C   UNL     1       1.370   3.832  20.684  0.00  0.00    +0.000 C 
ATOM     12  F   UNL     1       1.791   3.521  21.941  0.00  0.00    +0.000 F 
ATOM     13  F   UNL     1       0.651   4.982  20.806  0.00  0.00    +0.000 F 
ATOM     14  F   UNL     1       0.476   2.866  20.339  0.00  0.00    +0.000 F 
ENDBRANCH   5  11
BRANCH   1  15
ATOM     15  C   UNL     1       7.122   5.004  17.370  0.00  0.00    +0.000 C 
ATOM     16  O   UNL     1       8.119   4.378  16.983  0.00  0.00    +0.000 OA
BRANCH  15  21
ATOM     17  C   UNL     1       9.301  10.127  18.488  0.00  0.00    +0.000 C 
ATOM     18  C   UNL     1       8.470   8.882  18.437  0.00  0.00    +0.000 A 
ATOM     19  C   UNL     1       7.555   8.715  17.398  0.00  0.00    +0.000 A 
ATOM     20  C   UNL     1       7.025   7.453  17.158  0.00  0.00    +0.000 A 
ATOM     21  C   UNL     1       7.421   6.339  17.931  0.00  0.00    +0.000 A 
ATOM     22  C   UNL     1       8.172   6.550  19.082  0.00  0.00    +0.000 A 
ATOM     23  C   UNL     1       8.700   7.822  19.326  0.00  0.00    +0.000 A 
ENDBRANCH  15  21
ENDBRANCH   1  15
BRANCH  10  24
ATOM     24  C   UNL     1       5.135   5.470  15.065  0.00  0.00    +0.000 C 
BRANCH  24  25
ATOM     25  C   UNL     1       5.501   4.288  14.173  0.00  0.00    +0.000 C 
BRANCH  25  26
ATOM     26  C   UNL     1       6.919   4.279  13.623  0.00  0.00    +0.000 C 
BRANCH  26  27
ATOM     27  N   UNL     1       7.644   5.487  13.991  0.00  0.00    +0.000 NA
ATOM     28  H   UNL     1       8.549   5.477  13.500  0.00  0.00    +0.000 HD
ATOM     29  H   UNL     1       7.900   5.436  14.977  0.00  0.00    +0.000 HD
ENDBRANCH  26  27
ENDBRANCH  25  26
ENDBRANCH  24  25
ENDBRANCH  10  24
TORSDOF 7
ENDMDL
MODEL 3
REMARK VINA RESULT:      -8.1      1.255      1.404
REMARK  Name = 
REMARK  8 active torsions:
REMARK  status: ('A' for Active; 'I' for Inactive)
REMARK    1  A    between atoms: C_1  and  C_2
REMARK    2  A    between atoms: C_5  and  C_6
REMARK    3  A    between atoms: C_6  and  C_8
REMARK    4  A    between atoms: C_12  and  C_13
REMARK    5  A    between atoms: N_21  and  C_22
REMARK    6  A    between atoms: C_22  and  C_23
REMARK    7  A    between atoms: C_23  and  C_24
REMARK    8  A    between atoms: C_24  and  N_25
REMARK                            x       y       z     vdW  Elec       q    Type
REMARK                         _______ _______ _______ _____ _____    ______ ____
ROOT
ATOM      1  C   UNL     1       5.428   5.337  16.621  0.00  0.00    +0.000 A 
ATOM      2  C   UNL     1       4.477   4.675  17.419  0.00  0.00    +0.000 A 
ATOM      3  C   UNL     1       3.097   4.919  17.427  0.00  0.00    +0.000 A 
ATOM      4  C   UNL     1       2.488   4.360  18.585  0.00  0.00    +0.000 A 
ATOM      5  C   UNL     1       3.183   3.588  19.600  0.00  0.00    +0.000 A 
ATOM      6  C   UNL     1       4.603   3.531  19.678  0.00  0.00    +0.000 A 
ATOM      7  C   UNL     1       5.158   4.298  18.666  0.00  0.00    +0.000 A 
ATOM      8  N   UNL     1       6.078   5.321  18.790  0.00  0.00    +0.000 N 
ATOM      9  O   UNL     1       6.774   5.701  19.773  0.00  0.00    +0.000 OA
ATOM     10  N   UNL     1       5.875   6.158  17.670  0.00  0.00    +0.000 N 
ENDROOT
BRANCH   5  11
ATOM     11  C   UNL     1       2.369   2.843  20.647  0.00  0.00    +0.000 C 
ATOM     12  F   UNL     1       1.690   1.775  20.146  0.00  0.00    +0.000 F 
ATOM     13  F   UNL     1       3.158   2.349  21.642  0.00  0.00    +0.000 F 
ATOM     14  F   UNL     1       1.439   3.625  21.260  0.00  0.00    +0.000 F 
ENDBRANCH   5  11
BRANCH   1  15
ATOM     15  C   UNL     1       6.552   4.872  15.766  0.00  0.00    +0.000 C 
ATOM     16  O   UNL     1       7.672   4.738  16.276  0.00  0.00    +0.000 OA
BRANCH  15  21
ATOM     17  C   UNL     1       6.780   2.217  10.751  0.00  0.00    +0.000 C 
ATOM     18  C   UNL     1       6.557   3.182  11.874  0.00  0.00    +0.000 A 
ATOM     19  C   UNL     1       5.461   3.005  12.718  0.00  0.00    +0.000 A 
ATOM     20  C   UNL     1       5.424   3.680  13.932  0.00  0.00    +0.000 A 
ATOM     21  C   UNL     1       6.489   4.517  14.331  0.00  0.00    +0.000 A 
ATOM     22  C   UNL     1       7.474   4.843  13.405  0.00  0.00    +0.000 A 
ATOM     23  C   UNL     1       7.507   4.168  12.181  0.00  0.00    +0.000 A 
ENDBRANCH  15  21
ENDBRANCH   1  15
BRANCH  10  24
ATOM     24  C   UNL     1       6.467   7.459  17.433  0.00  0.00    +0.000 C 
BRANCH  24  25
ATOM     25  C   UNL     1       7.872   7.686  17.982  0.00  0.00    +0.000 C 
BRANCH  25  26
ATOM     26  C   UNL     1       8.324   9.136  18.082  0.00  0.00    +0.000 C 
BRANCH  26  27
ATOM     27  N   UNL     1       9.160   9.356  19.254  0.00  0.00    +0.000 NA
ATOM     28  H   UNL     1       9.284   8.452  19.731  0.00  0.00    +0.000 HD
ATOM     29  H   UNL     1       8.645   9.921  19.930  0.00  0.00    +0.000 HD
ENDBRANCH  26  27
ENDBRANCH  25  26
ENDBRANCH  24  25
ENDBRANCH  10  24
TORSDOF 7
ENDMDL
MODEL 4
REMARK VINA RESULT:      -8.0      0.574      1.085
REMARK  Name = 
REMARK  8 active torsions:
REMARK  status: ('A' for Active; 'I' for Inactive)
REMARK    1  A    between atoms: C_1  and  C_2
REMARK    2  A    between atoms: C_5  and  C_6
REMARK    3  A    between atoms: C_6  and  C_8
REMARK    4  A    between atoms: C_12  and  C_13
REMARK    5  A    between atoms: N_21  and  C_22
REMARK    6  A    between atoms: C_22  and  C_23
REMARK    7  A    between atoms: C_23  and  C_24
REMARK    8  A    between atoms: C_24  and  N_25
REMARK                            x       y       z     vdW  Elec       q    Type
REMARK                         _______ _______ _______ _____ _____    ______ ____
ROOT
ATOM      1  C   UNL     1       6.043   6.519  16.907  0.00  0.00    +0.000 A 
ATOM      2  C   UNL     1       4.841   6.213  17.570  0.00  0.00    +0.000 A 
ATOM      3  C   UNL     1       3.756   7.084  17.751  0.00  0.00    +0.000 A 
ATOM      4  C   UNL     1       2.879   6.600  18.760  0.00  0.00    +0.000 A 
ATOM      5  C   UNL     1       3.042   5.345  19.474  0.00  0.00    +0.000 A 
ATOM      6  C   UNL     1       4.246   4.587  19.423  0.00  0.00    +0.000 A 
ATOM      7  C   UNL     1       5.169   5.231  18.613  0.00  0.00    +0.000 A 
ATOM      8  N   UNL     1       6.460   5.601  18.934  0.00  0.00    +0.000 N 
ATOM      9  O   UNL     1       7.187   5.312  19.926  0.00  0.00    +0.000 OA
ATOM     10  N   UNL     1       6.764   6.699  18.100  0.00  0.00    +0.000 N 
ENDROOT
BRANCH   5  11
ATOM     11  C   UNL     1       1.902   4.836  20.343  0.00  0.00    +0.000 C 
ATOM     12  F   UNL     1       1.086   3.953  19.703  0.00  0.00    +0.000 F 
ATOM     13  F   UNL     1       2.361   4.186  21.448  0.00  0.00    +0.000 F 
ATOM     14  F   UNL     1       1.093   5.829  20.801  0.00  0.00    +0.000 F 
ENDBRANCH   5  11
BRANCH   1  15
ATOM     15  C   UNL     1       6.851   5.820  15.873  0.00  0.00    +0.000 C 
ATOM     16  O   UNL     1       8.064   6.062  15.802  0.00  0.00    +0.000 OA
BRANCH  15  21
ATOM     17  C   UNL     1       4.604   3.170  11.382  0.00  0.00    +0.000 C 
ATOM     18  C   UNL     1       5.308   3.528  12.655  0.00  0.00    +0.000 A 
ATOM     19  C   UNL     1       6.603   4.041  12.597  0.00  0.00    +0.000 A 
ATOM     20  C   UNL     1       7.133   4.670  13.716  0.00  0.00    +0.000 A 
ATOM     21  C   UNL     1       6.371   4.819  14.897  0.00  0.00    +0.000 A 
ATOM     22  C   UNL     1       5.167   4.134  15.012  0.00  0.00    +0.000 A 
ATOM     23  C   UNL     1       4.636   3.496  13.886  0.00  0.00    +0.000 A 
ENDBRANCH  15  21
ENDBRANCH   1  15
BRANCH  10  24
ATOM     24  C   UNL     1       7.929   7.558  18.175  0.00  0.00    +0.000 C 
BRANCH  24  25
ATOM     25  C   UNL     1       7.758   8.995  17.692  0.00  0.00    +0.000 C 
BRANCH  25  26
ATOM     26  C   UNL     1       8.808   9.988  18.166  0.00  0.00    +0.000 C 
BRANCH  26  27
ATOM     27  N   UNL     1       9.205   9.734  19.543  0.00  0.00    +0.000 NA
ATOM     28  H   UNL     1       9.453  10.635  19.975  0.00  0.00    +0.000 HD
ATOM     29  H   UNL     1      10.081   9.211  19.548  0.00  0.00    +0.000 HD
ENDBRANCH  26  27
ENDBRANCH  25  26
ENDBRANCH  24  25
ENDBRANCH  10  24
TORSDOF 7
ENDMDL
MODEL 5
REMARK VINA RESULT:      -8.0      2.174      5.143
REMARK  Name = 
REMARK  8 active torsions:
REMARK  status: ('A' for Active; 'I' for Inactive)
REMARK    1  A    between atoms: C_1  and  C_2
REMARK    2  A    between atoms: C_5  and  C_6
REMARK    3  A    between atoms: C_6  and  C_8
REMARK    4  A    between atoms: C_12  and  C_13
REMARK    5  A    between atoms: N_21  and  C_22
REMARK    6  A    between atoms: C_22  and  C_23
REMARK    7  A    between atoms: C_23  and  C_24
REMARK    8  A    between atoms: C_24  and  N_25
REMARK                            x       y       z     vdW  Elec       q    Type
REMARK                         _______ _______ _______ _____ _____    ______ ____
ROOT
ATOM      1  C   UNL     1       5.872   4.215  17.341  0.00  0.00    +0.000 A 
ATOM      2  C   UNL     1       4.832   3.926  18.242  0.00  0.00    +0.000 A 
ATOM      3  C   UNL     1       4.172   2.696  18.372  0.00  0.00    +0.000 A 
ATOM      4  C   UNL     1       2.953   2.844  19.089  0.00  0.00    +0.000 A 
ATOM      5  C   UNL     1       2.473   4.089  19.666  0.00  0.00    +0.000 A 
ATOM      6  C   UNL     1       3.048   5.351  19.347  0.00  0.00    +0.000 A 
ATOM      7  C   UNL     1       4.086   5.178  18.445  0.00  0.00    +0.000 A 
ATOM      8  N   UNL     1       4.250   5.789  17.218  0.00  0.00    +0.000 N 
ATOM      9  O   UNL     1       3.641   6.758  16.683  0.00  0.00    +0.000 OA
ATOM     10  N   UNL     1       5.033   4.902  16.447  0.00  0.00    +0.000 N 
ENDROOT
BRANCH   5  11
ATOM     11  C   UNL     1       1.286   4.053  20.615  0.00  0.00    +0.000 C 
ATOM     12  F   UNL     1       0.247   3.302  20.155  0.00  0.00    +0.000 F 
ATOM     13  F   UNL     1       1.621   3.524  21.824  0.00  0.00    +0.000 F 
ATOM     14  F   UNL     1       0.770   5.285  20.876  0.00  0.00    +0.000 F 
ENDBRANCH   5  11
BRANCH   1  15
ATOM     15  C   UNL     1       7.195   4.879  17.479  0.00  0.00    +0.000 C 
ATOM     16  O   UNL     1       8.211   4.260  17.133  0.00  0.00    +0.000 OA
BRANCH  15  21
ATOM     17  C   UNL     1       9.217  10.113  18.353  0.00  0.00    +0.000 C 
ATOM     18  C   UNL     1       8.426   8.841  18.364  0.00  0.00    +0.000 A 
ATOM     19  C   UNL     1       7.508   8.600  17.343  0.00  0.00    +0.000 A 
ATOM     20  C   UNL     1       7.017   7.313  17.163  0.00  0.00    +0.000 A 
ATOM     21  C   UNL     1       7.455   6.246  17.979  0.00  0.00    +0.000 A 
ATOM     22  C   UNL     1       8.209   6.531  19.112  0.00  0.00    +0.000 A 
ATOM     23  C   UNL     1       8.698   7.828  19.296  0.00  0.00    +0.000 A 
ENDBRANCH  15  21
ENDBRANCH   1  15
BRANCH  10  24
ATOM     24  C   UNL     1       5.330   5.002  15.032  0.00  0.00    +0.000 C 
BRANCH  24  25
ATOM     25  C   UNL     1       5.948   3.775  14.369  0.00  0.00    +0.000 C 
BRANCH  25  26
ATOM     26  C   UNL     1       6.452   3.967  12.947  0.00  0.00    +0.000 C 
BRANCH  26  27
ATOM     27  N   UNL     1       6.266   2.765  12.146  0.00  0.00    +0.000 NA
ATOM     28  H   UNL     1       5.795   3.036  11.270  0.00  0.00    +0.000 HD
ATOM     29  H   UNL     1       5.590   2.157  12.608  0.00  0.00    +0.000 HD
ENDBRANCH  26  27
ENDBRANCH  25  26
ENDBRANCH  24  25
ENDBRANCH  10  24
TORSDOF 7
ENDMDL
MODEL 6
REMARK VINA RESULT:      -7.9      3.441      6.211
REMARK  Name = 
REMARK  8 active torsions:
REMARK  status: ('A' for Active; 'I' for Inactive)
REMARK    1  A    between atoms: C_1  and  C_2
REMARK    2  A    between atoms: C_5  and  C_6
REMARK    3  A    between atoms: C_6  and  C_8
REMARK    4  A    between atoms: C_12  and  C_13
REMARK    5  A    between atoms: N_21  and  C_22
REMARK    6  A    between atoms: C_22  and  C_23
REMARK    7  A    between atoms: C_23  and  C_24
REMARK    8  A    between atoms: C_24  and  N_25
REMARK                            x       y       z     vdW  Elec       q    Type
REMARK                         _______ _______ _______ _____ _____    ______ ____
ROOT
ATOM      1  C   UNL     1       6.713   5.413  17.571  0.00  0.00    +0.000 A 
ATOM      2  C   UNL     1       6.637   4.771  16.322  0.00  0.00    +0.000 A 
ATOM      3  C   UNL     1       7.716   4.502  15.468  0.00  0.00    +0.000 A 
ATOM      4  C   UNL     1       7.263   4.192  14.156  0.00  0.00    +0.000 A 
ATOM      5  C   UNL     1       5.868   4.104  13.757  0.00  0.00    +0.000 A 
ATOM      6  C   UNL     1       4.807   4.578  14.578  0.00  0.00    +0.000 A 
ATOM      7  C   UNL     1       5.322   5.101  15.753  0.00  0.00    +0.000 A 
ATOM      8  N   UNL     1       5.109   6.359  16.283  0.00  0.00    +0.000 N 
ATOM      9  O   UNL     1       4.289   7.267  15.969  0.00  0.00    +0.000 OA
ATOM     10  N   UNL     1       6.246   6.641  17.073  0.00  0.00    +0.000 N 
ENDROOT
BRANCH   5  11
ATOM     11  C   UNL     1       5.525   3.521  12.395  0.00  0.00    +0.000 C 
ATOM     12  F   UNL     1       5.716   2.175  12.318  0.00  0.00    +0.000 F 
ATOM     13  F   UNL     1       4.220   3.731  12.070  0.00  0.00    +0.000 F 
ATOM     14  F   UNL     1       6.256   4.061  11.381  0.00  0.00    +0.000 F 
ENDBRANCH   5  11
BRANCH   1  15
ATOM     15  C   UNL     1       6.153   5.112  18.915  0.00  0.00    +0.000 C 
ATOM     16  O   UNL     1       6.825   5.395  19.917  0.00  0.00    +0.000 OA
BRANCH  15  21
ATOM     17  C   UNL     1       1.493   3.082  21.446  0.00  0.00    +0.000 C 
ATOM     18  C   UNL     1       2.523   3.564  20.471  0.00  0.00    +0.000 A 
ATOM     19  C   UNL     1       2.670   4.934  20.256  0.00  0.00    +0.000 A 
ATOM     20  C   UNL     1       3.813   5.401  19.619  0.00  0.00    +0.000 A 
ATOM     21  C   UNL     1       4.835   4.513  19.215  0.00  0.00    +0.000 A 
ATOM     22  C   UNL     1       4.592   3.145  19.252  0.00  0.00    +0.000 A 
ATOM     23  C   UNL     1       3.437   2.675  19.888  0.00  0.00    +0.000 A 
ENDBRANCH  15  21
ENDBRANCH   1  15
BRANCH  10  24
ATOM     24  C   UNL     1       6.586   7.906  17.694  0.00  0.00    +0.000 C 
BRANCH  24  25
ATOM     25  C   UNL     1       8.066   8.169  17.954  0.00  0.00    +0.000 C 
BRANCH  25  26
ATOM     26  C   UNL     1       8.457   9.623  18.174  0.00  0.00    +0.000 C 
BRANCH  26  27
ATOM     27  N   UNL     1       9.218   9.792  19.403  0.00  0.00    +0.000 NA
ATOM     28  H   UNL     1       9.831   8.972  19.514  0.00  0.00    +0.000 HD
ATOM     29  H   UNL     1       8.584   9.733  20.200  0.00  0.00    +0.000 HD
ENDBRANCH  26  27
ENDBRANCH  25  26
ENDBRANCH  24  25
ENDBRANCH  10  24
TORSDOF 7
ENDMDL
MODEL 7
REMARK VINA RESULT:      -7.8      3.448      5.957
REMARK  Name = 
REMARK  8 active torsions:
REMARK  status: ('A' for Active; 'I' for Inactive)
REMARK    1  A    between atoms: C_1  and  C_2
REMARK    2  A    between atoms: C_5  and  C_6
REMARK    3  A    between atoms: C_6  and  C_8
REMARK    4  A    between atoms: C_12  and  C_13
REMARK    5  A    between atoms: N_21  and  C_22
REMARK    6  A    between atoms: C_22  and  C_23
REMARK    7  A    between atoms: C_23  and  C_24
REMARK    8  A    between atoms: C_24  and  N_25
REMARK                            x       y       z     vdW  Elec       q    Type
REMARK                         _______ _______ _______ _____ _____    ______ ____
ROOT
ATOM      1  C   UNL     1       6.763   5.514  17.567  0.00  0.00    +0.000 A 
ATOM      2  C   UNL     1       6.674   4.854  16.328  0.00  0.00    +0.000 A 
ATOM      3  C   UNL     1       7.742   4.580  15.462  0.00  0.00    +0.000 A 
ATOM      4  C   UNL     1       7.271   4.249  14.162  0.00  0.00    +0.000 A 
ATOM      5  C   UNL     1       5.872   4.148  13.784  0.00  0.00    +0.000 A 
ATOM      6  C   UNL     1       4.819   4.627  14.614  0.00  0.00    +0.000 A 
ATOM      7  C   UNL     1       5.349   5.169  15.774  0.00  0.00    +0.000 A 
ATOM      8  N   UNL     1       5.136   6.432  16.289  0.00  0.00    +0.000 N 
ATOM      9  O   UNL     1       4.306   7.331  15.975  0.00  0.00    +0.000 OA
ATOM     10  N   UNL     1       6.282   6.732  17.059  0.00  0.00    +0.000 N 
ENDROOT
BRANCH   5  11
ATOM     11  C   UNL     1       5.513   3.544  12.435  0.00  0.00    +0.000 C 
ATOM     12  F   UNL     1       4.205   3.712  12.097  0.00  0.00    +0.000 F 
ATOM     13  F   UNL     1       6.234   4.104  11.424  0.00  0.00    +0.000 F 
ATOM     14  F   UNL     1       5.748   2.206  12.367  0.00  0.00    +0.000 F 
ENDBRANCH   5  11
BRANCH   1  15
ATOM     15  C   UNL     1       6.224   5.228  18.923  0.00  0.00    +0.000 C 
ATOM     16  O   UNL     1       6.946   5.442  19.907  0.00  0.00    +0.000 OA
BRANCH  15  21
ATOM     17  C   UNL     1       1.016   2.971  18.768  0.00  0.00    +0.000 C 
ATOM     18  C   UNL     1       2.333   3.559  19.174  0.00  0.00    +0.000 A 
ATOM     19  C   UNL     1       3.457   2.737  19.234  0.00  0.00    +0.000 A 
ATOM     20  C   UNL     1       4.719   3.317  19.288  0.00  0.00    +0.000 A 
ATOM     21  C   UNL     1       4.876   4.720  19.255  0.00  0.00    +0.000 A 
ATOM     22  C   UNL     1       3.753   5.528  19.397  0.00  0.00    +0.000 A 
ATOM     23  C   UNL     1       2.483   4.943  19.348  0.00  0.00    +0.000 A 
ENDBRANCH  15  21
ENDBRANCH   1  15
BRANCH  10  24
ATOM     24  C   UNL     1       6.623   8.007  17.658  0.00  0.00    +0.000 C 
BRANCH  24  25
ATOM     25  C   UNL     1       8.107   8.293  17.870  0.00  0.00    +0.000 C 
BRANCH  25  26
ATOM     26  C   UNL     1       8.467   9.728  18.226  0.00  0.00    +0.000 C 
BRANCH  26  27
ATOM     27  N   UNL     1       9.237   9.796  19.459  0.00  0.00    +0.000 NA
ATOM     28  H   UNL     1       8.575   9.824  20.247  0.00  0.00    +0.000 HD
ATOM     29  H   UNL     1       9.712  10.698  19.507  0.00  0.00    +0.000 HD
ENDBRANCH  26  27
ENDBRANCH  25  26
ENDBRANCH  24  25
ENDBRANCH  10  24
TORSDOF 7
ENDMDL
MODEL 8
REMARK VINA RESULT:      -7.7      4.016      6.055
REMARK  Name = 
REMARK  8 active torsions:
REMARK  status: ('A' for Active; 'I' for Inactive)
REMARK    1  A    between atoms: C_1  and  C_2
REMARK    2  A    between atoms: C_5  and  C_6
REMARK    3  A    between atoms: C_6  and  C_8
REMARK    4  A    between atoms: C_12  and  C_13
REMARK    5  A    between atoms: N_21  and  C_22
REMARK    6  A    between atoms: C_22  and  C_23
REMARK    7  A    between atoms: C_23  and  C_24
REMARK    8  A    between atoms: C_24  and  N_25
REMARK                            x       y       z     vdW  Elec       q    Type
REMARK                         _______ _______ _______ _____ _____    ______ ____
ROOT
ATOM      1  C   UNL     1       3.360   5.109  19.817  0.00  0.00    +0.000 A 
ATOM      2  C   UNL     1       2.800   6.399  19.860  0.00  0.00    +0.000 A 
ATOM      3  C   UNL     1       2.136   6.973  20.953  0.00  0.00    +0.000 A 
ATOM      4  C   UNL     1       1.384   8.111  20.551  0.00  0.00    +0.000 A 
ATOM      5  C   UNL     1       1.347   8.652  19.203  0.00  0.00    +0.000 A 
ATOM      6  C   UNL     1       1.857   7.940  18.080  0.00  0.00    +0.000 A 
ATOM      7  C   UNL     1       2.363   6.718  18.492  0.00  0.00    +0.000 A 
ATOM      8  N   UNL     1       2.033   5.464  18.017  0.00  0.00    +0.000 N 
ATOM      9  O   UNL     1       1.361   5.105  17.010  0.00  0.00    +0.000 OA
ATOM     10  N   UNL     1       2.293   4.569  19.079  0.00  0.00    +0.000 N 
ENDROOT
BRANCH   5  11
ATOM     11  C   UNL     1       0.706  10.010  18.969  0.00  0.00    +0.000 C 
ATOM     12  F   UNL     1       1.438  10.823  18.158  0.00  0.00    +0.000 F 
ATOM     13  F   UNL     1      -0.516   9.897  18.379  0.00  0.00    +0.000 F 
ATOM     14  F   UNL     1       0.503  10.713  20.117  0.00  0.00    +0.000 F 
ENDBRANCH   5  11
BRANCH   1  15
ATOM     15  C   UNL     1       4.671   4.574  19.366  0.00  0.00    +0.000 C 
ATOM     16  O   UNL     1       4.932   3.382  19.580  0.00  0.00    +0.000 OA
BRANCH  15  21
ATOM     17  C   UNL     1       8.363   8.479  17.531  0.00  0.00    +0.000 C 
ATOM     18  C   UNL     1       7.582   7.227  17.791  0.00  0.00    +0.000 A 
ATOM     19  C   UNL     1       7.858   6.476  18.932  0.00  0.00    +0.000 A 
ATOM     20  C   UNL     1       6.944   5.515  19.349  0.00  0.00    +0.000 A 
ATOM     21  C   UNL     1       5.733   5.312  18.650  0.00  0.00    +0.000 A 
ATOM     22  C   UNL     1       5.560   5.918  17.411  0.00  0.00    +0.000 A 
ATOM     23  C   UNL     1       6.484   6.881  16.989  0.00  0.00    +0.000 A 
ENDBRANCH  15  21
ENDBRANCH   1  15
BRANCH  10  24
ATOM     24  C   UNL     1       1.942   3.164  19.144  0.00  0.00    +0.000 C 
BRANCH  24  25
ATOM     25  C   UNL     1       1.061   2.727  20.310  0.00  0.00    +0.000 C 
BRANCH  25  26
ATOM     26  C   UNL     1       1.641   2.937  21.700  0.00  0.00    +0.000 C 
BRANCH  26  27
ATOM     27  N   UNL     1       2.916   2.251  21.858  0.00  0.00    +0.000 NA
ATOM     28  H   UNL     1       2.831   1.600  22.651  0.00  0.00    +0.000 HD
ATOM     29  H   UNL     1       3.620   2.921  22.167  0.00  0.00    +0.000 HD
ENDBRANCH  26  27
ENDBRANCH  25  26
ENDBRANCH  24  25
ENDBRANCH  10  24
TORSDOF 7
ENDMDL
MODEL 9
REMARK VINA RESULT:      -7.7      3.625      5.454
REMARK  Name = 
REMARK  8 active torsions:
REMARK  status: ('A' for Active; 'I' for Inactive)
REMARK    1  A    between atoms: C_1  and  C_2
REMARK    2  A    between atoms: C_5  and  C_6
REMARK    3  A    between atoms: C_6  and  C_8
REMARK    4  A    between atoms: C_12  and  C_13
REMARK    5  A    between atoms: N_21  and  C_22
REMARK    6  A    between atoms: C_22  and  C_23
REMARK    7  A    between atoms: C_23  and  C_24
REMARK    8  A    between atoms: C_24  and  N_25
REMARK                            x       y       z     vdW  Elec       q    Type
REMARK                         _______ _______ _______ _____ _____    ______ ____
ROOT
ATOM      1  C   UNL     1       3.449   4.950  19.596  0.00  0.00    +0.000 A 
ATOM      2  C   UNL     1       2.941   6.261  19.543  0.00  0.00    +0.000 A 
ATOM      3  C   UNL     1       2.449   6.997  20.630  0.00  0.00    +0.000 A 
ATOM      4  C   UNL     1       1.685   8.112  20.186  0.00  0.00    +0.000 A 
ATOM      5  C   UNL     1       1.483   8.481  18.795  0.00  0.00    +0.000 A 
ATOM      6  C   UNL     1       1.813   7.612  17.718  0.00  0.00    +0.000 A 
ATOM      7  C   UNL     1       2.332   6.427  18.215  0.00  0.00    +0.000 A 
ATOM      8  N   UNL     1       1.902   5.141  17.954  0.00  0.00    +0.000 N 
ATOM      9  O   UNL     1       1.089   4.693  17.098  0.00  0.00    +0.000 OA
ATOM     10  N   UNL     1       2.276   4.374  19.080  0.00  0.00    +0.000 N 
ENDROOT
BRANCH   5  11
ATOM     11  C   UNL     1       0.858   9.829  18.473  0.00  0.00    +0.000 C 
ATOM     12  F   UNL     1      -0.164   9.753  17.577  0.00  0.00    +0.000 F 
ATOM     13  F   UNL     1       0.336  10.423  19.582  0.00  0.00    +0.000 F 
ATOM     14  F   UNL     1       1.745  10.721  17.954  0.00  0.00    +0.000 F 
ENDBRANCH   5  11
BRANCH   1  15
ATOM     15  C   UNL     1       4.670   4.300  19.051  0.00  0.00    +0.000 C 
ATOM     16  O   UNL     1       5.086   3.267  19.593  0.00  0.00    +0.000 OA
BRANCH  15  21
ATOM     17  C   UNL     1       7.323   4.694  14.046  0.00  0.00    +0.000 C 
ATOM     18  C   UNL     1       6.726   4.944  15.397  0.00  0.00    +0.000 A 
ATOM     19  C   UNL     1       5.365   5.228  15.499  0.00  0.00    +0.000 A 
ATOM     20  C   UNL     1       4.745   5.139  16.739  0.00  0.00    +0.000 A 
ATOM     21  C   UNL     1       5.467   4.741  17.886  0.00  0.00    +0.000 A 
ATOM     22  C   UNL     1       6.853   4.658  17.815  0.00  0.00    +0.000 A 
ATOM     23  C   UNL     1       7.477   4.753  16.566  0.00  0.00    +0.000 A 
ENDBRANCH  15  21
ENDBRANCH   1  15
BRANCH  10  24
ATOM     24  C   UNL     1       1.894   3.007  19.371  0.00  0.00    +0.000 C 
BRANCH  24  25
ATOM     25  C   UNL     1       0.895   2.798  20.505  0.00  0.00    +0.000 C 
BRANCH  25  26
ATOM     26  C   UNL     1       1.491   2.539  21.881  0.00  0.00    +0.000 C 
BRANCH  26  27
ATOM     27  N   UNL     1       2.936   2.372  21.816  0.00  0.00    +0.000 NA
ATOM     28  H   UNL     1       3.201   1.629  22.478  0.00  0.00    +0.000 HD
ATOM     29  H   UNL     1       3.386   3.206  22.194  0.00  0.00    +0.000 HD
ENDBRANCH  26  27
ENDBRANCH  25  26
ENDBRANCH  24  25
ENDBRANCH  10  24
TORSDOF 7
ENDMDL
