MODEL 1
REMARK VINA RESULT:      -7.5      0.000      0.000
REMARK  Name = 
REMARK  2 active torsions:
REMARK  status: ('A' for Active; 'I' for Inactive)
REMARK    1  A    between atoms: N_13  and  C_14
REMARK    2  A    between atoms: C_14  and  C_15
REMARK                            x       y       z     vdW  Elec       q    Type
REMARK                         _______ _______ _______ _____ _____    ______ ____
ROOT
ATOM      1  O   UNL     1       7.538   5.867  13.580  0.00  0.00    +0.000 OA
ATOM      2  C   UNL     1       7.009   5.101  14.385  0.00  0.00    +0.000 A 
ATOM      3  C   UNL     1       6.244   3.934  13.879  0.00  0.00    +0.000 A 
ATOM      4  C   UNL     1       5.673   3.083  14.736  0.00  0.00    +0.000 A 
ATOM      5  C   UNL     1       5.831   3.259  16.157  0.00  0.00    +0.000 A 
ATOM      6  C   UNL     1       6.474   4.330  16.656  0.00  0.00    +0.000 A 
ATOM      7  N   UNL     1       7.015   5.275  15.771  0.00  0.00    +0.000 N 
ATOM      8  C   UNL     1       7.515   6.556  16.272  0.00  0.00    +0.000 C 
ATOM      9  C   UNL     1       6.887   6.922  17.625  0.00  0.00    +0.000 C 
ATOM     10  C   UNL     1       7.336   5.811  18.563  0.00  0.00    +0.000 C 
ATOM     11  C   UNL     1       6.516   4.588  18.171  0.00  0.00    +0.000 C 
ATOM     12  C   UNL     1       5.106   4.850  18.728  0.00  0.00    +0.000 C 
ATOM     13  N   UNL     1       4.519   6.158  18.384  0.00  0.00    +0.000 NA
ATOM     14  C   UNL     1       5.333   7.003  17.481  0.00  0.00    +0.000 C 
ENDROOT
BRANCH  13  15
ATOM     15  C   UNL     1       3.147   6.013  17.848  0.00  0.00    +0.000 C 
BRANCH  15  16
ATOM     16  C   UNL     1       2.309   4.955  18.531  0.00  0.00    +0.000 A 
ATOM     17  C   UNL     1       2.086   3.731  17.878  0.00  0.00    +0.000 A 
ATOM     18  F   UNL     1       2.620   3.512  16.667  0.00  0.00    +0.000 F 
ATOM     19  C   UNL     1       1.329   2.711  18.452  0.00  0.00    +0.000 A 
ATOM     20  C   UNL     1       0.770   2.896  19.710  0.00  0.00    +0.000 A 
ATOM     21  C   UNL     1       0.964   4.106  20.377  0.00  0.00    +0.000 A 
ATOM     22  C   UNL     1       1.724   5.129  19.793  0.00  0.00    +0.000 A 
ATOM     23 CL   UNL     1       1.879   6.603  20.682  0.00  0.00    +0.000 Cl
ENDBRANCH  15  16
ENDBRANCH  13  15
TORSDOF 2
ENDMDL
MODEL 2
REMARK VINA RESULT:      -7.0      1.535      1.829
REMARK  Name = 
REMARK  2 active torsions:
REMARK  status: ('A' for Active; 'I' for Inactive)
REMARK    1  A    between atoms: N_13  and  C_14
REMARK    2  A    between atoms: C_14  and  C_15
REMARK                            x       y       z     vdW  Elec       q    Type
REMARK                         _______ _______ _______ _____ _____    ______ ____
ROOT
ATOM      1  O   UNL     1       7.562   5.842  13.551  0.00  0.00    +0.000 OA
ATOM      2  C   UNL     1       7.040   5.095  14.378  0.00  0.00    +0.000 A 
ATOM      3  C   UNL     1       6.249   3.932  13.905  0.00  0.00    +0.000 A 
ATOM      4  C   UNL     1       5.684   3.102  14.787  0.00  0.00    +0.000 A 
ATOM      5  C   UNL     1       5.876   3.295  16.201  0.00  0.00    +0.000 A 
ATOM      6  C   UNL     1       6.545   4.364  16.671  0.00  0.00    +0.000 A 
ATOM      7  N   UNL     1       7.079   5.288  15.761  0.00  0.00    +0.000 N 
ATOM      8  C   UNL     1       7.608   6.569  16.232  0.00  0.00    +0.000 C 
ATOM      9  C   UNL     1       7.014   6.963  17.593  0.00  0.00    +0.000 C 
ATOM     10  C   UNL     1       7.469   5.860  18.537  0.00  0.00    +0.000 C 
ATOM     11  C   UNL     1       6.624   4.642  18.181  0.00  0.00    +0.000 C 
ATOM     12  C   UNL     1       5.229   4.933  18.765  0.00  0.00    +0.000 C 
ATOM     13  N   UNL     1       4.654   6.244  18.414  0.00  0.00    +0.000 NA
ATOM     14  C   UNL     1       5.459   7.065  17.482  0.00  0.00    +0.000 C 
ENDROOT
BRANCH  13  15
ATOM     15  C   UNL     1       3.268   6.111  17.910  0.00  0.00    +0.000 C 
BRANCH  15  16
ATOM     16  C   UNL     1       2.408   5.129  18.675  0.00  0.00    +0.000 A 
ATOM     17  C   UNL     1       1.935   5.480  19.950  0.00  0.00    +0.000 A 
ATOM     18  F   UNL     1       2.241   6.679  20.470  0.00  0.00    +0.000 F 
ATOM     19  C   UNL     1       1.135   4.626  20.706  0.00  0.00    +0.000 A 
ATOM     20  C   UNL     1       0.787   3.382  20.197  0.00  0.00    +0.000 A 
ATOM     21  C   UNL     1       1.253   3.000  18.939  0.00  0.00    +0.000 A 
ATOM     22  C   UNL     1       2.060   3.863  18.184  0.00  0.00    +0.000 A 
ATOM     23 CL   UNL     1       2.616   3.287  16.653  0.00  0.00    +0.000 Cl
ENDBRANCH  15  16
ENDBRANCH  13  15
TORSDOF 2
ENDMDL
MODEL 3
REMARK VINA RESULT:      -7.0      2.971      6.015
REMARK  Name = 
REMARK  2 active torsions:
REMARK  status: ('A' for Active; 'I' for Inactive)
REMARK    1  A    between atoms: N_13  and  C_14
REMARK    2  A    between atoms: C_14  and  C_15
REMARK                            x       y       z     vdW  Elec       q    Type
REMARK                         _______ _______ _______ _____ _____    ______ ____
ROOT
ATOM      1  O   UNL     1       1.038   2.729  21.587  0.00  0.00    +0.000 OA
ATOM      2  C   UNL     1       1.304   2.930  20.403  0.00  0.00    +0.000 A 
ATOM      3  C   UNL     1       1.397   1.774  19.476  0.00  0.00    +0.000 A 
ATOM      4  C   UNL     1       1.672   1.971  18.184  0.00  0.00    +0.000 A 
ATOM      5  C   UNL     1       1.834   3.304  17.665  0.00  0.00    +0.000 A 
ATOM      6  C   UNL     1       1.806   4.374  18.479  0.00  0.00    +0.000 A 
ATOM      7  N   UNL     1       1.594   4.180  19.853  0.00  0.00    +0.000 N 
ATOM      8  C   UNL     1       1.784   5.285  20.794  0.00  0.00    +0.000 C 
ATOM      9  C   UNL     1       2.716   6.365  20.222  0.00  0.00    +0.000 C 
ATOM     10  C   UNL     1       1.986   6.880  18.990  0.00  0.00    +0.000 C 
ATOM     11  C   UNL     1       2.121   5.781  17.944  0.00  0.00    +0.000 C 
ATOM     12  C   UNL     1       3.576   5.872  17.447  0.00  0.00    +0.000 C 
ATOM     13  N   UNL     1       4.607   5.892  18.501  0.00  0.00    +0.000 NA
ATOM     14  C   UNL     1       4.107   5.738  19.885  0.00  0.00    +0.000 C 
ENDROOT
BRANCH  13  15
ATOM     15  C   UNL     1       5.677   4.905  18.231  0.00  0.00    +0.000 C 
BRANCH  15  16
ATOM     16  C   UNL     1       6.132   4.842  16.790  0.00  0.00    +0.000 A 
ATOM     17  C   UNL     1       5.671   3.797  15.972  0.00  0.00    +0.000 A 
ATOM     18  F   UNL     1       4.832   2.877  16.471  0.00  0.00    +0.000 F 
ATOM     19  C   UNL     1       6.045   3.681  14.634  0.00  0.00    +0.000 A 
ATOM     20  C   UNL     1       6.902   4.621  14.078  0.00  0.00    +0.000 A 
ATOM     21  C   UNL     1       7.386   5.663  14.870  0.00  0.00    +0.000 A 
ATOM     22  C   UNL     1       7.008   5.772  16.215  0.00  0.00    +0.000 A 
ATOM     23 CL   UNL     1       7.687   7.076  17.123  0.00  0.00    +0.000 Cl
ENDBRANCH  15  16
ENDBRANCH  13  15
TORSDOF 2
ENDMDL
MODEL 4
REMARK VINA RESULT:      -6.9      3.087      4.243
REMARK  Name = 
REMARK  2 active torsions:
REMARK  status: ('A' for Active; 'I' for Inactive)
REMARK    1  A    between atoms: N_13  and  C_14
REMARK    2  A    between atoms: C_14  and  C_15
REMARK                            x       y       z     vdW  Elec       q    Type
REMARK                         _______ _______ _______ _____ _____    ______ ____
ROOT
ATOM      1  O   UNL     1       7.932   4.410  18.224  0.00  0.00    +0.000 OA
ATOM      2  C   UNL     1       6.931   4.652  17.550  0.00  0.00    +0.000 A 
ATOM      3  C   UNL     1       7.066   5.480  16.326  0.00  0.00    +0.000 A 
ATOM      4  C   UNL     1       5.993   5.745  15.574  0.00  0.00    +0.000 A 
ATOM      5  C   UNL     1       4.707   5.192  15.913  0.00  0.00    +0.000 A 
ATOM      6  C   UNL     1       4.534   4.477  17.039  0.00  0.00    +0.000 A 
ATOM      7  N   UNL     1       5.634   4.254  17.882  0.00  0.00    +0.000 N 
ATOM      8  C   UNL     1       5.440   3.685  19.216  0.00  0.00    +0.000 C 
ATOM      9  C   UNL     1       4.010   3.912  19.729  0.00  0.00    +0.000 C 
ATOM     10  C   UNL     1       3.130   3.166  18.737  0.00  0.00    +0.000 C 
ATOM     11  C   UNL     1       3.134   4.011  17.469  0.00  0.00    +0.000 C 
ATOM     12  C   UNL     1       2.221   5.212  17.781  0.00  0.00    +0.000 C 
ATOM     13  N   UNL     1       2.518   5.927  19.036  0.00  0.00    +0.000 NA
ATOM     14  C   UNL     1       3.703   5.444  19.779  0.00  0.00    +0.000 C 
ENDROOT
BRANCH  13  15
ATOM     15  C   UNL     1       2.613   7.388  18.818  0.00  0.00    +0.000 C 
BRANCH  15  16
ATOM     16  C   UNL     1       1.642   8.214  19.633  0.00  0.00    +0.000 A 
ATOM     17  C   UNL     1       1.106   7.672  20.813  0.00  0.00    +0.000 A 
ATOM     18  F   UNL     1       1.464   6.441  21.207  0.00  0.00    +0.000 F 
ATOM     19  C   UNL     1       0.211   8.379  21.614  0.00  0.00    +0.000 A 
ATOM     20  C   UNL     1      -0.175   9.661  21.246  0.00  0.00    +0.000 A 
ATOM     21  C   UNL     1       0.332  10.220  20.072  0.00  0.00    +0.000 A 
ATOM     22  C   UNL     1       1.230   9.503  19.269  0.00  0.00    +0.000 A 
ATOM     23 CL   UNL     1       1.774  10.266  17.818  0.00  0.00    +0.000 Cl
ENDBRANCH  15  16
ENDBRANCH  13  15
TORSDOF 2
ENDMDL
MODEL 5
REMARK VINA RESULT:      -6.9      3.175      4.434
REMARK  Name = 
REMARK  2 active torsions:
REMARK  status: ('A' for Active; 'I' for Inactive)
REMARK    1  A    between atoms: N_13  and  C_14
REMARK    2  A    between atoms: C_14  and  C_15
REMARK                            x       y       z     vdW  Elec       q    Type
REMARK                         _______ _______ _______ _____ _____    ______ ____
ROOT
ATOM      1  O   UNL     1       7.680   4.338  18.505  0.00  0.00    +0.000 OA
ATOM      2  C   UNL     1       6.767   4.809  17.827  0.00  0.00    +0.000 A 
ATOM      3  C   UNL     1       7.088   5.799  16.770  0.00  0.00    +0.000 A 
ATOM      4  C   UNL     1       6.114   6.314  16.014  0.00  0.00    +0.000 A 
ATOM      5  C   UNL     1       4.751   5.880  16.183  0.00  0.00    +0.000 A 
ATOM      6  C   UNL     1       4.412   5.022  17.161  0.00  0.00    +0.000 A 
ATOM      7  N   UNL     1       5.412   4.530  18.014  0.00  0.00    +0.000 N 
ATOM      8  C   UNL     1       5.053   3.783  19.221  0.00  0.00    +0.000 C 
ATOM      9  C   UNL     1       3.624   4.103  19.684  0.00  0.00    +0.000 C 
ATOM     10  C   UNL     1       2.741   3.642  18.533  0.00  0.00    +0.000 C 
ATOM     11  C   UNL     1       2.938   4.673  17.428  0.00  0.00    +0.000 C 
ATOM     12  C   UNL     1       2.149   5.913  17.887  0.00  0.00    +0.000 C 
ATOM     13  N   UNL     1       2.430   6.374  19.258  0.00  0.00    +0.000 NA
ATOM     14  C   UNL     1       3.492   5.633  19.975  0.00  0.00    +0.000 C 
ENDROOT
BRANCH  13  15
ATOM     15  C   UNL     1       2.709   7.828  19.295  0.00  0.00    +0.000 C 
BRANCH  15  16
ATOM     16  C   UNL     1       1.479   8.708  19.333  0.00  0.00    +0.000 A 
ATOM     17  C   UNL     1       1.003   9.272  18.138  0.00  0.00    +0.000 A 
ATOM     18  F   UNL     1       1.636   9.021  16.982  0.00  0.00    +0.000 F 
ATOM     19  C   UNL     1      -0.127  10.086  18.099  0.00  0.00    +0.000 A 
ATOM     20  C   UNL     1      -0.816  10.360  19.274  0.00  0.00    +0.000 A 
ATOM     21  C   UNL     1      -0.360   9.823  20.478  0.00  0.00    +0.000 A 
ATOM     22  C   UNL     1       0.779   9.007  20.511  0.00  0.00    +0.000 A 
ATOM     23 CL   UNL     1       1.286   8.418  22.054  0.00  0.00    +0.000 Cl
ENDBRANCH  15  16
ENDBRANCH  13  15
TORSDOF 2
ENDMDL
MODEL 6
REMARK VINA RESULT:      -6.4      3.426      4.898
REMARK  Name = 
REMARK  2 active torsions:
REMARK  status: ('A' for Active; 'I' for Inactive)
REMARK    1  A    between atoms: N_13  and  C_14
REMARK    2  A    between atoms: C_14  and  C_15
REMARK                            x       y       z     vdW  Elec       q    Type
REMARK                         _______ _______ _______ _____ _____    ______ ____
ROOT
ATOM      1  O   UNL     1       7.414   4.392  18.740  0.00  0.00    +0.000 OA
ATOM      2  C   UNL     1       6.532   5.025  18.159  0.00  0.00    +0.000 A 
ATOM      3  C   UNL     1       6.903   6.231  17.377  0.00  0.00    +0.000 A 
ATOM      4  C   UNL     1       5.963   6.925  16.729  0.00  0.00    +0.000 A 
ATOM      5  C   UNL     1       4.591   6.488  16.741  0.00  0.00    +0.000 A 
ATOM      6  C   UNL     1       4.207   5.429  17.476  0.00  0.00    +0.000 A 
ATOM      7  N   UNL     1       5.169   4.733  18.225  0.00  0.00    +0.000 N 
ATOM      8  C   UNL     1       4.756   3.729  19.207  0.00  0.00    +0.000 C 
ATOM      9  C   UNL     1       3.312   3.956  19.680  0.00  0.00    +0.000 C 
ATOM     10  C   UNL     1       2.473   3.794  18.421  0.00  0.00    +0.000 C 
ATOM     11  C   UNL     1       2.721   5.052  17.599  0.00  0.00    +0.000 C 
ATOM     12  C   UNL     1       1.924   6.163  18.308  0.00  0.00    +0.000 C 
ATOM     13  N   UNL     1       2.155   6.283  19.759  0.00  0.00    +0.000 NA
ATOM     14  C   UNL     1       3.181   5.376  20.318  0.00  0.00    +0.000 C 
ENDROOT
BRANCH  13  15
ATOM     15  C   UNL     1       2.443   7.683  20.148  0.00  0.00    +0.000 C 
BRANCH  15  16
ATOM     16  C   UNL     1       1.304   8.651  19.917  0.00  0.00    +0.000 A 
ATOM     17  C   UNL     1       0.305   8.780  20.896  0.00  0.00    +0.000 A 
ATOM     18  F   UNL     1       0.376   8.054  22.023  0.00  0.00    +0.000 F 
ATOM     19  C   UNL     1      -0.768   9.656  20.751  0.00  0.00    +0.000 A 
ATOM     20  C   UNL     1      -0.870  10.433  19.605  0.00  0.00    +0.000 A 
ATOM     21  C   UNL     1       0.101  10.317  18.609  0.00  0.00    +0.000 A 
ATOM     22  C   UNL     1       1.177   9.432  18.760  0.00  0.00    +0.000 A 
ATOM     23 CL   UNL     1       2.308   9.334  17.457  0.00  0.00    +0.000 Cl
ENDBRANCH  15  16
ENDBRANCH  13  15
TORSDOF 2
ENDMDL
MODEL 7
REMARK VINA RESULT:      -6.3      2.039      2.704
REMARK  Name = 
REMARK  2 active torsions:
REMARK  status: ('A' for Active; 'I' for Inactive)
REMARK    1  A    between atoms: N_13  and  C_14
REMARK    2  A    between atoms: C_14  and  C_15
REMARK                            x       y       z     vdW  Elec       q    Type
REMARK                         _______ _______ _______ _____ _____    ______ ____
ROOT
ATOM      1  O   UNL     1       7.606   5.740  13.699  0.00  0.00    +0.000 OA
ATOM      2  C   UNL     1       6.963   5.042  14.483  0.00  0.00    +0.000 A 
ATOM      3  C   UNL     1       6.013   4.037  13.945  0.00  0.00    +0.000 A 
ATOM      4  C   UNL     1       5.315   3.261  14.780  0.00  0.00    +0.000 A 
ATOM      5  C   UNL     1       5.509   3.356  16.203  0.00  0.00    +0.000 A 
ATOM      6  C   UNL     1       6.324   4.287  16.732  0.00  0.00    +0.000 A 
ATOM      7  N   UNL     1       7.008   5.162  15.874  0.00  0.00    +0.000 N 
ATOM      8  C   UNL     1       7.716   6.324  16.413  0.00  0.00    +0.000 C 
ATOM      9  C   UNL     1       7.165   6.738  17.786  0.00  0.00    +0.000 C 
ATOM     10  C   UNL     1       7.431   5.535  18.679  0.00  0.00    +0.000 C 
ATOM     11  C   UNL     1       6.418   4.479  18.255  0.00  0.00    +0.000 C 
ATOM     12  C   UNL     1       5.074   4.950  18.838  0.00  0.00    +0.000 C 
ATOM     13  N   UNL     1       4.709   6.348  18.547  0.00  0.00    +0.000 NA
ATOM     14  C   UNL     1       5.645   7.080  17.665  0.00  0.00    +0.000 C 
ENDROOT
BRANCH  13  15
ATOM     15  C   UNL     1       3.328   6.451  18.024  0.00  0.00    +0.000 C 
BRANCH  15  16
ATOM     16  C   UNL     1       2.423   7.378  18.805  0.00  0.00    +0.000 A 
ATOM     17  C   UNL     1       2.088   8.629  18.260  0.00  0.00    +0.000 A 
ATOM     18  F   UNL     1       2.564   8.983  17.056  0.00  0.00    +0.000 F 
ATOM     19  C   UNL     1       1.256   9.529  18.922  0.00  0.00    +0.000 A 
ATOM     20  C   UNL     1       0.734   9.193  20.165  0.00  0.00    +0.000 A 
ATOM     21  C   UNL     1       1.059   7.963  20.737  0.00  0.00    +0.000 A 
ATOM     22  C   UNL     1       1.899   7.063  20.067  0.00  0.00    +0.000 A 
ATOM     23 CL   UNL     1       2.272   5.581  20.872  0.00  0.00    +0.000 Cl
ENDBRANCH  15  16
ENDBRANCH  13  15
TORSDOF 2
ENDMDL
MODEL 8
REMARK VINA RESULT:      -6.2      3.854      5.356
REMARK  Name = 
REMARK  2 active torsions:
REMARK  status: ('A' for Active; 'I' for Inactive)
REMARK    1  A    between atoms: N_13  and  C_14
REMARK    2  A    between atoms: C_14  and  C_15
REMARK                            x       y       z     vdW  Elec       q    Type
REMARK                         _______ _______ _______ _____ _____    ______ ____
ROOT
ATOM      1  O   UNL     1       7.002   4.836  19.692  0.00  0.00    +0.000 OA
ATOM      2  C   UNL     1       6.266   5.361  18.858  0.00  0.00    +0.000 A 
ATOM      3  C   UNL     1       6.833   6.364  17.922  0.00  0.00    +0.000 A 
ATOM      4  C   UNL     1       6.054   6.938  17.001  0.00  0.00    +0.000 A 
ATOM      5  C   UNL     1       4.672   6.557  16.871  0.00  0.00    +0.000 A 
ATOM      6  C   UNL     1       4.108   5.688  17.730  0.00  0.00    +0.000 A 
ATOM      7  N   UNL     1       4.892   5.134  18.753  0.00  0.00    +0.000 N 
ATOM      8  C   UNL     1       4.266   4.372  19.835  0.00  0.00    +0.000 C 
ATOM      9  C   UNL     1       2.785   4.739  20.005  0.00  0.00    +0.000 C 
ATOM     10  C   UNL     1       2.143   4.345  18.683  0.00  0.00    +0.000 C 
ATOM     11  C   UNL     1       2.600   5.394  17.677  0.00  0.00    +0.000 C 
ATOM     12  C   UNL     1       1.777   6.654  18.005  0.00  0.00    +0.000 C 
ATOM     13  N   UNL     1       1.785   7.068  19.420  0.00  0.00    +0.000 NA
ATOM     14  C   UNL     1       2.650   6.266  20.314  0.00  0.00    +0.000 C 
ENDROOT
BRANCH  13  15
ATOM     15  C   UNL     1       2.101   8.508  19.562  0.00  0.00    +0.000 C 
BRANCH  15  16
ATOM     16  C   UNL     1       1.022   9.329  20.232  0.00  0.00    +0.000 A 
ATOM     17  C   UNL     1       1.020   9.446  21.632  0.00  0.00    +0.000 A 
ATOM     18  F   UNL     1       1.974   8.840  22.355  0.00  0.00    +0.000 F 
ATOM     19  C   UNL     1       0.059  10.191  22.313  0.00  0.00    +0.000 A 
ATOM     20  C   UNL     1      -0.937  10.843  21.598  0.00  0.00    +0.000 A 
ATOM     21  C   UNL     1      -0.968  10.735  20.208  0.00  0.00    +0.000 A 
ATOM     22  C   UNL     1       0.000   9.982  19.528  0.00  0.00    +0.000 A 
ATOM     23 CL   UNL     1      -0.143   9.878  17.810  0.00  0.00    +0.000 Cl
ENDBRANCH  15  16
ENDBRANCH  13  15
TORSDOF 2
ENDMDL
MODEL 9
REMARK VINA RESULT:      -6.1      8.595     10.576
REMARK  Name = 
REMARK  2 active torsions:
REMARK  status: ('A' for Active; 'I' for Inactive)
REMARK    1  A    between atoms: N_13  and  C_14
REMARK    2  A    between atoms: C_14  and  C_15
REMARK                            x       y       z     vdW  Elec       q    Type
REMARK                         _______ _______ _______ _____ _____    ______ ____
ROOT
ATOM      1  O   UNL     1       1.433   8.375  21.232  0.00  0.00    +0.000 OA
ATOM      2  C   UNL     1       0.696   9.317  21.523  0.00  0.00    +0.000 A 
ATOM      3  C   UNL     1      -0.106   9.248  22.770  0.00  0.00    +0.000 A 
ATOM      4  C   UNL     1      -0.903  10.265  23.111  0.00  0.00    +0.000 A 
ATOM      5  C   UNL     1      -0.957  11.456  22.303  0.00  0.00    +0.000 A 
ATOM      6  C   UNL     1      -0.283  11.537  21.142  0.00  0.00    +0.000 A 
ATOM      7  N   UNL     1       0.499  10.448  20.729  0.00  0.00    +0.000 N 
ATOM      8  C   UNL     1       1.057  10.408  19.376  0.00  0.00    +0.000 C 
ATOM      9  C   UNL     1       0.265  11.300  18.408  0.00  0.00    +0.000 C 
ATOM     10  C   UNL     1       0.425  12.705  18.971  0.00  0.00    +0.000 C 
ATOM     11  C   UNL     1      -0.456  12.751  20.213  0.00  0.00    +0.000 C 
ATOM     12  C   UNL     1      -1.899  12.842  19.682  0.00  0.00    +0.000 C 
ATOM     13  N   UNL     1      -2.266  11.839  18.666  0.00  0.00    +0.000 NA
ATOM     14  C   UNL     1      -1.226  10.833  18.358  0.00  0.00    +0.000 C 
ENDROOT
BRANCH  13  15
ATOM     15  C   UNL     1      -3.542  11.167  19.003  0.00  0.00    +0.000 C 
BRANCH  15  16
ATOM     16  C   UNL     1      -4.782  11.985  18.719  0.00  0.00    +0.000 A 
ATOM     17  C   UNL     1      -5.223  12.122  17.393  0.00  0.00    +0.000 A 
ATOM     18  F   UNL     1      -4.550  11.523  16.398  0.00  0.00    +0.000 F 
ATOM     19  C   UNL     1      -6.360  12.856  17.060  0.00  0.00    +0.000 A 
ATOM     20  C   UNL     1      -7.091  13.481  18.063  0.00  0.00    +0.000 A 
ATOM     21  C   UNL     1      -6.669  13.374  19.389  0.00  0.00    +0.000 A 
ATOM     22  C   UNL     1      -5.523  12.635  19.716  0.00  0.00    +0.000 A 
ATOM     23 CL   UNL     1      -5.062  12.589  21.380  0.00  0.00    +0.000 Cl
ENDBRANCH  15  16
ENDBRANCH  13  15
TORSDOF 2
ENDMDL
