MODEL 1
REMARK VINA RESULT:      -7.7      0.000      0.000
REMARK  Name = 
REMARK  9 active torsions:
REMARK  status: ('A' for Active; 'I' for Inactive)
REMARK    1  A    between atoms: N_1  and  C_2
REMARK    2  A    between atoms: C_7  and  N_8
REMARK    3  A    between atoms: C_9  and  C_11
REMARK    4  A    between atoms: C_14  and  C_15
REMARK    5  A    between atoms: C_15  and  S_16
REMARK    6  A    between atoms: S_16  and  C_17
REMARK    7  A    between atoms: C_17  and  N_19
REMARK    8  A    between atoms: N_22  and  C_23
REMARK    9  A    between atoms: C_23  and  C_24
REMARK                            x       y       z     vdW  Elec       q    Type
REMARK                         _______ _______ _______ _____ _____    ______ ____
ROOT
ATOM      1  C   UNL     1       0.463   9.936  20.843  0.00  0.00    +0.000 A 
ATOM      2  C   UNL     1       0.655   8.739  21.554  0.00  0.00    +0.000 A 
ATOM      3  C   UNL     1       1.361   7.676  20.993  0.00  0.00    +0.000 A 
ATOM      4  C   UNL     1       1.896   7.783  19.704  0.00  0.00    +0.000 A 
ATOM      5  C   UNL     1       1.692   8.971  18.984  0.00  0.00    +0.000 A 
ATOM      6  C   UNL     1       0.982  10.045  19.548  0.00  0.00    +0.000 A 
ENDROOT
BRANCH   1   8
ATOM      7  N   UNL     1      -1.448  11.499  20.922  0.00  0.00    +0.000 N 
ATOM      8  C   UNL     1      -0.316  11.005  21.541  0.00  0.00    +0.000 C 
ATOM      9  O   UNL     1       0.119  11.391  22.622  0.00  0.00    +0.000 OA
ATOM     10  H   UNL     1      -1.828  11.005  20.133  0.00  0.00    +0.000 HD
BRANCH   7  16
ATOM     11  C   UNL     1      -2.005  13.880  20.679  0.00  0.00    +0.000 A 
ATOM     12  C   UNL     1      -2.798  14.977  21.072  0.00  0.00    +0.000 A 
ATOM     13  C   UNL     1      -3.659  14.904  22.173  0.00  0.00    +0.000 A 
ATOM     14  C   UNL     1      -3.768  13.715  22.875  0.00  0.00    +0.000 A 
ATOM     15  C   UNL     1      -3.037  12.599  22.466  0.00  0.00    +0.000 A 
ATOM     16  C   UNL     1      -2.176  12.649  21.354  0.00  0.00    +0.000 A 
BRANCH  11  17
ATOM     17  N   UNL     1      -1.265  13.998  19.483  0.00  0.00    +0.000 N 
ATOM     18  H   UNL     1      -1.838  13.910  18.648  0.00  0.00    +0.000 HD
ATOM     19  H   UNL     1      -0.656  14.801  19.427  0.00  0.00    +0.000 HD
ENDBRANCH  11  17
ENDBRANCH   7  16
ENDBRANCH   1   8
BRANCH   4  20
ATOM     20  C   UNL     1       2.644   6.610  19.109  0.00  0.00    +0.000 C 
BRANCH  20  21
ATOM     21  S   UNL     1       2.041   5.040  19.790  0.00  0.00    +0.000 S 
BRANCH  21  22
ATOM     22  C   UNL     1       3.437   3.961  19.638  0.00  0.00    +0.000 C 
ATOM     23  S   UNL     1       3.577   2.542  20.534  0.00  0.00    +0.000 S 
BRANCH  22  24
ATOM     24  N   UNL     1       4.353   4.343  18.651  0.00  0.00    +0.000 N 
ATOM     25  C   UNL     1       4.111   4.195  17.203  0.00  0.00    +0.000 C 
ATOM     26  C   UNL     1       4.652   5.405  16.402  0.00  0.00    +0.000 C 
ATOM     27  N   UNL     1       6.055   5.775  16.689  0.00  0.00    +0.000 NA
ATOM     28  C   UNL     1       6.197   5.950  18.153  0.00  0.00    +0.000 C 
ATOM     29  C   UNL     1       5.738   4.738  18.979  0.00  0.00    +0.000 C 
BRANCH  27  30
ATOM     30  C   UNL     1       6.975   4.769  16.124  0.00  0.00    +0.000 C 
BRANCH  30  31
ATOM     31  C   UNL     1       6.936   4.630  14.618  0.00  0.00    +0.000 A 
ATOM     32  C   UNL     1       7.762   5.434  13.816  0.00  0.00    +0.000 A 
ATOM     33  C   UNL     1       7.765   5.289  12.429  0.00  0.00    +0.000 A 
ATOM     34  C   UNL     1       6.945   4.335  11.827  0.00  0.00    +0.000 A 
ATOM     35  C   UNL     1       6.118   3.533  12.612  0.00  0.00    +0.000 A 
ATOM     36  C   UNL     1       6.112   3.679  14.001  0.00  0.00    +0.000 A 
ENDBRANCH  30  31
ENDBRANCH  27  30
ENDBRANCH  22  24
ENDBRANCH  21  22
ENDBRANCH  20  21
ENDBRANCH   4  20
TORSDOF 9
ENDMDL
MODEL 2
REMARK VINA RESULT:      -7.7      3.506     11.700
REMARK  Name = 
REMARK  9 active torsions:
REMARK  status: ('A' for Active; 'I' for Inactive)
REMARK    1  A    between atoms: N_1  and  C_2
REMARK    2  A    between atoms: C_7  and  N_8
REMARK    3  A    between atoms: C_9  and  C_11
REMARK    4  A    between atoms: C_14  and  C_15
REMARK    5  A    between atoms: C_15  and  S_16
REMARK    6  A    between atoms: S_16  and  C_17
REMARK    7  A    between atoms: C_17  and  N_19
REMARK    8  A    between atoms: N_22  and  C_23
REMARK    9  A    between atoms: C_23  and  C_24
REMARK                            x       y       z     vdW  Elec       q    Type
REMARK                         _______ _______ _______ _____ _____    ______ ____
ROOT
ATOM      1  C   UNL     1       3.945   5.268  17.456  0.00  0.00    +0.000 A 
ATOM      2  C   UNL     1       3.866   6.658  17.273  0.00  0.00    +0.000 A 
ATOM      3  C   UNL     1       3.171   7.463  18.174  0.00  0.00    +0.000 A 
ATOM      4  C   UNL     1       2.537   6.898  19.287  0.00  0.00    +0.000 A 
ATOM      5  C   UNL     1       2.600   5.506  19.464  0.00  0.00    +0.000 A 
ATOM      6  C   UNL     1       3.302   4.692  18.557  0.00  0.00    +0.000 A 
ENDROOT
BRANCH   1   8
ATOM      7  N   UNL     1       5.077   5.160  15.263  0.00  0.00    +0.000 N 
ATOM      8  C   UNL     1       4.710   4.504  16.423  0.00  0.00    +0.000 C 
ATOM      9  O   UNL     1       4.947   3.325  16.667  0.00  0.00    +0.000 OA
ATOM     10  H   UNL     1       5.002   6.162  15.224  0.00  0.00    +0.000 HD
BRANCH   7  16
ATOM     11  C   UNL     1       6.959   4.792  13.726  0.00  0.00    +0.000 A 
ATOM     12  C   UNL     1       7.497   4.089  12.630  0.00  0.00    +0.000 A 
ATOM     13  C   UNL     1       6.715   3.227  11.855  0.00  0.00    +0.000 A 
ATOM     14  C   UNL     1       5.387   3.024  12.189  0.00  0.00    +0.000 A 
ATOM     15  C   UNL     1       4.849   3.665  13.306  0.00  0.00    +0.000 A 
ATOM     16  C   UNL     1       5.623   4.526  14.107  0.00  0.00    +0.000 A 
BRANCH  11  17
ATOM     17  N   UNL     1       7.846   5.538  14.531  0.00  0.00    +0.000 N 
ATOM     18  H   UNL     1       8.624   5.933  14.009  0.00  0.00    +0.000 HD
ATOM     19  H   UNL     1       7.415   6.232  15.125  0.00  0.00    +0.000 HD
ENDBRANCH  11  17
ENDBRANCH   7  16
ENDBRANCH   1   8
BRANCH   4  20
ATOM     20  C   UNL     1       1.775   7.789  20.242  0.00  0.00    +0.000 C 
BRANCH  20  21
ATOM     21  S   UNL     1       1.099   9.237  19.383  0.00  0.00    +0.000 S 
BRANCH  21  22
ATOM     22  C   UNL     1       0.584  10.298  20.704  0.00  0.00    +0.000 C 
ATOM     23  S   UNL     1       0.406   9.745  22.284  0.00  0.00    +0.000 S 
BRANCH  22  24
ATOM     24  N   UNL     1       0.432  11.640  20.334  0.00  0.00    +0.000 N 
ATOM     25  C   UNL     1       0.660  12.149  18.969  0.00  0.00    +0.000 C 
ATOM     26  C   UNL     1      -0.380  13.225  18.573  0.00  0.00    +0.000 C 
ATOM     27  N   UNL     1      -0.551  14.326  19.547  0.00  0.00    +0.000 NA
ATOM     28  C   UNL     1      -0.822  13.730  20.875  0.00  0.00    +0.000 C 
ATOM     29  C   UNL     1       0.231  12.710  21.334  0.00  0.00    +0.000 C 
BRANCH  27  30
ATOM     30  C   UNL     1       0.629  15.212  19.528  0.00  0.00    +0.000 C 
BRANCH  30  31
ATOM     31  C   UNL     1       0.513  16.427  18.635  0.00  0.00    +0.000 A 
ATOM     32  C   UNL     1       1.649  16.933  17.984  0.00  0.00    +0.000 A 
ATOM     33  C   UNL     1       1.548  18.029  17.127  0.00  0.00    +0.000 A 
ATOM     34  C   UNL     1       0.310  18.631  16.909  0.00  0.00    +0.000 A 
ATOM     35  C   UNL     1      -0.825  18.140  17.553  0.00  0.00    +0.000 A 
ATOM     36  C   UNL     1      -0.726  17.045  18.414  0.00  0.00    +0.000 A 
ENDBRANCH  30  31
ENDBRANCH  27  30
ENDBRANCH  22  24
ENDBRANCH  21  22
ENDBRANCH  20  21
ENDBRANCH   4  20
TORSDOF 9
ENDMDL
MODEL 3
REMARK VINA RESULT:      -7.6      7.303     12.102
REMARK  Name = 
REMARK  9 active torsions:
REMARK  status: ('A' for Active; 'I' for Inactive)
REMARK    1  A    between atoms: N_1  and  C_2
REMARK    2  A    between atoms: C_7  and  N_8
REMARK    3  A    between atoms: C_9  and  C_11
REMARK    4  A    between atoms: C_14  and  C_15
REMARK    5  A    between atoms: C_15  and  S_16
REMARK    6  A    between atoms: S_16  and  C_17
REMARK    7  A    between atoms: C_17  and  N_19
REMARK    8  A    between atoms: N_22  and  C_23
REMARK    9  A    between atoms: C_23  and  C_24
REMARK                            x       y       z     vdW  Elec       q    Type
REMARK                         _______ _______ _______ _____ _____    ______ ____
ROOT
ATOM      1  C   UNL     1       9.296  10.316  18.741  0.00  0.00    +0.000 A 
ATOM      2  C   UNL     1      10.093  10.909  17.748  0.00  0.00    +0.000 A 
ATOM      3  C   UNL     1      11.021  11.899  18.067  0.00  0.00    +0.000 A 
ATOM      4  C   UNL     1      11.179  12.321  19.393  0.00  0.00    +0.000 A 
ATOM      5  C   UNL     1      10.372  11.742  20.386  0.00  0.00    +0.000 A 
ATOM      6  C   UNL     1       9.437  10.742  20.066  0.00  0.00    +0.000 A 
ENDROOT
BRANCH   1   8
ATOM      7  N   UNL     1       8.547   7.963  18.672  0.00  0.00    +0.000 N 
ATOM      8  C   UNL     1       8.330   9.271  18.281  0.00  0.00    +0.000 C 
ATOM      9  O   UNL     1       7.409   9.645  17.563  0.00  0.00    +0.000 OA
ATOM     10  H   UNL     1       9.214   7.775  19.401  0.00  0.00    +0.000 HD
BRANCH   7  16
ATOM     11  C   UNL     1       7.751   5.652  18.930  0.00  0.00    +0.000 A 
ATOM     12  C   UNL     1       6.982   4.582  18.432  0.00  0.00    +0.000 A 
ATOM     13  C   UNL     1       6.408   4.621  17.157  0.00  0.00    +0.000 A 
ATOM     14  C   UNL     1       6.564   5.751  16.373  0.00  0.00    +0.000 A 
ATOM     15  C   UNL     1       7.271   6.846  16.871  0.00  0.00    +0.000 A 
ATOM     16  C   UNL     1       7.845   6.832  18.156  0.00  0.00    +0.000 A 
BRANCH  11  17
ATOM     17  N   UNL     1       8.183   5.586  20.272  0.00  0.00    +0.000 N 
ATOM     18  H   UNL     1       7.451   5.813  20.940  0.00  0.00    +0.000 HD
ATOM     19  H   UNL     1       8.664   4.736  20.532  0.00  0.00    +0.000 HD
ENDBRANCH  11  17
ENDBRANCH   7  16
ENDBRANCH   1   8
BRANCH   4  20
ATOM     20  C   UNL     1      12.179  13.409  19.713  0.00  0.00    +0.000 C 
BRANCH  20  21
ATOM     21  S   UNL     1      11.341  14.940  20.209  0.00  0.00    +0.000 S 
BRANCH  21  22
ATOM     22  C   UNL     1      10.524  15.462  18.728  0.00  0.00    +0.000 C 
ATOM     23  S   UNL     1      11.317  15.547  17.246  0.00  0.00    +0.000 S 
BRANCH  22  24
ATOM     24  N   UNL     1       9.153  15.704  18.884  0.00  0.00    +0.000 N 
ATOM     25  C   UNL     1       8.140  14.640  19.012  0.00  0.00    +0.000 C 
ATOM     26  C   UNL     1       7.046  15.007  20.045  0.00  0.00    +0.000 C 
ATOM     27  N   UNL     1       6.424  16.337  19.859  0.00  0.00    +0.000 NA
ATOM     28  C   UNL     1       7.506  17.347  19.789  0.00  0.00    +0.000 C 
ATOM     29  C   UNL     1       8.572  17.053  18.722  0.00  0.00    +0.000 C 
BRANCH  27  30
ATOM     30  C   UNL     1       5.547  16.330  18.673  0.00  0.00    +0.000 C 
BRANCH  30  31
ATOM     31  C   UNL     1       4.220  15.625  18.853  0.00  0.00    +0.000 A 
ATOM     32  C   UNL     1       3.904  14.509  18.060  0.00  0.00    +0.000 A 
ATOM     33  C   UNL     1       2.701  13.826  18.243  0.00  0.00    +0.000 A 
ATOM     34  C   UNL     1       1.803  14.247  19.222  0.00  0.00    +0.000 A 
ATOM     35  C   UNL     1       2.104  15.356  20.013  0.00  0.00    +0.000 A 
ATOM     36  C   UNL     1       3.307  16.043  19.829  0.00  0.00    +0.000 A 
ENDBRANCH  30  31
ENDBRANCH  27  30
ENDBRANCH  22  24
ENDBRANCH  21  22
ENDBRANCH  20  21
ENDBRANCH   4  20
TORSDOF 9
ENDMDL
MODEL 4
REMARK VINA RESULT:      -7.6      5.006     10.464
REMARK  Name = 
REMARK  9 active torsions:
REMARK  status: ('A' for Active; 'I' for Inactive)
REMARK    1  A    between atoms: N_1  and  C_2
REMARK    2  A    between atoms: C_7  and  N_8
REMARK    3  A    between atoms: C_9  and  C_11
REMARK    4  A    between atoms: C_14  and  C_15
REMARK    5  A    between atoms: C_15  and  S_16
REMARK    6  A    between atoms: S_16  and  C_17
REMARK    7  A    between atoms: C_17  and  N_19
REMARK    8  A    between atoms: N_22  and  C_23
REMARK    9  A    between atoms: C_23  and  C_24
REMARK                            x       y       z     vdW  Elec       q    Type
REMARK                         _______ _______ _______ _____ _____    ______ ____
ROOT
ATOM      1  C   UNL     1       2.374   7.493  19.057  0.00  0.00    +0.000 A 
ATOM      2  C   UNL     1       1.974   8.535  18.203  0.00  0.00    +0.000 A 
ATOM      3  C   UNL     1       1.119   9.541  18.648  0.00  0.00    +0.000 A 
ATOM      4  C   UNL     1       0.642   9.534  19.964  0.00  0.00    +0.000 A 
ATOM      5  C   UNL     1       1.026   8.486  20.816  0.00  0.00    +0.000 A 
ATOM      6  C   UNL     1       1.890   7.470  20.369  0.00  0.00    +0.000 A 
ENDROOT
BRANCH   1   8
ATOM      7  N   UNL     1       4.441   6.896  17.844  0.00  0.00    +0.000 N 
ATOM      8  C   UNL     1       3.286   6.465  18.469  0.00  0.00    +0.000 C 
ATOM      9  O   UNL     1       2.935   5.293  18.563  0.00  0.00    +0.000 OA
ATOM     10  H   UNL     1       4.738   7.849  17.970  0.00  0.00    +0.000 HD
BRANCH   7  16
ATOM     11  C   UNL     1       6.280   5.271  17.704  0.00  0.00    +0.000 A 
ATOM     12  C   UNL     1       7.059   4.402  16.915  0.00  0.00    +0.000 A 
ATOM     13  C   UNL     1       6.963   4.390  15.520  0.00  0.00    +0.000 A 
ATOM     14  C   UNL     1       6.054   5.226  14.892  0.00  0.00    +0.000 A 
ATOM     15  C   UNL     1       5.230   6.052  15.658  0.00  0.00    +0.000 A 
ATOM     16  C   UNL     1       5.302   6.068  17.063  0.00  0.00    +0.000 A 
BRANCH  11  17
ATOM     17  N   UNL     1       6.345   5.126  19.106  0.00  0.00    +0.000 N 
ATOM     18  H   UNL     1       5.702   4.425  19.466  0.00  0.00    +0.000 HD
ATOM     19  H   UNL     1       7.272   5.003  19.488  0.00  0.00    +0.000 HD
ENDBRANCH  11  17
ENDBRANCH   7  16
ENDBRANCH   1   8
BRANCH   4  20
ATOM     20  C   UNL     1      -0.299  10.627  20.421  0.00  0.00    +0.000 C 
BRANCH  20  21
ATOM     21  S   UNL     1       0.617  12.123  20.886  0.00  0.00    +0.000 S 
BRANCH  21  22
ATOM     22  C   UNL     1       0.501  13.144  19.444  0.00  0.00    +0.000 C 
ATOM     23  S   UNL     1      -0.772  13.012  18.350  0.00  0.00    +0.000 S 
BRANCH  22  24
ATOM     24  N   UNL     1       1.502  14.119  19.350  0.00  0.00    +0.000 N 
ATOM     25  C   UNL     1       1.272  15.487  18.850  0.00  0.00    +0.000 C 
ATOM     26  C   UNL     1       2.072  16.538  19.658  0.00  0.00    +0.000 C 
ATOM     27  N   UNL     1       3.515  16.247  19.818  0.00  0.00    +0.000 NA
ATOM     28  C   UNL     1       3.651  14.878  20.367  0.00  0.00    +0.000 C 
ATOM     29  C   UNL     1       2.930  13.797  19.548  0.00  0.00    +0.000 C 
BRANCH  27  30
ATOM     30  C   UNL     1       4.220  16.441  18.536  0.00  0.00    +0.000 C 
BRANCH  30  31
ATOM     31  C   UNL     1       5.684  16.059  18.539  0.00  0.00    +0.000 A 
ATOM     32  C   UNL     1       6.112  14.912  17.852  0.00  0.00    +0.000 A 
ATOM     33  C   UNL     1       7.464  14.570  17.813  0.00  0.00    +0.000 A 
ATOM     34  C   UNL     1       8.404  15.373  18.457  0.00  0.00    +0.000 A 
ATOM     35  C   UNL     1       7.990  16.513  19.145  0.00  0.00    +0.000 A 
ATOM     36  C   UNL     1       6.637  16.856  19.187  0.00  0.00    +0.000 A 
ENDBRANCH  30  31
ENDBRANCH  27  30
ENDBRANCH  22  24
ENDBRANCH  21  22
ENDBRANCH  20  21
ENDBRANCH   4  20
TORSDOF 9
ENDMDL
MODEL 5
REMARK VINA RESULT:      -7.6      5.477     10.245
REMARK  Name = 
REMARK  9 active torsions:
REMARK  status: ('A' for Active; 'I' for Inactive)
REMARK    1  A    between atoms: N_1  and  C_2
REMARK    2  A    between atoms: C_7  and  N_8
REMARK    3  A    between atoms: C_9  and  C_11
REMARK    4  A    between atoms: C_14  and  C_15
REMARK    5  A    between atoms: C_15  and  S_16
REMARK    6  A    between atoms: S_16  and  C_17
REMARK    7  A    between atoms: C_17  and  N_19
REMARK    8  A    between atoms: N_22  and  C_23
REMARK    9  A    between atoms: C_23  and  C_24
REMARK                            x       y       z     vdW  Elec       q    Type
REMARK                         _______ _______ _______ _____ _____    ______ ____
ROOT
ATOM      1  C   UNL     1       2.356   7.817  18.669  0.00  0.00    +0.000 A 
ATOM      2  C   UNL     1       2.098   8.909  17.825  0.00  0.00    +0.000 A 
ATOM      3  C   UNL     1       1.345   9.996  18.266  0.00  0.00    +0.000 A 
ATOM      4  C   UNL     1       0.832  10.021  19.568  0.00  0.00    +0.000 A 
ATOM      5  C   UNL     1       1.074   8.922  20.410  0.00  0.00    +0.000 A 
ATOM      6  C   UNL     1       1.834   7.826  19.967  0.00  0.00    +0.000 A 
ENDROOT
BRANCH   1   8
ATOM      7  N   UNL     1       4.475   6.968  17.726  0.00  0.00    +0.000 N 
ATOM      8  C   UNL     1       3.168   6.704  18.086  0.00  0.00    +0.000 C 
ATOM      9  O   UNL     1       2.606   5.622  17.946  0.00  0.00    +0.000 OA
ATOM     10  H   UNL     1       4.906   7.822  18.039  0.00  0.00    +0.000 HD
BRANCH   7  16
ATOM     11  C   UNL     1       6.284   5.306  17.642  0.00  0.00    +0.000 A 
ATOM     12  C   UNL     1       7.034   4.381  16.890  0.00  0.00    +0.000 A 
ATOM     13  C   UNL     1       6.911   4.294  15.499  0.00  0.00    +0.000 A 
ATOM     14  C   UNL     1       6.004   5.109  14.842  0.00  0.00    +0.000 A 
ATOM     15  C   UNL     1       5.209   5.990  15.575  0.00  0.00    +0.000 A 
ATOM     16  C   UNL     1       5.308   6.083  16.976  0.00  0.00    +0.000 A 
BRANCH  11  17
ATOM     17  N   UNL     1       6.373   5.238  19.049  0.00  0.00    +0.000 N 
ATOM     18  H   UNL     1       5.550   5.604  19.521  0.00  0.00    +0.000 HD
ATOM     19  H   UNL     1       6.640   4.339  19.424  0.00  0.00    +0.000 HD
ENDBRANCH  11  17
ENDBRANCH   7  16
ENDBRANCH   1   8
BRANCH   4  20
ATOM     20  C   UNL     1       0.003  11.203  20.020  0.00  0.00    +0.000 C 
BRANCH  20  21
ATOM     21  S   UNL     1       1.041  12.457  20.821  0.00  0.00    +0.000 S 
BRANCH  21  22
ATOM     22  C   UNL     1       1.072  13.780  19.644  0.00  0.00    +0.000 C 
ATOM     23  S   UNL     1      -0.325  14.585  19.160  0.00  0.00    +0.000 S 
BRANCH  22  24
ATOM     24  N   UNL     1       2.358  14.149  19.232  0.00  0.00    +0.000 N 
ATOM     25  C   UNL     1       2.735  14.385  17.825  0.00  0.00    +0.000 C 
ATOM     26  C   UNL     1       3.704  15.583  17.681  0.00  0.00    +0.000 C 
ATOM     27  N   UNL     1       4.889  15.547  18.567  0.00  0.00    +0.000 NA
ATOM     28  C   UNL     1       4.419  15.356  19.959  0.00  0.00    +0.000 C 
ATOM     29  C   UNL     1       3.512  14.131  20.154  0.00  0.00    +0.000 C 
BRANCH  27  30
ATOM     30  C   UNL     1       5.833  14.506  18.116  0.00  0.00    +0.000 C 
BRANCH  30  31
ATOM     31  C   UNL     1       7.297  14.830  18.312  0.00  0.00    +0.000 A 
ATOM     32  C   UNL     1       8.140  13.911  18.958  0.00  0.00    +0.000 A 
ATOM     33  C   UNL     1       9.500  14.181  19.111  0.00  0.00    +0.000 A 
ATOM     34  C   UNL     1      10.035  15.369  18.617  0.00  0.00    +0.000 A 
ATOM     35  C   UNL     1       9.207  16.291  17.976  0.00  0.00    +0.000 A 
ATOM     36  C   UNL     1       7.844  16.024  17.825  0.00  0.00    +0.000 A 
ENDBRANCH  30  31
ENDBRANCH  27  30
ENDBRANCH  22  24
ENDBRANCH  21  22
ENDBRANCH  20  21
ENDBRANCH   4  20
TORSDOF 9
ENDMDL
MODEL 6
REMARK VINA RESULT:      -7.6      3.338     12.859
REMARK  Name = 
REMARK  9 active torsions:
REMARK  status: ('A' for Active; 'I' for Inactive)
REMARK    1  A    between atoms: N_1  and  C_2
REMARK    2  A    between atoms: C_7  and  N_8
REMARK    3  A    between atoms: C_9  and  C_11
REMARK    4  A    between atoms: C_14  and  C_15
REMARK    5  A    between atoms: C_15  and  S_16
REMARK    6  A    between atoms: S_16  and  C_17
REMARK    7  A    between atoms: C_17  and  N_19
REMARK    8  A    between atoms: N_22  and  C_23
REMARK    9  A    between atoms: C_23  and  C_24
REMARK                            x       y       z     vdW  Elec       q    Type
REMARK                         _______ _______ _______ _____ _____    ______ ____
ROOT
ATOM      1  C   UNL     1       2.299   7.874  18.616  0.00  0.00    +0.000 A 
ATOM      2  C   UNL     1       1.883   7.857  19.958  0.00  0.00    +0.000 A 
ATOM      3  C   UNL     1       1.025   8.835  20.456  0.00  0.00    +0.000 A 
ATOM      4  C   UNL     1       0.556   9.858  19.623  0.00  0.00    +0.000 A 
ATOM      5  C   UNL     1       0.983   9.888  18.286  0.00  0.00    +0.000 A 
ATOM      6  C   UNL     1       1.847   8.901  17.780  0.00  0.00    +0.000 A 
ENDROOT
BRANCH   1   8
ATOM      7  N   UNL     1       4.404   7.127  17.561  0.00  0.00    +0.000 N 
ATOM      8  C   UNL     1       3.226   6.779  18.194  0.00  0.00    +0.000 C 
ATOM      9  O   UNL     1       2.866   5.629  18.423  0.00  0.00    +0.000 OA
ATOM     10  H   UNL     1       4.701   8.088  17.576  0.00  0.00    +0.000 HD
BRANCH   7  16
ATOM     11  C   UNL     1       6.214   5.471  17.696  0.00  0.00    +0.000 A 
ATOM     12  C   UNL     1       7.015   4.509  17.049  0.00  0.00    +0.000 A 
ATOM     13  C   UNL     1       6.991   4.346  15.660  0.00  0.00    +0.000 A 
ATOM     14  C   UNL     1       6.132   5.121  14.897  0.00  0.00    +0.000 A 
ATOM     15  C   UNL     1       5.287   6.038  15.524  0.00  0.00    +0.000 A 
ATOM     16  C   UNL     1       5.287   6.207  16.921  0.00  0.00    +0.000 A 
BRANCH  11  17
ATOM     17  N   UNL     1       6.204   5.479  19.107  0.00  0.00    +0.000 N 
ATOM     18  H   UNL     1       5.834   6.340  19.500  0.00  0.00    +0.000 HD
ATOM     19  H   UNL     1       5.787   4.668  19.543  0.00  0.00    +0.000 HD
ENDBRANCH  11  17
ENDBRANCH   7  16
ENDBRANCH   1   8
BRANCH   4  20
ATOM     20  C   UNL     1      -0.361  10.919  20.190  0.00  0.00    +0.000 C 
BRANCH  20  21
ATOM     21  S   UNL     1      -0.979  12.013  18.882  0.00  0.00    +0.000 S 
BRANCH  21  22
ATOM     22  C   UNL     1      -2.538  11.296  18.444  0.00  0.00    +0.000 C 
ATOM     23  S   UNL     1      -2.654   9.903  17.506  0.00  0.00    +0.000 S 
BRANCH  22  24
ATOM     24  N   UNL     1      -3.644  11.932  19.021  0.00  0.00    +0.000 N 
ATOM     25  C   UNL     1      -4.988  11.955  18.415  0.00  0.00    +0.000 C 
ATOM     26  C   UNL     1      -6.103  11.803  19.479  0.00  0.00    +0.000 C 
ATOM     27  N   UNL     1      -6.005  12.725  20.632  0.00  0.00    +0.000 NA
ATOM     28  C   UNL     1      -4.645  12.603  21.207  0.00  0.00    +0.000 C 
ATOM     29  C   UNL     1      -3.512  12.822  20.193  0.00  0.00    +0.000 C 
BRANCH  27  30
ATOM     30  C   UNL     1      -6.349  14.099  20.217  0.00  0.00    +0.000 C 
BRANCH  30  31
ATOM     31  C   UNL     1      -6.573  15.080  21.347  0.00  0.00    +0.000 A 
ATOM     32  C   UNL     1      -5.734  16.198  21.484  0.00  0.00    +0.000 A 
ATOM     33  C   UNL     1      -5.954  17.131  22.498  0.00  0.00    +0.000 A 
ATOM     34  C   UNL     1      -7.015  16.959  23.384  0.00  0.00    +0.000 A 
ATOM     35  C   UNL     1      -7.853  15.850  23.261  0.00  0.00    +0.000 A 
ATOM     36  C   UNL     1      -7.633  14.914  22.248  0.00  0.00    +0.000 A 
ENDBRANCH  30  31
ENDBRANCH  27  30
ENDBRANCH  22  24
ENDBRANCH  21  22
ENDBRANCH  20  21
ENDBRANCH   4  20
TORSDOF 9
ENDMDL
MODEL 7
REMARK VINA RESULT:      -7.6      1.167      1.500
REMARK  Name = 
REMARK  9 active torsions:
REMARK  status: ('A' for Active; 'I' for Inactive)
REMARK    1  A    between atoms: N_1  and  C_2
REMARK    2  A    between atoms: C_7  and  N_8
REMARK    3  A    between atoms: C_9  and  C_11
REMARK    4  A    between atoms: C_14  and  C_15
REMARK    5  A    between atoms: C_15  and  S_16
REMARK    6  A    between atoms: S_16  and  C_17
REMARK    7  A    between atoms: C_17  and  N_19
REMARK    8  A    between atoms: N_22  and  C_23
REMARK    9  A    between atoms: C_23  and  C_24
REMARK                            x       y       z     vdW  Elec       q    Type
REMARK                         _______ _______ _______ _____ _____    ______ ____
ROOT
ATOM      1  C   UNL     1      -0.263  10.541  19.804  0.00  0.00    +0.000 A 
ATOM      2  C   UNL     1       0.140   9.546  20.711  0.00  0.00    +0.000 A 
ATOM      3  C   UNL     1       1.035   8.548  20.332  0.00  0.00    +0.000 A 
ATOM      4  C   UNL     1       1.556   8.520  19.032  0.00  0.00    +0.000 A 
ATOM      5  C   UNL     1       1.143   9.503  18.118  0.00  0.00    +0.000 A 
ATOM      6  C   UNL     1       0.241  10.511  18.499  0.00  0.00    +0.000 A 
ENDROOT
BRANCH   1   8
ATOM      7  N   UNL     1      -1.103  11.980  21.628  0.00  0.00    +0.000 N 
ATOM      8  C   UNL     1      -1.233  11.556  20.319  0.00  0.00    +0.000 C 
ATOM      9  O   UNL     1      -2.103  11.935  19.542  0.00  0.00    +0.000 OA
ATOM     10  H   UNL     1      -0.263  11.756  22.133  0.00  0.00    +0.000 HD
BRANCH   7  16
ATOM     11  C   UNL     1      -2.135  14.167  22.066  0.00  0.00    +0.000 A 
ATOM     12  C   UNL     1      -3.144  14.915  22.705  0.00  0.00    +0.000 A 
ATOM     13  C   UNL     1      -3.991  14.341  23.659  0.00  0.00    +0.000 A 
ATOM     14  C   UNL     1      -3.866  12.995  23.961  0.00  0.00    +0.000 A 
ATOM     15  C   UNL     1      -2.913  12.222  23.296  0.00  0.00    +0.000 A 
ATOM     16  C   UNL     1      -2.061  12.778  22.324  0.00  0.00    +0.000 A 
BRANCH  11  17
ATOM     17  N   UNL     1      -1.413  14.788  21.025  0.00  0.00    +0.000 N 
ATOM     18  H   UNL     1      -0.829  14.142  20.502  0.00  0.00    +0.000 HD
ATOM     19  H   UNL     1      -1.958  15.372  20.407  0.00  0.00    +0.000 HD
ENDBRANCH  11  17
ENDBRANCH   7  16
ENDBRANCH   1   8
BRANCH   4  20
ATOM     20  C   UNL     1       2.513   7.417  18.638  0.00  0.00    +0.000 C 
BRANCH  20  21
ATOM     21  S   UNL     1       2.823   6.295  20.029  0.00  0.00    +0.000 S 
BRANCH  21  22
ATOM     22  C   UNL     1       3.421   4.823  19.248  0.00  0.00    +0.000 C 
ATOM     23  S   UNL     1       2.729   3.314  19.526  0.00  0.00    +0.000 S 
BRANCH  22  24
ATOM     24  N   UNL     1       4.447   5.042  18.320  0.00  0.00    +0.000 N 
ATOM     25  C   UNL     1       4.282   4.899  16.862  0.00  0.00    +0.000 C 
ATOM     26  C   UNL     1       5.050   5.996  16.084  0.00  0.00    +0.000 C 
ATOM     27  N   UNL     1       6.471   6.159  16.462  0.00  0.00    +0.000 NA
ATOM     28  C   UNL     1       6.541   6.344  17.930  0.00  0.00    +0.000 C 
ATOM     29  C   UNL     1       5.852   5.233  18.737  0.00  0.00    +0.000 C 
BRANCH  27  30
ATOM     30  C   UNL     1       7.264   5.014  15.973  0.00  0.00    +0.000 C 
BRANCH  30  31
ATOM     31  C   UNL     1       7.120   4.710  14.498  0.00  0.00    +0.000 A 
ATOM     32  C   UNL     1       6.225   3.716  14.070  0.00  0.00    +0.000 A 
ATOM     33  C   UNL     1       6.054   3.452  12.711  0.00  0.00    +0.000 A 
ATOM     34  C   UNL     1       6.772   4.180  11.764  0.00  0.00    +0.000 A 
ATOM     35  C   UNL     1       7.667   5.168  12.178  0.00  0.00    +0.000 A 
ATOM     36  C   UNL     1       7.842   5.431  13.538  0.00  0.00    +0.000 A 
ENDBRANCH  30  31
ENDBRANCH  27  30
ENDBRANCH  22  24
ENDBRANCH  21  22
ENDBRANCH  20  21
ENDBRANCH   4  20
TORSDOF 9
ENDMDL
MODEL 8
REMARK VINA RESULT:      -7.5      4.901     10.288
REMARK  Name = 
REMARK  9 active torsions:
REMARK  status: ('A' for Active; 'I' for Inactive)
REMARK    1  A    between atoms: N_1  and  C_2
REMARK    2  A    between atoms: C_7  and  N_8
REMARK    3  A    between atoms: C_9  and  C_11
REMARK    4  A    between atoms: C_14  and  C_15
REMARK    5  A    between atoms: C_15  and  S_16
REMARK    6  A    between atoms: S_16  and  C_17
REMARK    7  A    between atoms: C_17  and  N_19
REMARK    8  A    between atoms: N_22  and  C_23
REMARK    9  A    between atoms: C_23  and  C_24
REMARK                            x       y       z     vdW  Elec       q    Type
REMARK                         _______ _______ _______ _____ _____    ______ ____
ROOT
ATOM      1  C   UNL     1       2.288   7.815  18.569  0.00  0.00    +0.000 A 
ATOM      2  C   UNL     1       1.982   7.817  19.940  0.00  0.00    +0.000 A 
ATOM      3  C   UNL     1       1.148   8.789  20.489  0.00  0.00    +0.000 A 
ATOM      4  C   UNL     1       0.594   9.787  19.678  0.00  0.00    +0.000 A 
ATOM      5  C   UNL     1       0.912   9.798  18.310  0.00  0.00    +0.000 A 
ATOM      6  C   UNL     1       1.752   8.817  17.754  0.00  0.00    +0.000 A 
ENDROOT
BRANCH   1   8
ATOM      7  N   UNL     1       4.454   7.081  17.635  0.00  0.00    +0.000 N 
ATOM      8  C   UNL     1       3.200   6.728  18.094  0.00  0.00    +0.000 C 
ATOM      9  O   UNL     1       2.760   5.583  18.125  0.00  0.00    +0.000 OA
ATOM     10  H   UNL     1       4.796   8.011  17.812  0.00  0.00    +0.000 HD
BRANCH   7  16
ATOM     11  C   UNL     1       6.339   5.505  17.705  0.00  0.00    +0.000 A 
ATOM     12  C   UNL     1       7.158   4.578  17.031  0.00  0.00    +0.000 A 
ATOM     13  C   UNL     1       7.091   4.412  15.644  0.00  0.00    +0.000 A 
ATOM     14  C   UNL     1       6.173   5.147  14.912  0.00  0.00    +0.000 A 
ATOM     15  C   UNL     1       5.311   6.027  15.568  0.00  0.00    +0.000 A 
ATOM     16  C   UNL     1       5.354   6.199  16.964  0.00  0.00    +0.000 A 
BRANCH  11  17
ATOM     17  N   UNL     1       6.378   5.516  19.116  0.00  0.00    +0.000 N 
ATOM     18  H   UNL     1       5.543   5.123  19.543  0.00  0.00    +0.000 HD
ATOM     19  H   UNL     1       7.216   5.132  19.530  0.00  0.00    +0.000 HD
ENDBRANCH  11  17
ENDBRANCH   7  16
ENDBRANCH   1   8
BRANCH   4  20
ATOM     20  C   UNL     1      -0.294  10.843  20.298  0.00  0.00    +0.000 C 
BRANCH  20  21
ATOM     21  S   UNL     1      -0.344  12.338  19.271  0.00  0.00    +0.000 S 
BRANCH  21  22
ATOM     22  C   UNL     1       0.298  13.595  20.340  0.00  0.00    +0.000 C 
ATOM     23  S   UNL     1      -0.362  13.908  21.856  0.00  0.00    +0.000 S 
BRANCH  22  24
ATOM     24  N   UNL     1       1.445  14.232  19.851  0.00  0.00    +0.000 N 
ATOM     25  C   UNL     1       2.762  13.579  19.737  0.00  0.00    +0.000 C 
ATOM     26  C   UNL     1       3.503  13.999  18.444  0.00  0.00    +0.000 C 
ATOM     27  N   UNL     1       3.593  15.458  18.213  0.00  0.00    +0.000 NA
ATOM     28  C   UNL     1       2.226  16.024  18.298  0.00  0.00    +0.000 C 
ATOM     29  C   UNL     1       1.487  15.688  19.603  0.00  0.00    +0.000 C 
BRANCH  27  30
ATOM     30  C   UNL     1       4.543  16.068  19.163  0.00  0.00    +0.000 C 
BRANCH  30  31
ATOM     31  C   UNL     1       5.915  15.432  19.204  0.00  0.00    +0.000 A 
ATOM     32  C   UNL     1       6.681  15.336  18.032  0.00  0.00    +0.000 A 
ATOM     33  C   UNL     1       7.963  14.787  18.064  0.00  0.00    +0.000 A 
ATOM     34  C   UNL     1       8.496  14.331  19.268  0.00  0.00    +0.000 A 
ATOM     35  C   UNL     1       7.743  14.417  20.439  0.00  0.00    +0.000 A 
ATOM     36  C   UNL     1       6.458  14.964  20.409  0.00  0.00    +0.000 A 
ENDBRANCH  30  31
ENDBRANCH  27  30
ENDBRANCH  22  24
ENDBRANCH  21  22
ENDBRANCH  20  21
ENDBRANCH   4  20
TORSDOF 9
ENDMDL
MODEL 9
REMARK VINA RESULT:      -7.4      5.718      9.724
REMARK  Name = 
REMARK  9 active torsions:
REMARK  status: ('A' for Active; 'I' for Inactive)
REMARK    1  A    between atoms: N_1  and  C_2
REMARK    2  A    between atoms: C_7  and  N_8
REMARK    3  A    between atoms: C_9  and  C_11
REMARK    4  A    between atoms: C_14  and  C_15
REMARK    5  A    between atoms: C_15  and  S_16
REMARK    6  A    between atoms: S_16  and  C_17
REMARK    7  A    between atoms: C_17  and  N_19
REMARK    8  A    between atoms: N_22  and  C_23
REMARK    9  A    between atoms: C_23  and  C_24
REMARK                            x       y       z     vdW  Elec       q    Type
REMARK                         _______ _______ _______ _____ _____    ______ ____
ROOT
ATOM      1  C   UNL     1       1.598   8.282  19.810  0.00  0.00    +0.000 A 
ATOM      2  C   UNL     1       1.837   8.982  18.616  0.00  0.00    +0.000 A 
ATOM      3  C   UNL     1       1.512  10.333  18.498  0.00  0.00    +0.000 A 
ATOM      4  C   UNL     1       0.941  11.021  19.575  0.00  0.00    +0.000 A 
ATOM      5  C   UNL     1       0.686  10.319  20.765  0.00  0.00    +0.000 A 
ATOM      6  C   UNL     1       1.014   8.957  20.886  0.00  0.00    +0.000 A 
ENDROOT
BRANCH   1   8
ATOM      7  N   UNL     1       2.601   6.316  18.699  0.00  0.00    +0.000 N 
ATOM      8  C   UNL     1       1.979   6.835  19.819  0.00  0.00    +0.000 C 
ATOM      9  O   UNL     1       1.693   6.193  20.824  0.00  0.00    +0.000 OA
ATOM     10  H   UNL     1       2.957   6.947  18.001  0.00  0.00    +0.000 HD
BRANCH   7  16
ATOM     11  C   UNL     1       4.125   4.388  18.711  0.00  0.00    +0.000 A 
ATOM     12  C   UNL     1       4.310   3.000  18.557  0.00  0.00    +0.000 A 
ATOM     13  C   UNL     1       3.291   2.172  18.073  0.00  0.00    +0.000 A 
ATOM     14  C   UNL     1       2.054   2.718  17.771  0.00  0.00    +0.000 A 
ATOM     15  C   UNL     1       1.832   4.081  17.973  0.00  0.00    +0.000 A 
ATOM     16  C   UNL     1       2.839   4.927  18.471  0.00  0.00    +0.000 A 
BRANCH  11  17
ATOM     17  N   UNL     1       5.158   5.127  19.326  0.00  0.00    +0.000 N 
ATOM     18  H   UNL     1       5.546   4.666  20.145  0.00  0.00    +0.000 HD
ATOM     19  H   UNL     1       5.889   5.450  18.708  0.00  0.00    +0.000 HD
ENDBRANCH  11  17
ENDBRANCH   7  16
ENDBRANCH   1   8
BRANCH   4  20
ATOM     20  C   UNL     1       0.581  12.482  19.419  0.00  0.00    +0.000 C 
BRANCH  20  21
ATOM     21  S   UNL     1       1.524  13.512  20.578  0.00  0.00    +0.000 S 
BRANCH  21  22
ATOM     22  C   UNL     1       2.104  14.845  19.568  0.00  0.00    +0.000 C 
ATOM     23  S   UNL     1       1.066  16.010  18.934  0.00  0.00    +0.000 S 
BRANCH  22  24
ATOM     24  N   UNL     1       3.496  14.893  19.426  0.00  0.00    +0.000 N 
ATOM     25  C   UNL     1       4.232  14.247  18.323  0.00  0.00    +0.000 C 
ATOM     26  C   UNL     1       5.408  15.123  17.825  0.00  0.00    +0.000 C 
ATOM     27  N   UNL     1       6.322  15.614  18.881  0.00  0.00    +0.000 NA
ATOM     28  C   UNL     1       5.507  16.287  19.919  0.00  0.00    +0.000 C 
ATOM     29  C   UNL     1       4.375  15.420  20.491  0.00  0.00    +0.000 C 
BRANCH  27  30
ATOM     30  C   UNL     1       7.142  14.504  19.403  0.00  0.00    +0.000 C 
BRANCH  30  31
ATOM     31  C   UNL     1       8.417  14.226  18.638  0.00  0.00    +0.000 A 
ATOM     32  C   UNL     1       9.372  15.241  18.470  0.00  0.00    +0.000 A 
ATOM     33  C   UNL     1      10.569  14.987  17.801  0.00  0.00    +0.000 A 
ATOM     34  C   UNL     1      10.828  13.714  17.294  0.00  0.00    +0.000 A 
ATOM     35  C   UNL     1       9.884  12.698  17.451  0.00  0.00    +0.000 A 
ATOM     36  C   UNL     1       8.684  12.952  18.118  0.00  0.00    +0.000 A 
ENDBRANCH  30  31
ENDBRANCH  27  30
ENDBRANCH  22  24
ENDBRANCH  21  22
ENDBRANCH  20  21
ENDBRANCH   4  20
TORSDOF 9
ENDMDL
