MODEL 1
REMARK VINA RESULT:      -7.9      0.000      0.000
REMARK  Name = 
REMARK  5 active torsions:
REMARK  status: ('A' for Active; 'I' for Inactive)
REMARK    1  A    between atoms: C_1  and  O_2
REMARK    2  A    between atoms: O_2  and  C_3
REMARK    3  A    between atoms: C_8  and  O_9
REMARK    4  A    between atoms: O_9  and  C_10
REMARK    5  A    between atoms: C_13  and  C_14
REMARK                            x       y       z     vdW  Elec       q    Type
REMARK                         _______ _______ _______ _____ _____    ______ ____
ROOT
ATOM      1  C   UNL     1       6.494   5.313  16.153  0.00  0.00    +0.000 A 
ATOM      2  C   UNL     1       5.825   4.121  16.459  0.00  0.00    +0.000 A 
ATOM      3  C   UNL     1       4.729   4.090  17.342  0.00  0.00    +0.000 A 
ATOM      4  C   UNL     1       4.331   5.249  18.008  0.00  0.00    +0.000 A 
ATOM      5  C   UNL     1       5.085   6.415  17.766  0.00  0.00    +0.000 A 
ATOM      6  C   UNL     1       6.149   6.469  16.851  0.00  0.00    +0.000 A 
ATOM      7  C   UNL     1       3.144   5.229  18.905  0.00  0.00    +0.000 A 
ATOM      8  C   UNL     1       2.734   6.338  19.548  0.00  0.00    +0.000 A 
ATOM      9  C   UNL     1       1.572   6.368  20.419  0.00  0.00    +0.000 A 
ATOM     10  C   UNL     1       0.873   5.236  20.572  0.00  0.00    +0.000 A 
ATOM     11  C   UNL     1       1.279   3.992  19.880  0.00  0.00    +0.000 A 
ATOM     12  O   UNL     1       0.608   2.975  20.050  0.00  0.00    +0.000 OA
ATOM     13  N   UNL     1       2.416   4.056  19.073  0.00  0.00    +0.000 N 
ATOM     14  C   UNL     1       2.793   2.806  18.435  0.00  0.00    +0.000 C 
ATOM     15  C   UNL     1       3.990   2.796  17.496  0.00  0.00    +0.000 C 
ENDROOT
BRANCH   9  16
ATOM     16  C   UNL     1       1.141   7.540  21.130  0.00  0.00    +0.000 A 
ATOM     17  C   UNL     1      -0.140   8.063  21.288  0.00  0.00    +0.000 A 
ATOM     18  C   UNL     1      -0.050   9.237  22.071  0.00  0.00    +0.000 A 
ATOM     19  C   UNL     1       1.279   9.385  22.364  0.00  0.00    +0.000 A 
ATOM     20  O   UNL     1       2.001   8.382  21.813  0.00  0.00    +0.000 OA
ENDBRANCH   9  16
BRANCH   1  22
ATOM     21  C   UNL     1       7.103   4.824  13.926  0.00  0.00    +0.000 C 
ATOM     22  O   UNL     1       7.475   5.349  15.201  0.00  0.00    +0.000 OA
ENDBRANCH   1  22
BRANCH   6  23
ATOM     23  O   UNL     1       6.677   7.729  16.768  0.00  0.00    +0.000 OA
ATOM     24  C   UNL     1       7.767   8.082  17.602  0.00  0.00    +0.000 C 
ENDBRANCH   6  23
TORSDOF 3
ENDMDL
MODEL 2
REMARK VINA RESULT:      -7.6      2.273      6.749
REMARK  Name = 
REMARK  5 active torsions:
REMARK  status: ('A' for Active; 'I' for Inactive)
REMARK    1  A    between atoms: C_1  and  O_2
REMARK    2  A    between atoms: O_2  and  C_3
REMARK    3  A    between atoms: C_8  and  O_9
REMARK    4  A    between atoms: O_9  and  C_10
REMARK    5  A    between atoms: C_13  and  C_14
REMARK                            x       y       z     vdW  Elec       q    Type
REMARK                         _______ _______ _______ _____ _____    ______ ____
ROOT
ATOM      1  C   UNL     1       1.217   9.324  19.594  0.00  0.00    +0.000 A 
ATOM      2  C   UNL     1       1.197   8.127  20.321  0.00  0.00    +0.000 A 
ATOM      3  C   UNL     1       1.948   7.005  19.923  0.00  0.00    +0.000 A 
ATOM      4  C   UNL     1       2.675   7.032  18.733  0.00  0.00    +0.000 A 
ATOM      5  C   UNL     1       2.595   8.209  17.963  0.00  0.00    +0.000 A 
ATOM      6  C   UNL     1       1.888   9.353  18.374  0.00  0.00    +0.000 A 
ATOM      7  C   UNL     1       3.507   5.864  18.335  0.00  0.00    +0.000 A 
ATOM      8  C   UNL     1       4.225   5.872  17.197  0.00  0.00    +0.000 A 
ATOM      9  C   UNL     1       5.064   4.764  16.778  0.00  0.00    +0.000 A 
ATOM     10  C   UNL     1       5.130   3.689  17.577  0.00  0.00    +0.000 A 
ATOM     11  C   UNL     1       4.364   3.636  18.843  0.00  0.00    +0.000 A 
ATOM     12  O   UNL     1       4.453   2.630  19.546  0.00  0.00    +0.000 OA
ATOM     13  N   UNL     1       3.575   4.744  19.157  0.00  0.00    +0.000 N 
ATOM     14  C   UNL     1       2.821   4.636  20.394  0.00  0.00    +0.000 C 
ATOM     15  C   UNL     1       1.976   5.821  20.840  0.00  0.00    +0.000 C 
ENDROOT
BRANCH   9  16
ATOM     16  C   UNL     1       5.814   4.752  15.553  0.00  0.00    +0.000 A 
ATOM     17  C   UNL     1       5.542   4.106  14.350  0.00  0.00    +0.000 A 
ATOM     18  C   UNL     1       6.586   4.397  13.441  0.00  0.00    +0.000 A 
ATOM     19  C   UNL     1       7.451   5.211  14.119  0.00  0.00    +0.000 A 
ATOM     20  O   UNL     1       7.005   5.435  15.377  0.00  0.00    +0.000 OA
ENDBRANCH   9  16
BRANCH   1  22
ATOM     21  C   UNL     1      -0.787  10.570  19.670  0.00  0.00    +0.000 C 
ATOM     22  O   UNL     1       0.583  10.444  20.058  0.00  0.00    +0.000 OA
ENDBRANCH   1  22
BRANCH   6  23
ATOM     23  O   UNL     1       2.014  10.373  17.470  0.00  0.00    +0.000 OA
ATOM     24  C   UNL     1       2.527  11.622  17.899  0.00  0.00    +0.000 C 
ENDBRANCH   6  23
TORSDOF 3
ENDMDL
MODEL 3
REMARK VINA RESULT:      -7.4      2.969      5.048
REMARK  Name = 
REMARK  5 active torsions:
REMARK  status: ('A' for Active; 'I' for Inactive)
REMARK    1  A    between atoms: C_1  and  O_2
REMARK    2  A    between atoms: O_2  and  C_3
REMARK    3  A    between atoms: C_8  and  O_9
REMARK    4  A    between atoms: O_9  and  C_10
REMARK    5  A    between atoms: C_13  and  C_14
REMARK                            x       y       z     vdW  Elec       q    Type
REMARK                         _______ _______ _______ _____ _____    ______ ____
ROOT
ATOM      1  C   UNL     1       3.502   3.617  19.800  0.00  0.00    +0.000 A 
ATOM      2  C   UNL     1       3.745   4.406  18.669  0.00  0.00    +0.000 A 
ATOM      3  C   UNL     1       3.272   5.728  18.569  0.00  0.00    +0.000 A 
ATOM      4  C   UNL     1       2.468   6.264  19.576  0.00  0.00    +0.000 A 
ATOM      5  C   UNL     1       2.148   5.416  20.655  0.00  0.00    +0.000 A 
ATOM      6  C   UNL     1       2.653   4.112  20.788  0.00  0.00    +0.000 A 
ATOM      7  C   UNL     1       2.008   7.676  19.496  0.00  0.00    +0.000 A 
ATOM      8  C   UNL     1       1.241   8.217  20.461  0.00  0.00    +0.000 A 
ATOM      9  C   UNL     1       0.783   9.595  20.433  0.00  0.00    +0.000 A 
ATOM     10  C   UNL     1       1.159  10.361  19.400  0.00  0.00    +0.000 A 
ATOM     11  C   UNL     1       2.008   9.814  18.318  0.00  0.00    +0.000 A 
ATOM     12  O   UNL     1       2.328  10.552  17.387  0.00  0.00    +0.000 OA
ATOM     13  N   UNL     1       2.389   8.475  18.424  0.00  0.00    +0.000 N 
ATOM     14  C   UNL     1       3.198   7.973  17.326  0.00  0.00    +0.000 C 
ATOM     15  C   UNL     1       3.703   6.539  17.386  0.00  0.00    +0.000 C 
ENDROOT
BRANCH   9  16
ATOM     16  C   UNL     1      -0.056  10.175  21.445  0.00  0.00    +0.000 A 
ATOM     17  C   UNL     1      -0.375   9.701  22.716  0.00  0.00    +0.000 A 
ATOM     18  C   UNL     1      -1.245  10.628  23.334  0.00  0.00    +0.000 A 
ATOM     19  C   UNL     1      -1.421  11.634  22.422  0.00  0.00    +0.000 A 
ATOM     20  O   UNL     1      -0.719  11.381  21.294  0.00  0.00    +0.000 OA
ENDBRANCH   9  16
BRANCH   1  22
ATOM     21  C   UNL     1       3.766   1.455  18.890  0.00  0.00    +0.000 C 
ATOM     22  O   UNL     1       4.070   2.381  19.935  0.00  0.00    +0.000 OA
ENDBRANCH   1  22
BRANCH   6  23
ATOM     23  O   UNL     1       2.230   3.525  21.950  0.00  0.00    +0.000 OA
ATOM     24  C   UNL     1       1.304   2.455  21.890  0.00  0.00    +0.000 C 
ENDBRANCH   6  23
TORSDOF 3
ENDMDL
MODEL 4
REMARK VINA RESULT:      -7.0      1.733      6.736
REMARK  Name = 
REMARK  5 active torsions:
REMARK  status: ('A' for Active; 'I' for Inactive)
REMARK    1  A    between atoms: C_1  and  O_2
REMARK    2  A    between atoms: O_2  and  C_3
REMARK    3  A    between atoms: C_8  and  O_9
REMARK    4  A    between atoms: O_9  and  C_10
REMARK    5  A    between atoms: C_13  and  C_14
REMARK                            x       y       z     vdW  Elec       q    Type
REMARK                         _______ _______ _______ _____ _____    ______ ____
ROOT
ATOM      1  C   UNL     1       1.265   8.351  20.467  0.00  0.00    +0.000 A 
ATOM      2  C   UNL     1       1.132   7.038  20.936  0.00  0.00    +0.000 A 
ATOM      3  C   UNL     1       1.792   5.959  20.320  0.00  0.00    +0.000 A 
ATOM      4  C   UNL     1       2.540   6.163  19.160  0.00  0.00    +0.000 A 
ATOM      5  C   UNL     1       2.573   7.474  18.645  0.00  0.00    +0.000 A 
ATOM      6  C   UNL     1       1.958   8.567  19.277  0.00  0.00    +0.000 A 
ATOM      7  C   UNL     1       3.278   5.033  18.535  0.00  0.00    +0.000 A 
ATOM      8  C   UNL     1       4.015   5.208  17.422  0.00  0.00    +0.000 A 
ATOM      9  C   UNL     1       4.765   4.139  16.788  0.00  0.00    +0.000 A 
ATOM     10  C   UNL     1       4.726   2.924  17.353  0.00  0.00    +0.000 A 
ATOM     11  C   UNL     1       3.936   2.682  18.582  0.00  0.00    +0.000 A 
ATOM     12  O   UNL     1       3.928   1.551  19.066  0.00  0.00    +0.000 OA
ATOM     13  N   UNL     1       3.238   3.768  19.113  0.00  0.00    +0.000 N 
ATOM     14  C   UNL     1       2.455   3.478  20.302  0.00  0.00    +0.000 C 
ATOM     15  C   UNL     1       1.704   4.616  20.978  0.00  0.00    +0.000 C 
ENDROOT
BRANCH   9  16
ATOM     16  C   UNL     1       5.533   4.310  15.586  0.00  0.00    +0.000 A 
ATOM     17  C   UNL     1       5.290   3.835  14.299  0.00  0.00    +0.000 A 
ATOM     18  C   UNL     1       6.342   4.266  13.458  0.00  0.00    +0.000 A 
ATOM     19  C   UNL     1       7.183   4.989  14.259  0.00  0.00    +0.000 A 
ATOM     20  O   UNL     1       6.716   5.027  15.528  0.00  0.00    +0.000 OA
ENDBRANCH   9  16
BRANCH   1  22
ATOM     21  C   UNL     1      -0.271   9.053  22.116  0.00  0.00    +0.000 C 
ATOM     22  O   UNL     1       0.718   9.404  21.147  0.00  0.00    +0.000 OA
ENDBRANCH   1  22
BRANCH   6  23
ATOM     23  O   UNL     1       2.185   9.734  18.598  0.00  0.00    +0.000 OA
ATOM     24  C   UNL     1       1.082  10.504  18.154  0.00  0.00    +0.000 C 
ENDBRANCH   6  23
TORSDOF 3
ENDMDL
MODEL 5
REMARK VINA RESULT:      -6.9      2.468      6.728
REMARK  Name = 
REMARK  5 active torsions:
REMARK  status: ('A' for Active; 'I' for Inactive)
REMARK    1  A    between atoms: C_1  and  O_2
REMARK    2  A    between atoms: O_2  and  C_3
REMARK    3  A    between atoms: C_8  and  O_9
REMARK    4  A    between atoms: O_9  and  C_10
REMARK    5  A    between atoms: C_13  and  C_14
REMARK                            x       y       z     vdW  Elec       q    Type
REMARK                         _______ _______ _______ _____ _____    ______ ____
ROOT
ATOM      1  C   UNL     1       1.084  10.224  19.601  0.00  0.00    +0.000 A 
ATOM      2  C   UNL     1       0.860   9.088  20.388  0.00  0.00    +0.000 A 
ATOM      3  C   UNL     1       1.475   7.854  20.103  0.00  0.00    +0.000 A 
ATOM      4  C   UNL     1       2.270   7.712  18.966  0.00  0.00    +0.000 A 
ATOM      5  C   UNL     1       2.396   8.840  18.131  0.00  0.00    +0.000 A 
ATOM      6  C   UNL     1       1.826  10.089  18.430  0.00  0.00    +0.000 A 
ATOM      7  C   UNL     1       2.960   6.423  18.689  0.00  0.00    +0.000 A 
ATOM      8  C   UNL     1       3.741   6.267  17.604  0.00  0.00    +0.000 A 
ATOM      9  C   UNL     1       4.446   5.034  17.303  0.00  0.00    +0.000 A 
ATOM     10  C   UNL     1       4.318   4.012  18.161  0.00  0.00    +0.000 A 
ATOM     11  C   UNL     1       3.477   4.138  19.372  0.00  0.00    +0.000 A 
ATOM     12  O   UNL     1       3.387   3.174  20.132  0.00  0.00    +0.000 OA
ATOM     13  N   UNL     1       2.827   5.357  19.571  0.00  0.00    +0.000 N 
ATOM     14  C   UNL     1       1.991   5.426  20.758  0.00  0.00    +0.000 C 
ATOM     15  C   UNL     1       1.287   6.735  21.081  0.00  0.00    +0.000 C 
ENDROOT
BRANCH   9  16
ATOM     16  C   UNL     1       5.261   4.848  16.135  0.00  0.00    +0.000 A 
ATOM     17  C   UNL     1       5.781   3.676  15.590  0.00  0.00    +0.000 A 
ATOM     18  C   UNL     1       6.526   4.012  14.436  0.00  0.00    +0.000 A 
ATOM     19  C   UNL     1       6.430   5.372  14.316  0.00  0.00    +0.000 A 
ATOM     20  O   UNL     1       5.679   5.885  15.318  0.00  0.00    +0.000 OA
ENDBRANCH   9  16
BRANCH   1  22
ATOM     21  C   UNL     1      -0.751  11.706  19.509  0.00  0.00    +0.000 C 
ATOM     22  O   UNL     1       0.579  11.444  19.960  0.00  0.00    +0.000 OA
ENDBRANCH   1  22
BRANCH   6  23
ATOM     23  O   UNL     1       2.142  11.026  17.483  0.00  0.00    +0.000 OA
ATOM     24  C   UNL     1       2.726  12.252  17.888  0.00  0.00    +0.000 C 
ENDBRANCH   6  23
TORSDOF 3
ENDMDL
MODEL 6
REMARK VINA RESULT:      -6.8      1.914      6.705
REMARK  Name = 
REMARK  5 active torsions:
REMARK  status: ('A' for Active; 'I' for Inactive)
REMARK    1  A    between atoms: C_1  and  O_2
REMARK    2  A    between atoms: O_2  and  C_3
REMARK    3  A    between atoms: C_8  and  O_9
REMARK    4  A    between atoms: O_9  and  C_10
REMARK    5  A    between atoms: C_13  and  C_14
REMARK                            x       y       z     vdW  Elec       q    Type
REMARK                         _______ _______ _______ _____ _____    ______ ____
ROOT
ATOM      1  C   UNL     1       1.166   7.705  20.703  0.00  0.00    +0.000 A 
ATOM      2  C   UNL     1       0.983   6.349  21.000  0.00  0.00    +0.000 A 
ATOM      3  C   UNL     1       1.649   5.336  20.286  0.00  0.00    +0.000 A 
ATOM      4  C   UNL     1       2.455   5.661  19.194  0.00  0.00    +0.000 A 
ATOM      5  C   UNL     1       2.540   7.023  18.847  0.00  0.00    +0.000 A 
ATOM      6  C   UNL     1       1.919   8.047  19.582  0.00  0.00    +0.000 A 
ATOM      7  C   UNL     1       3.197   4.596  18.467  0.00  0.00    +0.000 A 
ATOM      8  C   UNL     1       3.990   4.887  17.418  0.00  0.00    +0.000 A 
ATOM      9  C   UNL     1       4.746   3.883  16.691  0.00  0.00    +0.000 A 
ATOM     10  C   UNL     1       4.655   2.610  17.099  0.00  0.00    +0.000 A 
ATOM     11  C   UNL     1       3.803   2.241  18.252  0.00  0.00    +0.000 A 
ATOM     12  O   UNL     1       3.748   1.060  18.592  0.00  0.00    +0.000 OA
ATOM     13  N   UNL     1       3.103   3.272  18.882  0.00  0.00    +0.000 N 
ATOM     14  C   UNL     1       2.259   2.860  19.990  0.00  0.00    +0.000 C 
ATOM     15  C   UNL     1       1.502   3.926  20.768  0.00  0.00    +0.000 C 
ENDROOT
BRANCH   9  16
ATOM     16  C   UNL     1       5.574   4.180  15.555  0.00  0.00    +0.000 A 
ATOM     17  C   UNL     1       6.728   4.957  15.474  0.00  0.00    +0.000 A 
ATOM     18  C   UNL     1       7.178   4.950  14.134  0.00  0.00    +0.000 A 
ATOM     19  C   UNL     1       6.289   4.167  13.449  0.00  0.00    +0.000 A 
ATOM     20  O   UNL     1       5.330   3.699  14.280  0.00  0.00    +0.000 OA
ENDBRANCH   9  16
BRANCH   1  22
ATOM     21  C   UNL     1       1.468   9.210  22.497  0.00  0.00    +0.000 C 
ATOM     22  O   UNL     1       0.610   8.682  21.484  0.00  0.00    +0.000 OA
ENDBRANCH   1  22
BRANCH   6  23
ATOM     23  O   UNL     1       2.202   9.282  19.063  0.00  0.00    +0.000 OA
ATOM     24  C   UNL     1       2.030   9.508  17.675  0.00  0.00    +0.000 C 
ENDBRANCH   6  23
TORSDOF 3
ENDMDL
MODEL 7
REMARK VINA RESULT:      -6.7      1.705      6.445
REMARK  Name = 
REMARK  5 active torsions:
REMARK  status: ('A' for Active; 'I' for Inactive)
REMARK    1  A    between atoms: C_1  and  O_2
REMARK    2  A    between atoms: O_2  and  C_3
REMARK    3  A    between atoms: C_8  and  O_9
REMARK    4  A    between atoms: O_9  and  C_10
REMARK    5  A    between atoms: C_13  and  C_14
REMARK                            x       y       z     vdW  Elec       q    Type
REMARK                         _______ _______ _______ _____ _____    ______ ____
ROOT
ATOM      1  C   UNL     1       1.733   4.291  19.557  0.00  0.00    +0.000 A 
ATOM      2  C   UNL     1       2.232   3.685  18.397  0.00  0.00    +0.000 A 
ATOM      3  C   UNL     1       3.400   4.146  17.762  0.00  0.00    +0.000 A 
ATOM      4  C   UNL     1       4.053   5.286  18.234  0.00  0.00    +0.000 A 
ATOM      5  C   UNL     1       3.474   5.941  19.339  0.00  0.00    +0.000 A 
ATOM      6  C   UNL     1       2.335   5.463  20.010  0.00  0.00    +0.000 A 
ATOM      7  C   UNL     1       5.314   5.747  17.595  0.00  0.00    +0.000 A 
ATOM      8  C   UNL     1       5.967   6.836  18.040  0.00  0.00    +0.000 A 
ATOM      9  C   UNL     1       7.209   7.312  17.458  0.00  0.00    +0.000 A 
ATOM     10  C   UNL     1       7.731   6.618  16.437  0.00  0.00    +0.000 A 
ATOM     11  C   UNL     1       7.054   5.409  15.916  0.00  0.00    +0.000 A 
ATOM     12  O   UNL     1       7.568   4.803  14.976  0.00  0.00    +0.000 OA
ATOM     13  N   UNL     1       5.858   5.035  16.531  0.00  0.00    +0.000 N 
ATOM     14  C   UNL     1       5.216   3.859  15.970  0.00  0.00    +0.000 C 
ATOM     15  C   UNL     1       3.934   3.348  16.613  0.00  0.00    +0.000 C 
ENDROOT
BRANCH   9  16
ATOM     16  C   UNL     1       7.900   8.488  17.910  0.00  0.00    +0.000 A 
ATOM     17  C   UNL     1       7.849   9.792  17.422  0.00  0.00    +0.000 A 
ATOM     18  C   UNL     1       8.716  10.594  18.200  0.00  0.00    +0.000 A 
ATOM     19  C   UNL     1       9.258   9.754  19.134  0.00  0.00    +0.000 A 
ATOM     20  O   UNL     1       8.781   8.497  18.977  0.00  0.00    +0.000 OA
ENDBRANCH   9  16
BRANCH   1  22
ATOM     21  C   UNL     1       1.010   2.863  21.293  0.00  0.00    +0.000 C 
ATOM     22  O   UNL     1       0.669   3.758  20.232  0.00  0.00    +0.000 OA
ENDBRANCH   1  22
BRANCH   6  23
ATOM     23  O   UNL     1       2.010   6.255  21.077  0.00  0.00    +0.000 OA
ATOM     24  C   UNL     1       1.498   7.556  20.846  0.00  0.00    +0.000 C 
ENDBRANCH   6  23
TORSDOF 3
ENDMDL
MODEL 8
REMARK VINA RESULT:      -6.7      5.797      9.995
REMARK  Name = 
REMARK  5 active torsions:
REMARK  status: ('A' for Active; 'I' for Inactive)
REMARK    1  A    between atoms: C_1  and  O_2
REMARK    2  A    between atoms: O_2  and  C_3
REMARK    3  A    between atoms: C_8  and  O_9
REMARK    4  A    between atoms: O_9  and  C_10
REMARK    5  A    between atoms: C_13  and  C_14
REMARK                            x       y       z     vdW  Elec       q    Type
REMARK                         _______ _______ _______ _____ _____    ______ ____
ROOT
ATOM      1  C   UNL     1      -5.366  12.250  17.422  0.00  0.00    +0.000 A 
ATOM      2  C   UNL     1      -5.140  12.651  18.744  0.00  0.00    +0.000 A 
ATOM      3  C   UNL     1      -3.968  12.295  19.439  0.00  0.00    +0.000 A 
ATOM      4  C   UNL     1      -3.029  11.452  18.844  0.00  0.00    +0.000 A 
ATOM      5  C   UNL     1      -3.327  10.974  17.553  0.00  0.00    +0.000 A 
ATOM      6  C   UNL     1      -4.469  11.361  16.832  0.00  0.00    +0.000 A 
ATOM      7  C   UNL     1      -1.768  11.113  19.557  0.00  0.00    +0.000 A 
ATOM      8  C   UNL     1      -0.842  10.311  18.999  0.00  0.00    +0.000 A 
ATOM      9  C   UNL     1       0.409   9.968  19.650  0.00  0.00    +0.000 A 
ATOM     10  C   UNL     1       0.651  10.491  20.861  0.00  0.00    +0.000 A 
ATOM     11  C   UNL     1      -0.332  11.384  21.513  0.00  0.00    +0.000 A 
ATOM     12  O   UNL     1      -0.070  11.840  22.625  0.00  0.00    +0.000 OA
ATOM     13  N   UNL     1      -1.513  11.647  20.816  0.00  0.00    +0.000 N 
ATOM     14  C   UNL     1      -2.460  12.506  21.506  0.00  0.00    +0.000 C 
ATOM     15  C   UNL     1      -3.751  12.888  20.796  0.00  0.00    +0.000 C 
ENDROOT
BRANCH   9  16
ATOM     16  C   UNL     1       1.393   9.093  19.074  0.00  0.00    +0.000 A 
ATOM     17  C   UNL     1       2.070   9.193  17.860  0.00  0.00    +0.000 A 
ATOM     18  C   UNL     1       2.935   8.082  17.739  0.00  0.00    +0.000 A 
ATOM     19  C   UNL     1       2.759   7.349  18.881  0.00  0.00    +0.000 A 
ATOM     20  O   UNL     1       1.846   7.939  19.688  0.00  0.00    +0.000 OA
ENDBRANCH   9  16
BRANCH   1  22
ATOM     21  C   UNL     1      -6.769  14.082  16.924  0.00  0.00    +0.000 C 
ATOM     22  O   UNL     1      -6.448  12.705  16.720  0.00  0.00    +0.000 OA
ENDBRANCH   1  22
BRANCH   6  23
ATOM     23  O   UNL     1      -4.493  10.795  15.586  0.00  0.00    +0.000 OA
ATOM     24  C   UNL     1      -3.275  10.405  14.976  0.00  0.00    +0.000 C 
ENDBRANCH   6  23
TORSDOF 3
ENDMDL
MODEL 9
REMARK VINA RESULT:      -6.6      6.839      9.423
REMARK  Name = 
REMARK  5 active torsions:
REMARK  status: ('A' for Active; 'I' for Inactive)
REMARK    1  A    between atoms: C_1  and  O_2
REMARK    2  A    between atoms: O_2  and  C_3
REMARK    3  A    between atoms: C_8  and  O_9
REMARK    4  A    between atoms: O_9  and  C_10
REMARK    5  A    between atoms: C_13  and  C_14
REMARK                            x       y       z     vdW  Elec       q    Type
REMARK                         _______ _______ _______ _____ _____    ______ ____
ROOT
ATOM      1  C   UNL     1      -3.563  10.612  16.097  0.00  0.00    +0.000 A 
ATOM      2  C   UNL     1      -2.277  10.183  16.447  0.00  0.00    +0.000 A 
ATOM      3  C   UNL     1      -1.702  10.497  17.693  0.00  0.00    +0.000 A 
ATOM      4  C   UNL     1      -2.378  11.325  18.589  0.00  0.00    +0.000 A 
ATOM      5  C   UNL     1      -3.625  11.832  18.173  0.00  0.00    +0.000 A 
ATOM      6  C   UNL     1      -4.230  11.487  16.952  0.00  0.00    +0.000 A 
ATOM      7  C   UNL     1      -1.794  11.620  19.925  0.00  0.00    +0.000 A 
ATOM      8  C   UNL     1      -2.434  12.407  20.811  0.00  0.00    +0.000 A 
ATOM      9  C   UNL     1      -1.910  12.707  22.131  0.00  0.00    +0.000 A 
ATOM     10  C   UNL     1      -0.739  12.158  22.482  0.00  0.00    +0.000 A 
ATOM     11  C   UNL     1      -0.001  11.279  21.547  0.00  0.00    +0.000 A 
ATOM     12  O   UNL     1       1.071  10.797  21.910  0.00  0.00    +0.000 OA
ATOM     13  N   UNL     1      -0.577  11.058  20.294  0.00  0.00    +0.000 N 
ATOM     14  C   UNL     1       0.195  10.212  19.399  0.00  0.00    +0.000 C 
ATOM     15  C   UNL     1      -0.383   9.875  18.033  0.00  0.00    +0.000 C 
ENDROOT
BRANCH   9  16
ATOM     16  C   UNL     1      -2.573  13.566  23.073  0.00  0.00    +0.000 A 
ATOM     17  C   UNL     1      -3.910  13.949  23.139  0.00  0.00    +0.000 A 
ATOM     18  C   UNL     1      -4.074  14.812  24.248  0.00  0.00    +0.000 A 
ATOM     19  C   UNL     1      -2.834  14.918  24.819  0.00  0.00    +0.000 A 
ATOM     20  O   UNL     1      -1.930  14.181  24.134  0.00  0.00    +0.000 OA
ENDBRANCH   9  16
BRANCH   1  22
ATOM     21  C   UNL     1      -3.266  10.002  13.836  0.00  0.00    +0.000 C 
ATOM     22  O   UNL     1      -4.156  10.197  14.937  0.00  0.00    +0.000 OA
ENDBRANCH   1  22
BRANCH   6  23
ATOM     23  O   UNL     1      -5.458  12.075  16.816  0.00  0.00    +0.000 OA
ATOM     24  C   UNL     1      -6.443  11.865  17.812  0.00  0.00    +0.000 C 
ENDBRANCH   6  23
TORSDOF 3
ENDMDL
