MODEL 1
REMARK VINA RESULT:      -7.2      0.000      0.000
REMARK  Name = 
REMARK  6 active torsions:
REMARK  status: ('A' for Active; 'I' for Inactive)
REMARK    1  A    between atoms: C_2  and  C_3
REMARK    2  A    between atoms: C_3  and  O_4
REMARK    3  A    between atoms: C_5  and  C_6
REMARK    4  A    between atoms: C_6  and  O_7
REMARK    5  A    between atoms: C_9  and  N_10
REMARK    6  A    between atoms: C_20  and  O_21
REMARK                            x       y       z     vdW  Elec       q    Type
REMARK                         _______ _______ _______ _____ _____    ______ ____
ROOT
ATOM      1  C   UNL     1       6.952   6.310  17.217  0.00  0.00    +0.000 C 
ATOM      2  C   UNL     1       5.524   6.899  17.236  0.00  0.00    +0.000 C 
ATOM      3  O   UNL     1       4.896   6.402  18.435  0.00  0.00    +0.000 OA
ATOM      4  C   UNL     1       5.493   5.126  18.784  0.00  0.00    +0.000 C 
ATOM      5  C   UNL     1       6.734   4.938  17.896  0.00  0.00    +0.000 C 
ENDROOT
BRANCH   4   6
ATOM      6  N   UNL     1       4.480   4.085  18.636  0.00  0.00    +0.000 N 
ATOM      7  C   UNL     1       4.461   3.093  17.685  0.00  0.00    +0.000 A 
ATOM      8  N   UNL     1       3.408   2.311  17.791  0.00  0.00    +0.000 NA
ATOM      9  C   UNL     1       2.686   2.845  18.835  0.00  0.00    +0.000 A 
ATOM     10  C   UNL     1       1.460   2.473  19.411  0.00  0.00    +0.000 A 
ATOM     11  N   UNL     1       0.702   1.412  18.933  0.00  0.00    +0.000 N 
ATOM     12  N   UNL     1       1.012   3.171  20.476  0.00  0.00    +0.000 NA
ATOM     13  C   UNL     1       1.750   4.220  20.908  0.00  0.00    +0.000 A 
ATOM     14  N   UNL     1       2.919   4.687  20.414  0.00  0.00    +0.000 NA
ATOM     15  C   UNL     1       3.336   3.941  19.380  0.00  0.00    +0.000 A 
ATOM     16  H   UNL     1       1.229   0.766  18.359  0.00  0.00    +0.000 HD
ATOM     17  H   UNL     1       0.078   1.034  19.640  0.00  0.00    +0.000 HD
ENDBRANCH   4   6
BRANCH   1  19
ATOM     18  C   UNL     1       7.974   8.583  17.782  0.00  0.00    +0.000 C 
ATOM     19  C   UNL     1       7.887   7.257  17.970  0.00  0.00    +0.000 C 
ENDBRANCH   1  19
BRANCH   1  20
ATOM     20  O   UNL     1       7.509   6.101  15.919  0.00  0.00    +0.000 OA
ATOM     21  H   UNL     1       7.760   5.161  15.813  0.00  0.00    +0.000 HD
ENDBRANCH   1  20
BRANCH   5  22
ATOM     22  O   UNL     1       7.868   4.448  18.624  0.00  0.00    +0.000 OA
ATOM     23  H   UNL     1       7.819   4.749  19.547  0.00  0.00    +0.000 HD
ENDBRANCH   5  22
BRANCH   2  24
ATOM     24  C   UNL     1       4.663   6.552  16.017  0.00  0.00    +0.000 C 
BRANCH  24  25
ATOM     25  O   UNL     1       5.232   7.096  14.832  0.00  0.00    +0.000 OA
ATOM     26  H   UNL     1       5.875   7.781  15.099  0.00  0.00    +0.000 HD
ENDBRANCH  24  25
ENDBRANCH   2  24
TORSDOF 6
ENDMDL
MODEL 2
REMARK VINA RESULT:      -7.2      3.298      6.102
REMARK  Name = 
REMARK  6 active torsions:
REMARK  status: ('A' for Active; 'I' for Inactive)
REMARK    1  A    between atoms: C_2  and  C_3
REMARK    2  A    between atoms: C_3  and  O_4
REMARK    3  A    between atoms: C_5  and  C_6
REMARK    4  A    between atoms: C_6  and  O_7
REMARK    5  A    between atoms: C_9  and  N_10
REMARK    6  A    between atoms: C_20  and  O_21
REMARK                            x       y       z     vdW  Elec       q    Type
REMARK                         _______ _______ _______ _____ _____    ______ ____
ROOT
ATOM      1  C   UNL     1       3.262   4.376  19.249  0.00  0.00    +0.000 C 
ATOM      2  C   UNL     1       2.774   5.105  17.977  0.00  0.00    +0.000 C 
ATOM      3  O   UNL     1       3.327   4.381  16.859  0.00  0.00    +0.000 OA
ATOM      4  C   UNL     1       4.563   3.744  17.275  0.00  0.00    +0.000 C 
ATOM      5  C   UNL     1       4.654   3.869  18.805  0.00  0.00    +0.000 C 
ENDROOT
BRANCH   4   6
ATOM      6  N   UNL     1       5.670   4.362  16.550  0.00  0.00    +0.000 N 
ATOM      7  C   UNL     1       6.589   5.245  17.063  0.00  0.00    +0.000 A 
ATOM      8  N   UNL     1       7.460   5.647  16.161  0.00  0.00    +0.000 NA
ATOM      9  C   UNL     1       7.063   5.028  14.998  0.00  0.00    +0.000 A 
ATOM     10  C   UNL     1       7.573   5.078  13.691  0.00  0.00    +0.000 A 
ATOM     11  N   UNL     1       8.656   5.875  13.341  0.00  0.00    +0.000 N 
ATOM     12  N   UNL     1       6.992   4.312  12.743  0.00  0.00    +0.000 NA
ATOM     13  C   UNL     1       5.920   3.566  13.095  0.00  0.00    +0.000 A 
ATOM     14  N   UNL     1       5.324   3.465  14.306  0.00  0.00    +0.000 NA
ATOM     15  C   UNL     1       5.959   4.219  15.217  0.00  0.00    +0.000 A 
ATOM     16  H   UNL     1       9.214   6.167  14.134  0.00  0.00    +0.000 HD
ATOM     17  H   UNL     1       9.133   5.537  12.511  0.00  0.00    +0.000 HD
ENDBRANCH   4   6
BRANCH   1  19
ATOM     18  C   UNL     1       1.260   3.387  20.489  0.00  0.00    +0.000 C 
ATOM     19  C   UNL     1       2.261   3.277  19.603  0.00  0.00    +0.000 C 
ENDBRANCH   1  19
BRANCH   1  20
ATOM     20  O   UNL     1       3.417   5.203  20.404  0.00  0.00    +0.000 OA
ATOM     21  H   UNL     1       4.279   5.018  20.830  0.00  0.00    +0.000 HD
ENDBRANCH   1  20
BRANCH   5  22
ATOM     22  O   UNL     1       5.072   2.652  19.436  0.00  0.00    +0.000 OA
ATOM     23  H   UNL     1       5.501   2.074  18.783  0.00  0.00    +0.000 HD
ENDBRANCH   5  22
BRANCH   2  24
ATOM     24  C   UNL     1       3.167   6.583  17.885  0.00  0.00    +0.000 C 
BRANCH  24  25
ATOM     25  O   UNL     1       2.404   7.361  18.800  0.00  0.00    +0.000 OA
ATOM     26  H   UNL     1       3.030   7.875  19.347  0.00  0.00    +0.000 HD
ENDBRANCH  24  25
ENDBRANCH   2  24
TORSDOF 6
ENDMDL
MODEL 3
REMARK VINA RESULT:      -7.0      1.140      1.216
REMARK  Name = 
REMARK  6 active torsions:
REMARK  status: ('A' for Active; 'I' for Inactive)
REMARK    1  A    between atoms: C_2  and  C_3
REMARK    2  A    between atoms: C_3  and  O_4
REMARK    3  A    between atoms: C_5  and  C_6
REMARK    4  A    between atoms: C_6  and  O_7
REMARK    5  A    between atoms: C_9  and  N_10
REMARK    6  A    between atoms: C_20  and  O_21
REMARK                            x       y       z     vdW  Elec       q    Type
REMARK                         _______ _______ _______ _____ _____    ______ ____
ROOT
ATOM      1  C   UNL     1       7.150   5.749  17.584  0.00  0.00    +0.000 C 
ATOM      2  C   UNL     1       6.139   6.174  16.495  0.00  0.00    +0.000 C 
ATOM      3  O   UNL     1       4.892   6.424  17.176  0.00  0.00    +0.000 OA
ATOM      4  C   UNL     1       4.838   5.607  18.374  0.00  0.00    +0.000 C 
ATOM      5  C   UNL     1       6.236   5.004  18.585  0.00  0.00    +0.000 C 
ENDROOT
BRANCH   4   6
ATOM      6  N   UNL     1       3.772   4.623  18.216  0.00  0.00    +0.000 N 
ATOM      7  C   UNL     1       3.358   4.050  17.037  0.00  0.00    +0.000 A 
ATOM      8  N   UNL     1       2.359   3.210  17.208  0.00  0.00    +0.000 NA
ATOM      9  C   UNL     1       2.083   3.271  18.555  0.00  0.00    +0.000 A 
ATOM     10  C   UNL     1       1.113   2.627  19.341  0.00  0.00    +0.000 A 
ATOM     11  N   UNL     1       0.168   1.762  18.803  0.00  0.00    +0.000 N 
ATOM     12  N   UNL     1       1.111   2.853  20.672  0.00  0.00    +0.000 NA
ATOM     13  C   UNL     1       2.019   3.721  21.174  0.00  0.00    +0.000 A 
ATOM     14  N   UNL     1       2.971   4.419  20.513  0.00  0.00    +0.000 NA
ATOM     15  C   UNL     1       2.952   4.135  19.202  0.00  0.00    +0.000 A 
ATOM     16  H   UNL     1       0.419   1.411  17.887  0.00  0.00    +0.000 HD
ATOM     17  H   UNL     1      -0.193   1.109  19.490  0.00  0.00    +0.000 HD
ENDBRANCH   4   6
BRANCH   1  19
ATOM     18  C   UNL     1       7.805   8.218  17.582  0.00  0.00    +0.000 C 
ATOM     19  C   UNL     1       7.829   6.999  18.142  0.00  0.00    +0.000 C 
ENDBRANCH   1  19
BRANCH   1  20
ATOM     20  O   UNL     1       8.180   4.861  17.147  0.00  0.00    +0.000 OA
ATOM     21  H   UNL     1       7.900   3.934  17.290  0.00  0.00    +0.000 HD
ENDBRANCH   1  20
BRANCH   5  22
ATOM     22  O   UNL     1       6.670   5.073  19.950  0.00  0.00    +0.000 OA
ATOM     23  H   UNL     1       7.619   5.283  19.981  0.00  0.00    +0.000 HD
ENDBRANCH   5  22
BRANCH   2  24
ATOM     24  C   UNL     1       5.924   5.151  15.375  0.00  0.00    +0.000 C 
BRANCH  24  25
ATOM     25  O   UNL     1       6.991   5.206  14.436  0.00  0.00    +0.000 OA
ATOM     26  H   UNL     1       7.538   5.986  14.654  0.00  0.00    +0.000 HD
ENDBRANCH  24  25
ENDBRANCH   2  24
TORSDOF 6
ENDMDL
MODEL 4
REMARK VINA RESULT:      -7.0      1.423      1.805
REMARK  Name = 
REMARK  6 active torsions:
REMARK  status: ('A' for Active; 'I' for Inactive)
REMARK    1  A    between atoms: C_2  and  C_3
REMARK    2  A    between atoms: C_3  and  O_4
REMARK    3  A    between atoms: C_5  and  C_6
REMARK    4  A    between atoms: C_6  and  O_7
REMARK    5  A    between atoms: C_9  and  N_10
REMARK    6  A    between atoms: C_20  and  O_21
REMARK                            x       y       z     vdW  Elec       q    Type
REMARK                         _______ _______ _______ _____ _____    ______ ____
ROOT
ATOM      1  C   UNL     1       7.044   6.001  17.530  0.00  0.00    +0.000 C 
ATOM      2  C   UNL     1       6.004   6.607  16.561  0.00  0.00    +0.000 C 
ATOM      3  O   UNL     1       4.858   6.956  17.363  0.00  0.00    +0.000 OA
ATOM      4  C   UNL     1       4.805   6.078  18.517  0.00  0.00    +0.000 C 
ATOM      5  C   UNL     1       6.133   5.305  18.570  0.00  0.00    +0.000 C 
ENDROOT
BRANCH   4   6
ATOM      6  N   UNL     1       3.619   5.235  18.404  0.00  0.00    +0.000 N 
ATOM      7  C   UNL     1       2.374   5.630  17.974  0.00  0.00    +0.000 A 
ATOM      8  N   UNL     1       1.497   4.649  17.999  0.00  0.00    +0.000 NA
ATOM      9  C   UNL     1       2.193   3.576  18.510  0.00  0.00    +0.000 A 
ATOM     10  C   UNL     1       1.800   2.259  18.798  0.00  0.00    +0.000 A 
ATOM     11  N   UNL     1       0.498   1.811  18.617  0.00  0.00    +0.000 N 
ATOM     12  N   UNL     1       2.731   1.397  19.259  0.00  0.00    +0.000 NA
ATOM     13  C   UNL     1       3.987   1.860  19.457  0.00  0.00    +0.000 A 
ATOM     14  N   UNL     1       4.468   3.107  19.247  0.00  0.00    +0.000 NA
ATOM     15  C   UNL     1       3.513   3.914  18.760  0.00  0.00    +0.000 A 
ATOM     16  H   UNL     1      -0.048   2.397  17.998  0.00  0.00    +0.000 HD
ATOM     17  H   UNL     1       0.449   0.804  18.499  0.00  0.00    +0.000 HD
ENDBRANCH   4   6
BRANCH   1  19
ATOM     18  C   UNL     1       7.902   8.403  17.675  0.00  0.00    +0.000 C 
ATOM     19  C   UNL     1       7.912   7.127  18.090  0.00  0.00    +0.000 C 
ENDBRANCH   1  19
BRANCH   1  20
ATOM     20  O   UNL     1       7.919   5.029  16.957  0.00  0.00    +0.000 OA
ATOM     21  H   UNL     1       8.195   4.386  17.642  0.00  0.00    +0.000 HD
ENDBRANCH   1  20
BRANCH   5  22
ATOM     22  O   UNL     1       6.684   5.238  19.891  0.00  0.00    +0.000 OA
ATOM     23  H   UNL     1       6.178   5.816  20.487  0.00  0.00    +0.000 HD
ENDBRANCH   5  22
BRANCH   2  24
ATOM     24  C   UNL     1       5.575   5.688  15.413  0.00  0.00    +0.000 C 
BRANCH  24  25
ATOM     25  O   UNL     1       6.648   5.493  14.500  0.00  0.00    +0.000 OA
ATOM     26  H   UNL     1       7.483   5.610  14.995  0.00  0.00    +0.000 HD
ENDBRANCH  24  25
ENDBRANCH   2  24
TORSDOF 6
ENDMDL
MODEL 5
REMARK VINA RESULT:      -6.8      2.992      6.250
REMARK  Name = 
REMARK  6 active torsions:
REMARK  status: ('A' for Active; 'I' for Inactive)
REMARK    1  A    between atoms: C_2  and  C_3
REMARK    2  A    between atoms: C_3  and  O_4
REMARK    3  A    between atoms: C_5  and  C_6
REMARK    4  A    between atoms: C_6  and  O_7
REMARK    5  A    between atoms: C_9  and  N_10
REMARK    6  A    between atoms: C_20  and  O_21
REMARK                            x       y       z     vdW  Elec       q    Type
REMARK                         _______ _______ _______ _____ _____    ______ ____
ROOT
ATOM      1  C   UNL     1       1.819   2.716  19.146  0.00  0.00    +0.000 C 
ATOM      2  C   UNL     1       3.244   2.223  19.481  0.00  0.00    +0.000 C 
ATOM      3  O   UNL     1       4.099   3.383  19.421  0.00  0.00    +0.000 OA
ATOM      4  C   UNL     1       3.529   4.340  18.491  0.00  0.00    +0.000 C 
ATOM      5  C   UNL     1       2.110   3.858  18.144  0.00  0.00    +0.000 C 
ENDROOT
BRANCH   4   6
ATOM      6  N   UNL     1       4.423   4.462  17.344  0.00  0.00    +0.000 N 
ATOM      7  C   UNL     1       4.367   3.729  16.183  0.00  0.00    +0.000 A 
ATOM      8  N   UNL     1       5.321   4.051  15.336  0.00  0.00    +0.000 NA
ATOM      9  C   UNL     1       6.059   5.010  15.994  0.00  0.00    +0.000 A 
ATOM     10  C   UNL     1       7.212   5.720  15.624  0.00  0.00    +0.000 A 
ATOM     11  N   UNL     1       7.865   5.509  14.416  0.00  0.00    +0.000 N 
ATOM     12  N   UNL     1       7.696   6.650  16.476  0.00  0.00    +0.000 NA
ATOM     13  C   UNL     1       7.064   6.820  17.660  0.00  0.00    +0.000 A 
ATOM     14  N   UNL     1       5.974   6.175  18.134  0.00  0.00    +0.000 NA
ATOM     15  C   UNL     1       5.515   5.287  17.239  0.00  0.00    +0.000 A 
ATOM     16  H   UNL     1       7.291   5.044  13.724  0.00  0.00    +0.000 HD
ATOM     17  H   UNL     1       8.415   6.311  14.129  0.00  0.00    +0.000 HD
ENDBRANCH   4   6
BRANCH   1  19
ATOM     18  C   UNL     1       1.521   2.829  21.681  0.00  0.00    +0.000 C 
ATOM     19  C   UNL     1       1.133   3.156  20.439  0.00  0.00    +0.000 C 
ENDBRANCH   1  19
BRANCH   1  20
ATOM     20  O   UNL     1       0.972   1.753  18.518  0.00  0.00    +0.000 OA
ATOM     21  H   UNL     1       1.410   1.399  17.717  0.00  0.00    +0.000 HD
ENDBRANCH   1  20
BRANCH   5  22
ATOM     22  O   UNL     1       1.146   4.918  18.156  0.00  0.00    +0.000 OA
ATOM     23  H   UNL     1       0.838   5.071  19.065  0.00  0.00    +0.000 HD
ENDBRANCH   5  22
BRANCH   2  24
ATOM     24  C   UNL     1       3.787   1.129  18.554  0.00  0.00    +0.000 C 
BRANCH  24  25
ATOM     25  O   UNL     1       4.825   0.399  19.197  0.00  0.00    +0.000 OA
ATOM     26  H   UNL     1       5.667   0.631  18.756  0.00  0.00    +0.000 HD
ENDBRANCH  24  25
ENDBRANCH   2  24
TORSDOF 6
ENDMDL
MODEL 6
REMARK VINA RESULT:      -6.8      2.641      4.263
REMARK  Name = 
REMARK  6 active torsions:
REMARK  status: ('A' for Active; 'I' for Inactive)
REMARK    1  A    between atoms: C_2  and  C_3
REMARK    2  A    between atoms: C_3  and  O_4
REMARK    3  A    between atoms: C_5  and  C_6
REMARK    4  A    between atoms: C_6  and  O_7
REMARK    5  A    between atoms: C_9  and  N_10
REMARK    6  A    between atoms: C_20  and  O_21
REMARK                            x       y       z     vdW  Elec       q    Type
REMARK                         _______ _______ _______ _____ _____    ______ ____
ROOT
ATOM      1  C   UNL     1       6.549   5.486  15.717  0.00  0.00    +0.000 C 
ATOM      2  C   UNL     1       6.388   4.274  16.661  0.00  0.00    +0.000 C 
ATOM      3  O   UNL     1       4.969   4.082  16.837  0.00  0.00    +0.000 OA
ATOM      4  C   UNL     1       4.298   5.359  16.670  0.00  0.00    +0.000 C 
ATOM      5  C   UNL     1       5.329   6.353  16.110  0.00  0.00    +0.000 C 
ENDROOT
BRANCH   4   6
ATOM      6  N   UNL     1       3.717   5.748  17.952  0.00  0.00    +0.000 N 
ATOM      7  C   UNL     1       3.721   5.006  19.109  0.00  0.00    +0.000 A 
ATOM      8  N   UNL     1       3.101   5.612  20.099  0.00  0.00    +0.000 NA
ATOM      9  C   UNL     1       2.635   6.785  19.548  0.00  0.00    +0.000 A 
ATOM     10  C   UNL     1       1.881   7.838  20.091  0.00  0.00    +0.000 A 
ATOM     11  N   UNL     1       1.419   7.829  21.401  0.00  0.00    +0.000 N 
ATOM     12  N   UNL     1       1.606   8.903  19.307  0.00  0.00    +0.000 NA
ATOM     13  C   UNL     1       2.039   8.880  18.025  0.00  0.00    +0.000 A 
ATOM     14  N   UNL     1       2.739   7.913  17.389  0.00  0.00    +0.000 NA
ATOM     15  C   UNL     1       3.013   6.894  18.219  0.00  0.00    +0.000 A 
ATOM     16  H   UNL     1       1.910   7.174  21.997  0.00  0.00    +0.000 HD
ATOM     17  H   UNL     1       1.239   8.763  21.753  0.00  0.00    +0.000 HD
ENDBRANCH   4   6
BRANCH   1  19
ATOM     18  C   UNL     1       6.246   3.744  13.873  0.00  0.00    +0.000 C 
ATOM     19  C   UNL     1       6.545   4.990  14.271  0.00  0.00    +0.000 C 
ENDBRANCH   1  19
BRANCH   1  20
ATOM     20  O   UNL     1       7.740   6.251  15.905  0.00  0.00    +0.000 OA
ATOM     21  H   UNL     1       8.149   6.444  15.037  0.00  0.00    +0.000 HD
ENDBRANCH   1  20
BRANCH   5  22
ATOM     22  O   UNL     1       4.804   7.155  15.045  0.00  0.00    +0.000 OA
ATOM     23  H   UNL     1       3.833   7.167  15.092  0.00  0.00    +0.000 HD
ENDBRANCH   5  22
BRANCH   2  24
ATOM     24  C   UNL     1       7.066   4.420  18.028  0.00  0.00    +0.000 C 
BRANCH  24  25
ATOM     25  O   UNL     1       8.441   4.066  17.944  0.00  0.00    +0.000 OA
ATOM     26  H   UNL     1       8.941   4.685  18.512  0.00  0.00    +0.000 HD
ENDBRANCH  24  25
ENDBRANCH   2  24
TORSDOF 6
ENDMDL
MODEL 7
REMARK VINA RESULT:      -6.8      2.990      6.089
REMARK  Name = 
REMARK  6 active torsions:
REMARK  status: ('A' for Active; 'I' for Inactive)
REMARK    1  A    between atoms: C_2  and  C_3
REMARK    2  A    between atoms: C_3  and  O_4
REMARK    3  A    between atoms: C_5  and  C_6
REMARK    4  A    between atoms: C_6  and  O_7
REMARK    5  A    between atoms: C_9  and  N_10
REMARK    6  A    between atoms: C_20  and  O_21
REMARK                            x       y       z     vdW  Elec       q    Type
REMARK                         _______ _______ _______ _____ _____    ______ ____
ROOT
ATOM      1  C   UNL     1       1.975   3.651  20.141  0.00  0.00    +0.000 C 
ATOM      2  C   UNL     1       2.462   2.334  19.498  0.00  0.00    +0.000 C 
ATOM      3  O   UNL     1       3.899   2.429  19.417  0.00  0.00    +0.000 OA
ATOM      4  C   UNL     1       4.273   3.828  19.317  0.00  0.00    +0.000 C 
ATOM      5  C   UNL     1       3.015   4.664  19.606  0.00  0.00    +0.000 C 
ENDROOT
BRANCH   4   6
ATOM      6  N   UNL     1       4.863   4.058  18.002  0.00  0.00    +0.000 N 
ATOM      7  C   UNL     1       4.583   3.363  16.849  0.00  0.00    +0.000 A 
ATOM      8  N   UNL     1       5.288   3.785  15.821  0.00  0.00    +0.000 NA
ATOM      9  C   UNL     1       6.095   4.774  16.339  0.00  0.00    +0.000 A 
ATOM     10  C   UNL     1       7.080   5.581  15.748  0.00  0.00    +0.000 A 
ATOM     11  N   UNL     1       7.443   5.462  14.413  0.00  0.00    +0.000 N 
ATOM     12  N   UNL     1       7.688   6.515  16.511  0.00  0.00    +0.000 NA
ATOM     13  C   UNL     1       7.343   6.596  17.817  0.00  0.00    +0.000 A 
ATOM     14  N   UNL     1       6.439   5.854  18.497  0.00  0.00    +0.000 NA
ATOM     15  C   UNL     1       5.842   4.965  17.688  0.00  0.00    +0.000 A 
ATOM     16  H   UNL     1       6.754   4.979  13.850  0.00  0.00    +0.000 HD
ATOM     17  H   UNL     1       7.856   6.313  14.047  0.00  0.00    +0.000 HD
ENDBRANCH   4   6
BRANCH   1  19
ATOM     18  C   UNL     1       1.511   2.412  22.326  0.00  0.00    +0.000 C 
ATOM     19  C   UNL     1       1.964   3.485  21.660  0.00  0.00    +0.000 C 
ENDBRANCH   1  19
BRANCH   1  20
ATOM     20  O   UNL     1       0.670   4.076  19.747  0.00  0.00    +0.000 OA
ATOM     21  H   UNL     1       0.739   4.737  19.029  0.00  0.00    +0.000 HD
ENDBRANCH   1  20
BRANCH   5  22
ATOM     22  O   UNL     1       3.272   5.769  20.481  0.00  0.00    +0.000 OA
ATOM     23  H   UNL     1       4.210   5.773  20.738  0.00  0.00    +0.000 HD
ENDBRANCH   5  22
BRANCH   2  24
ATOM     24  C   UNL     1       1.883   2.035  18.111  0.00  0.00    +0.000 C 
BRANCH  24  25
ATOM     25  O   UNL     1       0.483   1.799  18.195  0.00  0.00    +0.000 OA
ATOM     26  H   UNL     1       0.353   0.940  18.644  0.00  0.00    +0.000 HD
ENDBRANCH  24  25
ENDBRANCH   2  24
TORSDOF 6
ENDMDL
MODEL 8
REMARK VINA RESULT:      -6.8      3.095      5.872
REMARK  Name = 
REMARK  6 active torsions:
REMARK  status: ('A' for Active; 'I' for Inactive)
REMARK    1  A    between atoms: C_2  and  C_3
REMARK    2  A    between atoms: C_3  and  O_4
REMARK    3  A    between atoms: C_5  and  C_6
REMARK    4  A    between atoms: C_6  and  O_7
REMARK    5  A    between atoms: C_9  and  N_10
REMARK    6  A    between atoms: C_20  and  O_21
REMARK                            x       y       z     vdW  Elec       q    Type
REMARK                         _______ _______ _______ _____ _____    ______ ____
ROOT
ATOM      1  C   UNL     1       2.653   3.775  19.678  0.00  0.00    +0.000 C 
ATOM      2  C   UNL     1       3.595   2.570  19.460  0.00  0.00    +0.000 C 
ATOM      3  O   UNL     1       4.922   3.026  19.795  0.00  0.00    +0.000 OA
ATOM      4  C   UNL     1       5.001   4.456  19.558  0.00  0.00    +0.000 C 
ATOM      5  C   UNL     1       3.571   4.962  19.301  0.00  0.00    +0.000 C 
ENDROOT
BRANCH   4   6
ATOM      6  N   UNL     1       5.932   4.693  18.459  0.00  0.00    +0.000 N 
ATOM      7  C   UNL     1       7.250   5.069  18.572  0.00  0.00    +0.000 A 
ATOM      8  N   UNL     1       7.832   5.226  17.402  0.00  0.00    +0.000 NA
ATOM      9  C   UNL     1       6.835   4.981  16.484  0.00  0.00    +0.000 A 
ATOM     10  C   UNL     1       6.827   5.015  15.081  0.00  0.00    +0.000 A 
ATOM     11  N   UNL     1       7.944   5.371  14.336  0.00  0.00    +0.000 N 
ATOM     12  N   UNL     1       5.690   4.677  14.435  0.00  0.00    +0.000 NA
ATOM     13  C   UNL     1       4.604   4.362  15.179  0.00  0.00    +0.000 A 
ATOM     14  N   UNL     1       4.486   4.329  16.526  0.00  0.00    +0.000 NA
ATOM     15  C   UNL     1       5.650   4.640  17.118  0.00  0.00    +0.000 A 
ATOM     16  H   UNL     1       8.812   5.308  14.854  0.00  0.00    +0.000 HD
ATOM     17  H   UNL     1       7.915   4.997  13.393  0.00  0.00    +0.000 HD
ENDBRANCH   4   6
BRANCH   1  19
ATOM     18  C   UNL     1       1.684   2.708  21.787  0.00  0.00    +0.000 C 
ATOM     19  C   UNL     1       2.173   3.770  21.129  0.00  0.00    +0.000 C 
ENDBRANCH   1  19
BRANCH   1  20
ATOM     20  O   UNL     1       1.495   3.802  18.843  0.00  0.00    +0.000 OA
ATOM     21  H   UNL     1       1.635   4.427  18.102  0.00  0.00    +0.000 HD
ENDBRANCH   1  20
BRANCH   5  22
ATOM     22  O   UNL     1       3.281   6.180  19.997  0.00  0.00    +0.000 OA
ATOM     23  H   UNL     1       3.388   6.045  20.954  0.00  0.00    +0.000 HD
ENDBRANCH   5  22
BRANCH   2  24
ATOM     24  C   UNL     1       3.589   1.988  18.042  0.00  0.00    +0.000 C 
BRANCH  24  25
ATOM     25  O   UNL     1       2.295   1.500  17.708  0.00  0.00    +0.000 OA
ATOM     26  H   UNL     1       1.656   1.909  18.325  0.00  0.00    +0.000 HD
ENDBRANCH  24  25
ENDBRANCH   2  24
TORSDOF 6
ENDMDL
MODEL 9
REMARK VINA RESULT:      -6.7      3.270      4.843
REMARK  Name = 
REMARK  6 active torsions:
REMARK  status: ('A' for Active; 'I' for Inactive)
REMARK    1  A    between atoms: C_2  and  C_3
REMARK    2  A    between atoms: C_3  and  O_4
REMARK    3  A    between atoms: C_5  and  C_6
REMARK    4  A    between atoms: C_6  and  O_7
REMARK    5  A    between atoms: C_9  and  N_10
REMARK    6  A    between atoms: C_20  and  O_21
REMARK                            x       y       z     vdW  Elec       q    Type
REMARK                         _______ _______ _______ _____ _____    ______ ____
ROOT
ATOM      1  C   UNL     1       5.900   4.561  17.593  0.00  0.00    +0.000 C 
ATOM      2  C   UNL     1       4.593   3.763  17.796  0.00  0.00    +0.000 C 
ATOM      3  O   UNL     1       3.521   4.624  17.361  0.00  0.00    +0.000 OA
ATOM      4  C   UNL     1       3.926   6.006  17.540  0.00  0.00    +0.000 C 
ATOM      5  C   UNL     1       5.428   6.009  17.866  0.00  0.00    +0.000 C 
ENDROOT
BRANCH   4   6
ATOM      6  N   UNL     1       3.082   6.607  18.568  0.00  0.00    +0.000 N 
ATOM      7  C   UNL     1       2.691   6.021  19.748  0.00  0.00    +0.000 A 
ATOM      8  N   UNL     1       1.913   6.803  20.467  0.00  0.00    +0.000 NA
ATOM      9  C   UNL     1       1.756   7.935  19.698  0.00  0.00    +0.000 A 
ATOM     10  C   UNL     1       1.023   9.114  19.908  0.00  0.00    +0.000 A 
ATOM     11  N   UNL     1       0.236   9.314  21.035  0.00  0.00    +0.000 N 
ATOM     12  N   UNL     1       1.096  10.091  18.979  0.00  0.00    +0.000 NA
ATOM     13  C   UNL     1       1.843   9.865  17.874  0.00  0.00    +0.000 A 
ATOM     14  N   UNL     1       2.560   8.765  17.551  0.00  0.00    +0.000 NA
ATOM     15  C   UNL     1       2.480   7.839  18.520  0.00  0.00    +0.000 A 
ATOM     16  H   UNL     1       0.469   8.697  21.804  0.00  0.00    +0.000 HD
ATOM     17  H   UNL     1       0.087  10.298  21.232  0.00  0.00    +0.000 HD
ENDBRANCH   4   6
BRANCH   1  19
ATOM     18  C   UNL     1       5.661   3.998  15.113  0.00  0.00    +0.000 C 
ATOM     19  C   UNL     1       6.417   4.311  16.176  0.00  0.00    +0.000 C 
ENDBRANCH   1  19
BRANCH   1  20
ATOM     20  O   UNL     1       6.958   4.240  18.498  0.00  0.00    +0.000 OA
ATOM     21  H   UNL     1       7.821   4.357  18.052  0.00  0.00    +0.000 HD
ENDBRANCH   1  20
BRANCH   5  22
ATOM     22  O   UNL     1       6.151   7.015  17.145  0.00  0.00    +0.000 OA
ATOM     23  H   UNL     1       5.645   7.845  17.145  0.00  0.00    +0.000 HD
ENDBRANCH   5  22
BRANCH   2  24
ATOM     24  C   UNL     1       4.334   3.295  19.232  0.00  0.00    +0.000 C 
BRANCH  24  25
ATOM     25  O   UNL     1       5.090   2.124  19.520  0.00  0.00    +0.000 OA
ATOM     26  H   UNL     1       6.034   2.344  19.397  0.00  0.00    +0.000 HD
ENDBRANCH  24  25
ENDBRANCH   2  24
TORSDOF 6
ENDMDL
