MODEL 1
REMARK VINA RESULT:      -7.7      0.000      0.000
REMARK  Name = 
REMARK  7 active torsions:
REMARK  status: ('A' for Active; 'I' for Inactive)
REMARK    1  A    between atoms: C_1  and  N_2
REMARK    2  A    between atoms: N_5  and  C_6
REMARK    3  A    between atoms: C_12  and  C_13
REMARK    4  A    between atoms: N_20  and  C_21
REMARK    5  A    between atoms: C_23  and  C_24
REMARK    6  A    between atoms: C_25  and  O_26
REMARK    7  A    between atoms: C_27  and  O_28
REMARK                            x       y       z     vdW  Elec       q    Type
REMARK                         _______ _______ _______ _____ _____    ______ ____
ROOT
ATOM      1  C   UNL     1       1.715   6.959  20.778  0.00  0.00    +0.000 A 
ATOM      2  N   UNL     1       0.899   7.354  21.785  0.00  0.00    +0.000 NA
ATOM      3  C   UNL     1       0.250   8.516  21.658  0.00  0.00    +0.000 A 
ATOM      4  N   UNL     1       0.313   9.389  20.648  0.00  0.00    +0.000 NA
ATOM      5  C   UNL     1       1.133   8.966  19.662  0.00  0.00    +0.000 A 
ATOM      6  C   UNL     1       1.870   7.782  19.644  0.00  0.00    +0.000 A 
ATOM      7  C   UNL     1       2.549   7.751  18.375  0.00  0.00    +0.000 A 
ATOM      8  C   UNL     1       2.232   8.929  17.712  0.00  0.00    +0.000 A 
ATOM      9  N   UNL     1       1.389   9.659  18.510  0.00  0.00    +0.000 N 
ENDROOT
BRANCH   1  14
ATOM     10  C   UNL     1       2.293   2.211  20.219  0.00  0.00    +0.000 C 
ATOM     11  N   UNL     1       2.720   3.531  20.616  0.00  0.00    +0.000 N 
ATOM     12  C   UNL     1       1.801   4.565  20.653  0.00  0.00    +0.000 C 
ATOM     13  O   UNL     1       0.625   4.409  20.348  0.00  0.00    +0.000 OA
ATOM     14  N   UNL     1       2.430   5.760  20.928  0.00  0.00    +0.000 N 
ATOM     15  H   UNL     1       3.487   3.604  21.268  0.00  0.00    +0.000 HD
ATOM     16  H   UNL     1       3.382   5.787  20.606  0.00  0.00    +0.000 HD
ENDBRANCH   1  14
BRANCH   7  17
ATOM     17  C   UNL     1       3.426   6.739  17.783  0.00  0.00    +0.000 A 
ATOM     18  C   UNL     1       4.682   7.090  17.273  0.00  0.00    +0.000 A 
ATOM     19  C   UNL     1       5.445   6.176  16.544  0.00  0.00    +0.000 A 
ATOM     20  C   UNL     1       5.008   4.863  16.406  0.00  0.00    +0.000 A 
ATOM     21  C   UNL     1       3.815   4.467  17.006  0.00  0.00    +0.000 A 
ATOM     22  C   UNL     1       3.020   5.400  17.678  0.00  0.00    +0.000 A 
ENDBRANCH   7  17
BRANCH   9  23
ATOM     23  C   UNL     1       0.828  10.973  18.235  0.00  0.00    +0.000 C 
ATOM     24  O   UNL     1       1.322  11.956  19.182  0.00  0.00    +0.000 OA
ATOM     25  C   UNL     1       0.295  12.961  19.342  0.00  0.00    +0.000 C 
ATOM     26  C   UNL     1      -0.060  13.071  20.819  0.00  0.00    +0.000 C 
ATOM     27  C   UNL     1      -0.893  12.537  18.477  0.00  0.00    +0.000 C 
ATOM     28  C   UNL     1      -0.695  11.035  18.348  0.00  0.00    +0.000 C 
BRANCH  27  29
ATOM     29  O   UNL     1      -0.823  13.118  17.160  0.00  0.00    +0.000 OA
ATOM     30  H   UNL     1       0.112  13.244  16.908  0.00  0.00    +0.000 HD
ENDBRANCH  27  29
BRANCH  28  31
ATOM     31  O   UNL     1      -1.404  10.513  17.233  0.00  0.00    +0.000 OA
ATOM     32  H   UNL     1      -2.241  11.021  17.172  0.00  0.00    +0.000 HD
ENDBRANCH  28  31
ENDBRANCH   9  23
TORSDOF 5
ENDMDL
MODEL 2
REMARK VINA RESULT:      -7.3      1.240      1.668
REMARK  Name = 
REMARK  7 active torsions:
REMARK  status: ('A' for Active; 'I' for Inactive)
REMARK    1  A    between atoms: C_1  and  N_2
REMARK    2  A    between atoms: N_5  and  C_6
REMARK    3  A    between atoms: C_12  and  C_13
REMARK    4  A    between atoms: N_20  and  C_21
REMARK    5  A    between atoms: C_23  and  C_24
REMARK    6  A    between atoms: C_25  and  O_26
REMARK    7  A    between atoms: C_27  and  O_28
REMARK                            x       y       z     vdW  Elec       q    Type
REMARK                         _______ _______ _______ _____ _____    ______ ____
ROOT
ATOM      1  C   UNL     1       2.552   5.869  20.098  0.00  0.00    +0.000 A 
ATOM      2  N   UNL     1       1.662   5.975  21.114  0.00  0.00    +0.000 NA
ATOM      3  C   UNL     1       0.913   7.081  21.189  0.00  0.00    +0.000 A 
ATOM      4  N   UNL     1       0.935   8.148  20.384  0.00  0.00    +0.000 NA
ATOM      5  C   UNL     1       1.831   8.010  19.383  0.00  0.00    +0.000 A 
ATOM      6  C   UNL     1       2.676   6.921  19.167  0.00  0.00    +0.000 A 
ATOM      7  C   UNL     1       3.407   7.212  17.962  0.00  0.00    +0.000 A 
ATOM      8  C   UNL     1       3.008   8.471  17.536  0.00  0.00    +0.000 A 
ATOM      9  N   UNL     1       2.068   8.947  18.414  0.00  0.00    +0.000 N 
ENDROOT
BRANCH   1  14
ATOM     10  C   UNL     1       3.645   1.447  18.536  0.00  0.00    +0.000 C 
ATOM     11  N   UNL     1       3.904   2.666  19.263  0.00  0.00    +0.000 N 
ATOM     12  C   UNL     1       2.887   3.586  19.442  0.00  0.00    +0.000 C 
ATOM     13  O   UNL     1       1.760   3.414  18.994  0.00  0.00    +0.000 OA
ATOM     14  N   UNL     1       3.370   4.729  20.043  0.00  0.00    +0.000 N 
ATOM     15  H   UNL     1       4.607   2.645  19.988  0.00  0.00    +0.000 HD
ATOM     16  H   UNL     1       4.336   4.906  19.832  0.00  0.00    +0.000 HD
ENDBRANCH   1  14
BRANCH   7  17
ATOM     17  C   UNL     1       4.398   6.423  17.230  0.00  0.00    +0.000 A 
ATOM     18  C   UNL     1       4.055   5.190  16.662  0.00  0.00    +0.000 A 
ATOM     19  C   UNL     1       5.030   4.347  16.126  0.00  0.00    +0.000 A 
ATOM     20  C   UNL     1       6.351   4.773  16.054  0.00  0.00    +0.000 A 
ATOM     21  C   UNL     1       6.691   6.044  16.510  0.00  0.00    +0.000 A 
ATOM     22  C   UNL     1       5.726   6.859  17.108  0.00  0.00    +0.000 A 
ENDBRANCH   7  17
BRANCH   9  23
ATOM     23  C   UNL     1       1.398  10.237  18.380  0.00  0.00    +0.000 C 
ATOM     24  O   UNL     1       1.764  11.041  19.531  0.00  0.00    +0.000 OA
ATOM     25  C   UNL     1       0.644  11.903  19.835  0.00  0.00    +0.000 C 
ATOM     26  C   UNL     1       0.226  11.676  21.283  0.00  0.00    +0.000 C 
ATOM     27  C   UNL     1      -0.468  11.570  18.839  0.00  0.00    +0.000 C 
ATOM     28  C   UNL     1      -0.127  10.148  18.420  0.00  0.00    +0.000 C 
BRANCH  27  29
ATOM     29  O   UNL     1      -0.404  12.413  17.672  0.00  0.00    +0.000 OA
ATOM     30  H   UNL     1       0.147  13.194  17.864  0.00  0.00    +0.000 HD
ENDBRANCH  27  29
BRANCH  28  31
ATOM     31  O   UNL     1      -0.744   9.810  17.186  0.00  0.00    +0.000 OA
ATOM     32  H   UNL     1      -1.077  10.649  16.802  0.00  0.00    +0.000 HD
ENDBRANCH  28  31
ENDBRANCH   9  23
TORSDOF 5
ENDMDL
MODEL 3
REMARK VINA RESULT:      -7.3      2.447      3.953
REMARK  Name = 
REMARK  7 active torsions:
REMARK  status: ('A' for Active; 'I' for Inactive)
REMARK    1  A    between atoms: C_1  and  N_2
REMARK    2  A    between atoms: N_5  and  C_6
REMARK    3  A    between atoms: C_12  and  C_13
REMARK    4  A    between atoms: N_20  and  C_21
REMARK    5  A    between atoms: C_23  and  C_24
REMARK    6  A    between atoms: C_25  and  O_26
REMARK    7  A    between atoms: C_27  and  O_28
REMARK                            x       y       z     vdW  Elec       q    Type
REMARK                         _______ _______ _______ _____ _____    ______ ____
ROOT
ATOM      1  C   UNL     1       3.087   3.065  19.704  0.00  0.00    +0.000 A 
ATOM      2  N   UNL     1       2.099   2.734  20.571  0.00  0.00    +0.000 NA
ATOM      3  C   UNL     1       1.173   3.654  20.860  0.00  0.00    +0.000 A 
ATOM      4  N   UNL     1       1.094   4.913  20.415  0.00  0.00    +0.000 NA
ATOM      5  C   UNL     1       2.091   5.210  19.555  0.00  0.00    +0.000 A 
ATOM      6  C   UNL     1       3.122   4.361  19.150  0.00  0.00    +0.000 A 
ATOM      7  C   UNL     1       3.905   5.105  18.198  0.00  0.00    +0.000 A 
ATOM      8  C   UNL     1       3.345   6.372  18.109  0.00  0.00    +0.000 A 
ATOM      9  N   UNL     1       2.261   6.425  18.947  0.00  0.00    +0.000 N 
ENDROOT
BRANCH   1  14
ATOM     10  C   UNL     1       6.104  -0.466  20.974  0.00  0.00    +0.000 C 
ATOM     11  N   UNL     1       5.466   0.416  20.027  0.00  0.00    +0.000 N 
ATOM     12  C   UNL     1       4.707   1.478  20.485  0.00  0.00    +0.000 C 
ATOM     13  O   UNL     1       4.541   1.700  21.678  0.00  0.00    +0.000 OA
ATOM     14  N   UNL     1       4.084   2.114  19.433  0.00  0.00    +0.000 N 
ATOM     15  H   UNL     1       5.913   0.551  19.131  0.00  0.00    +0.000 HD
ATOM     16  H   UNL     1       3.891   1.501  18.661  0.00  0.00    +0.000 HD
ENDBRANCH   1  14
BRANCH   7  17
ATOM     17  C   UNL     1       5.079   4.717  17.414  0.00  0.00    +0.000 A 
ATOM     18  C   UNL     1       6.364   4.794  17.963  0.00  0.00    +0.000 A 
ATOM     19  C   UNL     1       7.499   4.607  17.172  0.00  0.00    +0.000 A 
ATOM     20  C   UNL     1       7.360   4.234  15.839  0.00  0.00    +0.000 A 
ATOM     21  C   UNL     1       6.088   4.040  15.306  0.00  0.00    +0.000 A 
ATOM     22  C   UNL     1       4.953   4.295  16.082  0.00  0.00    +0.000 A 
ENDBRANCH   7  17
BRANCH   9  23
ATOM     23  C   UNL     1       1.392   7.563  19.199  0.00  0.00    +0.000 C 
ATOM     24  O   UNL     1       1.359   8.453  18.052  0.00  0.00    +0.000 OA
ATOM     25  C   UNL     1       1.123   9.791  18.546  0.00  0.00    +0.000 C 
ATOM     26  C   UNL     1       2.244  10.701  18.058  0.00  0.00    +0.000 C 
ATOM     27  C   UNL     1       1.052   9.706  20.071  0.00  0.00    +0.000 C 
ATOM     28  C   UNL     1       1.833   8.436  20.373  0.00  0.00    +0.000 C 
BRANCH  27  29
ATOM     29  O   UNL     1      -0.302   9.523  20.529  0.00  0.00    +0.000 OA
ATOM     30  H   UNL     1      -0.295   9.099  21.408  0.00  0.00    +0.000 HD
ENDBRANCH  27  29
BRANCH  28  31
ATOM     31  O   UNL     1       1.513   7.923  21.658  0.00  0.00    +0.000 OA
ATOM     32  H   UNL     1       1.864   8.568  22.311  0.00  0.00    +0.000 HD
ENDBRANCH  28  31
ENDBRANCH   9  23
TORSDOF 5
ENDMDL
MODEL 4
REMARK VINA RESULT:      -7.3      4.667      7.539
REMARK  Name = 
REMARK  7 active torsions:
REMARK  status: ('A' for Active; 'I' for Inactive)
REMARK    1  A    between atoms: C_1  and  N_2
REMARK    2  A    between atoms: N_5  and  C_6
REMARK    3  A    between atoms: C_12  and  C_13
REMARK    4  A    between atoms: N_20  and  C_21
REMARK    5  A    between atoms: C_23  and  C_24
REMARK    6  A    between atoms: C_25  and  O_26
REMARK    7  A    between atoms: C_27  and  O_28
REMARK                            x       y       z     vdW  Elec       q    Type
REMARK                         _______ _______ _______ _____ _____    ______ ____
ROOT
ATOM      1  C   UNL     1      -0.682  12.384  20.233  0.00  0.00    +0.000 A 
ATOM      2  N   UNL     1       0.051  12.881  21.259  0.00  0.00    +0.000 NA
ATOM      3  C   UNL     1      -0.594  13.349  22.333  0.00  0.00    +0.000 A 
ATOM      4  N   UNL     1      -1.914  13.419  22.536  0.00  0.00    +0.000 NA
ATOM      5  C   UNL     1      -2.615  12.916  21.497  0.00  0.00    +0.000 A 
ATOM      6  C   UNL     1      -2.090  12.389  20.317  0.00  0.00    +0.000 A 
ATOM      7  C   UNL     1      -3.217  11.941  19.541  0.00  0.00    +0.000 A 
ATOM      8  C   UNL     1      -4.361  12.259  20.260  0.00  0.00    +0.000 A 
ATOM      9  N   UNL     1      -3.981  12.863  21.431  0.00  0.00    +0.000 N 
ENDROOT
BRANCH   1  14
ATOM     10  C   UNL     1       1.844   9.123  17.751  0.00  0.00    +0.000 C 
ATOM     11  N   UNL     1       1.138  10.371  17.906  0.00  0.00    +0.000 N 
ATOM     12  C   UNL     1       0.762  10.792  19.169  0.00  0.00    +0.000 C 
ATOM     13  O   UNL     1       0.997  10.137  20.177  0.00  0.00    +0.000 OA
ATOM     14  N   UNL     1      -0.008  11.933  19.088  0.00  0.00    +0.000 N 
ATOM     15  H   UNL     1       1.320  11.105  17.236  0.00  0.00    +0.000 HD
ATOM     16  H   UNL     1      -0.532  11.993  18.232  0.00  0.00    +0.000 HD
ENDBRANCH   1  14
BRANCH   7  17
ATOM     17  C   UNL     1      -3.278  11.271  18.241  0.00  0.00    +0.000 A 
ATOM     18  C   UNL     1      -2.455  10.174  17.961  0.00  0.00    +0.000 A 
ATOM     19  C   UNL     1      -2.370   9.646  16.672  0.00  0.00    +0.000 A 
ATOM     20  C   UNL     1      -3.190  10.143  15.665  0.00  0.00    +0.000 A 
ATOM     21  C   UNL     1      -4.098  11.159  15.953  0.00  0.00    +0.000 A 
ATOM     22  C   UNL     1      -4.133  11.731  17.228  0.00  0.00    +0.000 A 
ENDBRANCH   7  17
BRANCH   9  23
ATOM     23  C   UNL     1      -4.845  13.390  22.476  0.00  0.00    +0.000 C 
ATOM     24  O   UNL     1      -5.529  12.317  23.173  0.00  0.00    +0.000 OA
ATOM     25  C   UNL     1      -6.796  12.836  23.637  0.00  0.00    +0.000 C 
ATOM     26  C   UNL     1      -7.916  11.957  23.095  0.00  0.00    +0.000 C 
ATOM     27  C   UNL     1      -6.895  14.285  23.157  0.00  0.00    +0.000 C 
ATOM     28  C   UNL     1      -5.954  14.308  21.963  0.00  0.00    +0.000 C 
BRANCH  27  29
ATOM     29  O   UNL     1      -6.393  15.206  24.146  0.00  0.00    +0.000 OA
ATOM     30  H   UNL     1      -5.580  15.630  23.813  0.00  0.00    +0.000 HD
ENDBRANCH  27  29
BRANCH  28  31
ATOM     31  O   UNL     1      -5.545  15.631  21.650  0.00  0.00    +0.000 OA
ATOM     32  H   UNL     1      -4.969  15.565  20.858  0.00  0.00    +0.000 HD
ENDBRANCH  28  31
ENDBRANCH   9  23
TORSDOF 5
ENDMDL
MODEL 5
REMARK VINA RESULT:      -7.2      2.741      4.376
REMARK  Name = 
REMARK  7 active torsions:
REMARK  status: ('A' for Active; 'I' for Inactive)
REMARK    1  A    between atoms: C_1  and  N_2
REMARK    2  A    between atoms: N_5  and  C_6
REMARK    3  A    between atoms: C_12  and  C_13
REMARK    4  A    between atoms: N_20  and  C_21
REMARK    5  A    between atoms: C_23  and  C_24
REMARK    6  A    between atoms: C_25  and  O_26
REMARK    7  A    between atoms: C_27  and  O_28
REMARK                            x       y       z     vdW  Elec       q    Type
REMARK                         _______ _______ _______ _____ _____    ______ ____
ROOT
ATOM      1  C   UNL     1       3.183   7.198  17.647  0.00  0.00    +0.000 A 
ATOM      2  N   UNL     1       3.172   8.471  17.180  0.00  0.00    +0.000 NA
ATOM      3  C   UNL     1       2.535   9.404  17.895  0.00  0.00    +0.000 A 
ATOM      4  N   UNL     1       1.860   9.248  19.039  0.00  0.00    +0.000 NA
ATOM      5  C   UNL     1       1.891   7.972  19.476  0.00  0.00    +0.000 A 
ATOM      6  C   UNL     1       2.516   6.893  18.851  0.00  0.00    +0.000 A 
ATOM      7  C   UNL     1       2.315   5.757  19.713  0.00  0.00    +0.000 A 
ATOM      8  C   UNL     1       1.545   6.188  20.784  0.00  0.00    +0.000 A 
ATOM      9  N   UNL     1       1.283   7.524  20.618  0.00  0.00    +0.000 N 
ENDROOT
BRANCH   1  14
ATOM     10  C   UNL     1       6.975   4.505  16.399  0.00  0.00    +0.000 C 
ATOM     11  N   UNL     1       5.591   4.908  16.328  0.00  0.00    +0.000 N 
ATOM     12  C   UNL     1       5.185   6.074  16.952  0.00  0.00    +0.000 C 
ATOM     13  O   UNL     1       5.958   6.786  17.581  0.00  0.00    +0.000 OA
ATOM     14  N   UNL     1       3.815   6.209  16.876  0.00  0.00    +0.000 N 
ATOM     15  H   UNL     1       5.062   4.642  15.510  0.00  0.00    +0.000 HD
ATOM     16  H   UNL     1       3.334   5.328  16.835  0.00  0.00    +0.000 HD
ENDBRANCH   1  14
BRANCH   7  17
ATOM     17  C   UNL     1       2.777   4.373  19.595  0.00  0.00    +0.000 A 
ATOM     18  C   UNL     1       4.130   4.053  19.760  0.00  0.00    +0.000 A 
ATOM     19  C   UNL     1       4.609   2.775  19.469  0.00  0.00    +0.000 A 
ATOM     20  C   UNL     1       3.721   1.767  19.111  0.00  0.00    +0.000 A 
ATOM     21  C   UNL     1       2.356   2.039  19.053  0.00  0.00    +0.000 A 
ATOM     22  C   UNL     1       1.886   3.336  19.279  0.00  0.00    +0.000 A 
ENDBRANCH   7  17
BRANCH   9  23
ATOM     23  C   UNL     1       0.487   8.383  21.480  0.00  0.00    +0.000 C 
ATOM     24  O   UNL     1      -0.608   8.986  20.741  0.00  0.00    +0.000 OA
ATOM     25  C   UNL     1      -0.893  10.265  21.352  0.00  0.00    +0.000 C 
ATOM     26  C   UNL     1      -0.794  11.351  20.288  0.00  0.00    +0.000 C 
ATOM     27  C   UNL     1       0.109  10.457  22.490  0.00  0.00    +0.000 C 
ATOM     28  C   UNL     1       1.262   9.556  22.079  0.00  0.00    +0.000 C 
BRANCH  27  29
ATOM     29  O   UNL     1      -0.414   9.977  23.744  0.00  0.00    +0.000 OA
ATOM     30  H   UNL     1      -1.271   9.536  23.592  0.00  0.00    +0.000 HD
ENDBRANCH  27  29
BRANCH  28  31
ATOM     31  O   UNL     1       2.087   9.230  23.188  0.00  0.00    +0.000 OA
ATOM     32  H   UNL     1       2.741   8.572  22.865  0.00  0.00    +0.000 HD
ENDBRANCH  28  31
ENDBRANCH   9  23
TORSDOF 5
ENDMDL
MODEL 6
REMARK VINA RESULT:      -7.1      2.298      3.648
REMARK  Name = 
REMARK  7 active torsions:
REMARK  status: ('A' for Active; 'I' for Inactive)
REMARK    1  A    between atoms: C_1  and  N_2
REMARK    2  A    between atoms: N_5  and  C_6
REMARK    3  A    between atoms: C_12  and  C_13
REMARK    4  A    between atoms: N_20  and  C_21
REMARK    5  A    between atoms: C_23  and  C_24
REMARK    6  A    between atoms: C_25  and  O_26
REMARK    7  A    between atoms: C_27  and  O_28
REMARK                            x       y       z     vdW  Elec       q    Type
REMARK                         _______ _______ _______ _____ _____    ______ ____
ROOT
ATOM      1  C   UNL     1       3.090   3.545  19.739  0.00  0.00    +0.000 A 
ATOM      2  N   UNL     1       2.069   3.183  20.553  0.00  0.00    +0.000 NA
ATOM      3  C   UNL     1       1.119   4.085  20.819  0.00  0.00    +0.000 A 
ATOM      4  N   UNL     1       1.042   5.351  20.395  0.00  0.00    +0.000 NA
ATOM      5  C   UNL     1       2.073   5.679  19.587  0.00  0.00    +0.000 A 
ATOM      6  C   UNL     1       3.132   4.852  19.213  0.00  0.00    +0.000 A 
ATOM      7  C   UNL     1       3.947   5.625  18.312  0.00  0.00    +0.000 A 
ATOM      8  C   UNL     1       3.374   6.886  18.223  0.00  0.00    +0.000 A 
ATOM      9  N   UNL     1       2.252   6.908  19.011  0.00  0.00    +0.000 N 
ENDROOT
BRANCH   1  14
ATOM     10  C   UNL     1       5.857  -0.204  20.957  0.00  0.00    +0.000 C 
ATOM     11  N   UNL     1       5.377   0.814  20.054  0.00  0.00    +0.000 N 
ATOM     12  C   UNL     1       4.562   1.824  20.532  0.00  0.00    +0.000 C 
ATOM     13  O   UNL     1       4.216   1.888  21.705  0.00  0.00    +0.000 OA
ATOM     14  N   UNL     1       4.112   2.613  19.495  0.00  0.00    +0.000 N 
ATOM     15  H   UNL     1       5.957   1.056  19.263  0.00  0.00    +0.000 HD
ATOM     16  H   UNL     1       4.036   2.114  18.626  0.00  0.00    +0.000 HD
ENDBRANCH   1  14
BRANCH   7  17
ATOM     17  C   UNL     1       5.160   5.269  17.575  0.00  0.00    +0.000 A 
ATOM     18  C   UNL     1       5.119   5.047  16.193  0.00  0.00    +0.000 A 
ATOM     19  C   UNL     1       6.222   4.529  15.513  0.00  0.00    +0.000 A 
ATOM     20  C   UNL     1       7.421   4.327  16.190  0.00  0.00    +0.000 A 
ATOM     21  C   UNL     1       7.513   4.651  17.541  0.00  0.00    +0.000 A 
ATOM     22  C   UNL     1       6.388   5.105  18.234  0.00  0.00    +0.000 A 
ENDBRANCH   7  17
BRANCH   9  23
ATOM     23  C   UNL     1       1.357   8.029  19.246  0.00  0.00    +0.000 C 
ATOM     24  O   UNL     1       1.365   8.944  18.119  0.00  0.00    +0.000 OA
ATOM     25  C   UNL     1       1.089  10.268  18.629  0.00  0.00    +0.000 C 
ATOM     26  C   UNL     1       2.219  11.202  18.214  0.00  0.00    +0.000 C 
ATOM     27  C   UNL     1       0.947  10.148  20.147  0.00  0.00    +0.000 C 
ATOM     28  C   UNL     1       1.730   8.882  20.458  0.00  0.00    +0.000 C 
BRANCH  27  29
ATOM     29  O   UNL     1      -0.424   9.938  20.536  0.00  0.00    +0.000 OA
ATOM     30  H   UNL     1      -0.903  10.788  20.516  0.00  0.00    +0.000 HD
ENDBRANCH  27  29
BRANCH  28  31
ATOM     31  O   UNL     1       1.357   8.338  21.716  0.00  0.00    +0.000 OA
ATOM     32  H   UNL     1       1.980   7.600  21.895  0.00  0.00    +0.000 HD
ENDBRANCH  28  31
ENDBRANCH   9  23
TORSDOF 5
ENDMDL
MODEL 7
REMARK VINA RESULT:      -7.1      2.799      6.620
REMARK  Name = 
REMARK  7 active torsions:
REMARK  status: ('A' for Active; 'I' for Inactive)
REMARK    1  A    between atoms: C_1  and  N_2
REMARK    2  A    between atoms: N_5  and  C_6
REMARK    3  A    between atoms: C_12  and  C_13
REMARK    4  A    between atoms: N_20  and  C_21
REMARK    5  A    between atoms: C_23  and  C_24
REMARK    6  A    between atoms: C_25  and  O_26
REMARK    7  A    between atoms: C_27  and  O_28
REMARK                            x       y       z     vdW  Elec       q    Type
REMARK                         _______ _______ _______ _____ _____    ______ ____
ROOT
ATOM      1  C   UNL     1       1.316   6.773  20.582  0.00  0.00    +0.000 A 
ATOM      2  N   UNL     1       1.540   5.615  21.249  0.00  0.00    +0.000 NA
ATOM      3  C   UNL     1       2.502   4.801  20.804  0.00  0.00    +0.000 A 
ATOM      4  N   UNL     1       3.293   4.965  19.738  0.00  0.00    +0.000 NA
ATOM      5  C   UNL     1       3.046   6.127  19.097  0.00  0.00    +0.000 A 
ATOM      6  C   UNL     1       2.085   7.078  19.440  0.00  0.00    +0.000 A 
ATOM      7  C   UNL     1       2.232   8.156  18.496  0.00  0.00    +0.000 A 
ATOM      8  C   UNL     1       3.232   7.788  17.607  0.00  0.00    +0.000 A 
ATOM      9  N   UNL     1       3.702   6.553  17.973  0.00  0.00    +0.000 N 
ENDROOT
BRANCH   1  14
ATOM     10  C   UNL     1      -0.389  10.818  22.559  0.00  0.00    +0.000 C 
ATOM     11  N   UNL     1      -0.522   9.539  21.908  0.00  0.00    +0.000 N 
ATOM     12  C   UNL     1       0.584   8.716  21.782  0.00  0.00    +0.000 C 
ATOM     13  O   UNL     1       1.690   9.037  22.198  0.00  0.00    +0.000 OA
ATOM     14  N   UNL     1       0.277   7.608  21.022  0.00  0.00    +0.000 N 
ATOM     15  H   UNL     1      -1.414   9.067  21.966  0.00  0.00    +0.000 HD
ATOM     16  H   UNL     1      -0.446   7.783  20.346  0.00  0.00    +0.000 HD
ENDBRANCH   1  14
BRANCH   7  17
ATOM     17  C   UNL     1       1.529   9.435  18.388  0.00  0.00    +0.000 A 
ATOM     18  C   UNL     1       2.221  10.646  18.518  0.00  0.00    +0.000 A 
ATOM     19  C   UNL     1       1.539  11.860  18.602  0.00  0.00    +0.000 A 
ATOM     20  C   UNL     1       0.157  11.891  18.450  0.00  0.00    +0.000 A 
ATOM     21  C   UNL     1      -0.537  10.708  18.206  0.00  0.00    +0.000 A 
ATOM     22  C   UNL     1       0.141   9.486  18.189  0.00  0.00    +0.000 A 
ENDBRANCH   7  17
BRANCH   9  23
ATOM     23  C   UNL     1       4.728   5.764  17.310  0.00  0.00    +0.000 C 
ATOM     24  O   UNL     1       5.566   5.084  18.280  0.00  0.00    +0.000 OA
ATOM     25  C   UNL     1       6.880   4.937  17.694  0.00  0.00    +0.000 C 
ATOM     26  C   UNL     1       7.907   5.571  18.624  0.00  0.00    +0.000 C 
ATOM     27  C   UNL     1       6.839   5.599  16.317  0.00  0.00    +0.000 C 
ATOM     28  C   UNL     1       5.691   6.587  16.454  0.00  0.00    +0.000 C 
BRANCH  27  29
ATOM     29  O   UNL     1       6.501   4.653  15.284  0.00  0.00    +0.000 OA
ATOM     30  H   UNL     1       6.204   5.132  14.487  0.00  0.00    +0.000 HD
ENDBRANCH  27  29
BRANCH  28  31
ATOM     31  O   UNL     1       5.186   6.975  15.184  0.00  0.00    +0.000 OA
ATOM     32  H   UNL     1       4.209   6.897  15.237  0.00  0.00    +0.000 HD
ENDBRANCH  28  31
ENDBRANCH   9  23
TORSDOF 5
ENDMDL
MODEL 8
REMARK VINA RESULT:      -7.0      2.851      6.757
REMARK  Name = 
REMARK  7 active torsions:
REMARK  status: ('A' for Active; 'I' for Inactive)
REMARK    1  A    between atoms: C_1  and  N_2
REMARK    2  A    between atoms: N_5  and  C_6
REMARK    3  A    between atoms: C_12  and  C_13
REMARK    4  A    between atoms: N_20  and  C_21
REMARK    5  A    between atoms: C_23  and  C_24
REMARK    6  A    between atoms: C_25  and  O_26
REMARK    7  A    between atoms: C_27  and  O_28
REMARK                            x       y       z     vdW  Elec       q    Type
REMARK                         _______ _______ _______ _____ _____    ______ ____
ROOT
ATOM      1  C   UNL     1       1.627   6.814  20.330  0.00  0.00    +0.000 A 
ATOM      2  N   UNL     1       2.049   5.646  20.871  0.00  0.00    +0.000 NA
ATOM      3  C   UNL     1       3.076   5.013  20.294  0.00  0.00    +0.000 A 
ATOM      4  N   UNL     1       3.758   5.374  19.202  0.00  0.00    +0.000 NA
ATOM      5  C   UNL     1       3.314   6.541  18.689  0.00  0.00    +0.000 A 
ATOM      6  C   UNL     1       2.264   7.319  19.177  0.00  0.00    +0.000 A 
ATOM      7  C   UNL     1       2.198   8.482  18.332  0.00  0.00    +0.000 A 
ATOM      8  C   UNL     1       3.171   8.332  17.353  0.00  0.00    +0.000 A 
ATOM      9  N   UNL     1       3.825   7.147  17.573  0.00  0.00    +0.000 N 
ENDROOT
BRANCH   1  14
ATOM     10  C   UNL     1      -0.458  10.426  22.736  0.00  0.00    +0.000 C 
ATOM     11  N   UNL     1      -0.464   9.187  21.998  0.00  0.00    +0.000 N 
ATOM     12  C   UNL     1       0.732   8.545  21.729  0.00  0.00    +0.000 C 
ATOM     13  O   UNL     1       1.813   8.995  22.086  0.00  0.00    +0.000 OA
ATOM     14  N   UNL     1       0.521   7.457  20.908  0.00  0.00    +0.000 N 
ATOM     15  H   UNL     1      -1.273   8.588  22.085  0.00  0.00    +0.000 HD
ATOM     16  H   UNL     1      -0.273   7.570  20.303  0.00  0.00    +0.000 HD
ENDBRANCH   1  14
BRANCH   7  17
ATOM     17  C   UNL     1       1.326   9.657  18.387  0.00  0.00    +0.000 A 
ATOM     18  C   UNL     1       1.828  10.903  18.783  0.00  0.00    +0.000 A 
ATOM     19  C   UNL     1       0.975  11.982  19.018  0.00  0.00    +0.000 A 
ATOM     20  C   UNL     1      -0.386  11.859  18.756  0.00  0.00    +0.000 A 
ATOM     21  C   UNL     1      -0.886  10.661  18.252  0.00  0.00    +0.000 A 
ATOM     22  C   UNL     1      -0.040   9.561  18.082  0.00  0.00    +0.000 A 
ENDBRANCH   7  17
BRANCH   9  23
ATOM     23  C   UNL     1       4.895   6.567  16.778  0.00  0.00    +0.000 C 
ATOM     24  O   UNL     1       4.467   5.326  16.159  0.00  0.00    +0.000 OA
ATOM     25  C   UNL     1       5.635   4.485  16.014  0.00  0.00    +0.000 C 
ATOM     26  C   UNL     1       5.374   3.156  16.711  0.00  0.00    +0.000 C 
ATOM     27  C   UNL     1       6.818   5.246  16.614  0.00  0.00    +0.000 C 
ATOM     28  C   UNL     1       6.144   6.206  17.582  0.00  0.00    +0.000 C 
BRANCH  27  29
ATOM     29  O   UNL     1       7.510   6.022  15.616  0.00  0.00    +0.000 OA
ATOM     30  H   UNL     1       7.590   5.500  14.796  0.00  0.00    +0.000 HD
ENDBRANCH  27  29
BRANCH  28  31
ATOM     31  O   UNL     1       6.991   7.300  17.902  0.00  0.00    +0.000 OA
ATOM     32  H   UNL     1       7.778   6.921  18.351  0.00  0.00    +0.000 HD
ENDBRANCH  28  31
ENDBRANCH   9  23
TORSDOF 5
ENDMDL
MODEL 9
REMARK VINA RESULT:      -6.9      2.512      4.219
REMARK  Name = 
REMARK  7 active torsions:
REMARK  status: ('A' for Active; 'I' for Inactive)
REMARK    1  A    between atoms: C_1  and  N_2
REMARK    2  A    between atoms: N_5  and  C_6
REMARK    3  A    between atoms: C_12  and  C_13
REMARK    4  A    between atoms: N_20  and  C_21
REMARK    5  A    between atoms: C_23  and  C_24
REMARK    6  A    between atoms: C_25  and  O_26
REMARK    7  A    between atoms: C_27  and  O_28
REMARK                            x       y       z     vdW  Elec       q    Type
REMARK                         _______ _______ _______ _____ _____    ______ ____
ROOT
ATOM      1  C   UNL     1       2.903   7.371  17.964  0.00  0.00    +0.000 A 
ATOM      2  N   UNL     1       2.939   8.536  17.272  0.00  0.00    +0.000 NA
ATOM      3  C   UNL     1       2.252   9.579  17.748  0.00  0.00    +0.000 A 
ATOM      4  N   UNL     1       1.486   9.631  18.843  0.00  0.00    +0.000 NA
ATOM      5  C   UNL     1       1.473   8.457  19.509  0.00  0.00    +0.000 A 
ATOM      6  C   UNL     1       2.138   7.286  19.146  0.00  0.00    +0.000 A 
ATOM      7  C   UNL     1       1.861   6.327  20.182  0.00  0.00    +0.000 A 
ATOM      8  C   UNL     1       1.010   6.941  21.091  0.00  0.00    +0.000 A 
ATOM      9  N   UNL     1       0.772   8.222  20.661  0.00  0.00    +0.000 N 
ENDROOT
BRANCH   1  14
ATOM     10  C   UNL     1       6.907   4.933  16.864  0.00  0.00    +0.000 C 
ATOM     11  N   UNL     1       5.478   5.096  16.973  0.00  0.00    +0.000 N 
ATOM     12  C   UNL     1       4.951   6.345  17.252  0.00  0.00    +0.000 C 
ATOM     13  O   UNL     1       5.657   7.331  17.424  0.00  0.00    +0.000 OA
ATOM     14  N   UNL     1       3.588   6.262  17.442  0.00  0.00    +0.000 N 
ATOM     15  H   UNL     1       4.888   4.485  16.426  0.00  0.00    +0.000 HD
ATOM     16  H   UNL     1       3.295   5.371  17.800  0.00  0.00    +0.000 HD
ENDBRANCH   1  14
BRANCH   7  17
ATOM     17  C   UNL     1       2.321   4.949  20.359  0.00  0.00    +0.000 A 
ATOM     18  C   UNL     1       3.647   4.595  20.081  0.00  0.00    +0.000 A 
ATOM     19  C   UNL     1       4.048   3.259  20.066  0.00  0.00    +0.000 A 
ATOM     20  C   UNL     1       3.152   2.262  20.437  0.00  0.00    +0.000 A 
ATOM     21  C   UNL     1       1.861   2.606  20.828  0.00  0.00    +0.000 A 
ATOM     22  C   UNL     1       1.441   3.939  20.776  0.00  0.00    +0.000 A 
ENDBRANCH   7  17
BRANCH   9  23
ATOM     23  C   UNL     1      -0.086   9.219  21.283  0.00  0.00    +0.000 C 
ATOM     24  O   UNL     1      -0.702  10.069  20.281  0.00  0.00    +0.000 OA
ATOM     25  C   UNL     1      -0.919  11.365  20.883  0.00  0.00    +0.000 C 
ATOM     26  C   UNL     1      -0.232  12.425  20.031  0.00  0.00    +0.000 C 
ATOM     27  C   UNL     1      -0.367  11.301  22.308  0.00  0.00    +0.000 C 
ATOM     28  C   UNL     1       0.649  10.173  22.224  0.00  0.00    +0.000 C 
BRANCH  27  29
ATOM     29  O   UNL     1      -1.385  10.923  23.254  0.00  0.00    +0.000 OA
ATOM     30  H   UNL     1      -0.985  10.814  24.137  0.00  0.00    +0.000 HD
ENDBRANCH  27  29
BRANCH  28  31
ATOM     31  O   UNL     1       0.944   9.644  23.508  0.00  0.00    +0.000 OA
ATOM     32  H   UNL     1       1.855   9.282  23.457  0.00  0.00    +0.000 HD
ENDBRANCH  28  31
ENDBRANCH   9  23
TORSDOF 5
ENDMDL
