MODEL 1
REMARK VINA RESULT:      -9.1      0.000      0.000
REMARK  Name = 
REMARK  10 active torsions:
REMARK  status: ('A' for Active; 'I' for Inactive)
REMARK    1  A    between atoms: C_1  and  C_2
REMARK    2  A    between atoms: C_5  and  C_6
REMARK    3  A    between atoms: C_6  and  C_7
REMARK    4  A    between atoms: C_7  and  O_8
REMARK    5  A    between atoms: O_8  and  C_9
REMARK    6  A    between atoms: N_16  and  C1*_17
REMARK    7  A    between atoms: C4*_19  and  C5*_20
REMARK    8  A    between atoms: C5*_20  and  O5*_21
REMARK    9  A    between atoms: C3*_22  and  O3*_23
REMARK   10  A    between atoms: C2*_24  and  O2*_25
REMARK                            x       y       z     vdW  Elec       q    Type
REMARK                         _______ _______ _______ _____ _____    ______ ____
ROOT
ATOM      1  C   UNL     1       7.404   6.574  17.786  0.00  0.00    +0.000 A 
ATOM      2  N   UNL     1       7.744   6.423  16.486  0.00  0.00    +0.000 NA
ATOM      3  C   UNL     1       7.003   5.606  15.710  0.00  0.00    +0.000 A 
ATOM      4  N   UNL     1       7.351   5.471  14.373  0.00  0.00    +0.000 N 
ATOM      5  C   UNL     1       5.925   4.922  16.291  0.00  0.00    +0.000 A 
ATOM      6  N   UNL     1       5.025   4.008  15.785  0.00  0.00    +0.000 NA
ATOM      7  C   UNL     1       4.239   3.721  16.800  0.00  0.00    +0.000 A 
ATOM      8  N   UNL     1       4.586   4.410  17.934  0.00  0.00    +0.000 N 
ATOM      9  C   UNL     1       5.687   5.166  17.632  0.00  0.00    +0.000 A 
ATOM     10  N   UNL     1       6.391   5.973  18.444  0.00  0.00    +0.000 NA
ATOM     11  H   UNL     1       8.322   5.702  14.202  0.00  0.00    +0.000 HD
ATOM     12  H   UNL     1       6.986   4.627  13.945  0.00  0.00    +0.000 HD
ENDROOT
BRANCH   8  13
ATOM     13  C1* UNL     1       3.884   4.335  19.194  0.00  0.00    +0.000 C 
ATOM     14  O4* UNL     1       3.377   2.996  19.379  0.00  0.00    +0.000 OA
ATOM     15  C4* UNL     1       2.045   3.084  19.944  0.00  0.00    +0.000 C 
ATOM     16  C3* UNL     1       1.828   4.548  20.323  0.00  0.00    +0.000 C 
ATOM     17  C2* UNL     1       2.712   5.302  19.342  0.00  0.00    +0.000 C 
BRANCH  16  18
ATOM     18  O3* UNL     1       2.312   4.833  21.651  0.00  0.00    +0.000 OA
ATOM     19  H3* UNL     1       2.813   5.669  21.637  0.00  0.00    +0.000 HD
ENDBRANCH  16  18
BRANCH  17  20
ATOM     20  O2* UNL     1       3.119   6.566  19.868  0.00  0.00    +0.000 OA
ATOM     21  H2* UNL     1       3.922   6.823  19.367  0.00  0.00    +0.000 HD
ENDBRANCH  17  20
BRANCH  15  22
ATOM     22  C5* UNL     1       1.021   2.569  18.928  0.00  0.00    +0.000 C 
BRANCH  22  23
ATOM     23  O5* UNL     1       1.679   1.794  17.928  0.00  0.00    +0.000 OA
ATOM     24  H5* UNL     1       1.037   1.114  17.649  0.00  0.00    +0.000 HD
ENDBRANCH  22  23
ENDBRANCH  15  22
ENDBRANCH   8  13
BRANCH   1  25
ATOM     25  O   UNL     1       8.191   7.390  18.578  0.00  0.00    +0.000 OA
BRANCH  25  26
ATOM     26  C   UNL     1       8.272   8.726  18.066  0.00  0.00    +0.000 C 
BRANCH  26  27
ATOM     27  C   UNL     1       8.923   9.620  19.124  0.00  0.00    +0.000 C 
BRANCH  27  32
ATOM     28  C   UNL     1      11.296  14.432  16.832  0.00  0.00    +0.000 C 
ATOM     29  C   UNL     1      10.691  13.199  17.437  0.00  0.00    +0.000 A 
ATOM     30  C   UNL     1      11.495  12.220  18.032  0.00  0.00    +0.000 A 
ATOM     31  C   UNL     1      10.922  11.067  18.580  0.00  0.00    +0.000 A 
ATOM     32  C   UNL     1       9.535  10.870  18.539  0.00  0.00    +0.000 A 
ATOM     33  C   UNL     1       8.733  11.857  17.955  0.00  0.00    +0.000 A 
ATOM     34  C   UNL     1       9.306  13.008  17.407  0.00  0.00    +0.000 A 
ENDBRANCH  27  32
ENDBRANCH  26  27
ENDBRANCH  25  26
ENDBRANCH   1  25
TORSDOF 9
ENDMDL
MODEL 2
REMARK VINA RESULT:      -8.4      4.826      7.975
REMARK  Name = 
REMARK  10 active torsions:
REMARK  status: ('A' for Active; 'I' for Inactive)
REMARK    1  A    between atoms: C_1  and  C_2
REMARK    2  A    between atoms: C_5  and  C_6
REMARK    3  A    between atoms: C_6  and  C_7
REMARK    4  A    between atoms: C_7  and  O_8
REMARK    5  A    between atoms: O_8  and  C_9
REMARK    6  A    between atoms: N_16  and  C1*_17
REMARK    7  A    between atoms: C4*_19  and  C5*_20
REMARK    8  A    between atoms: C5*_20  and  O5*_21
REMARK    9  A    between atoms: C3*_22  and  O3*_23
REMARK   10  A    between atoms: C2*_24  and  O2*_25
REMARK                            x       y       z     vdW  Elec       q    Type
REMARK                         _______ _______ _______ _____ _____    ______ ____
ROOT
ATOM      1  C   UNL     1       2.018   6.365  20.260  0.00  0.00    +0.000 A 
ATOM      2  N   UNL     1       1.297   5.358  20.804  0.00  0.00    +0.000 NA
ATOM      3  C   UNL     1       1.599   4.087  20.470  0.00  0.00    +0.000 A 
ATOM      4  N   UNL     1       0.864   3.061  21.047  0.00  0.00    +0.000 N 
ATOM      5  C   UNL     1       2.632   3.861  19.548  0.00  0.00    +0.000 A 
ATOM      6  N   UNL     1       3.141   2.708  18.988  0.00  0.00    +0.000 NA
ATOM      7  C   UNL     1       4.107   3.123  18.197  0.00  0.00    +0.000 A 
ATOM      8  N   UNL     1       4.248   4.486  18.225  0.00  0.00    +0.000 N 
ATOM      9  C   UNL     1       3.289   4.980  19.067  0.00  0.00    +0.000 A 
ATOM     10  N   UNL     1       3.029   6.263  19.372  0.00  0.00    +0.000 NA
ATOM     11  H   UNL     1      -0.046   3.371  21.366  0.00  0.00    +0.000 HD
ATOM     12  H   UNL     1       0.908   2.192  20.526  0.00  0.00    +0.000 HD
ENDROOT
BRANCH   8  13
ATOM     13  C1* UNL     1       5.251   5.227  17.495  0.00  0.00    +0.000 C 
ATOM     14  O4* UNL     1       4.712   5.624  16.215  0.00  0.00    +0.000 OA
ATOM     15  C4* UNL     1       5.745   5.454  15.211  0.00  0.00    +0.000 C 
ATOM     16  C3* UNL     1       7.039   5.149  15.964  0.00  0.00    +0.000 C 
ATOM     17  C2* UNL     1       6.556   4.479  17.241  0.00  0.00    +0.000 C 
BRANCH  16  18
ATOM     18  O3* UNL     1       7.732   6.355  16.344  0.00  0.00    +0.000 OA
ATOM     19  H3* UNL     1       8.588   6.120  16.746  0.00  0.00    +0.000 HD
ENDBRANCH  16  18
BRANCH  17  20
ATOM     20  O2* UNL     1       7.491   4.646  18.307  0.00  0.00    +0.000 OA
ATOM     21  H2* UNL     1       8.192   3.975  18.163  0.00  0.00    +0.000 HD
ENDBRANCH  17  20
BRANCH  15  22
ATOM     22  C5* UNL     1       5.339   4.342  14.240  0.00  0.00    +0.000 C 
BRANCH  22  23
ATOM     23  O5* UNL     1       6.401   3.399  14.112  0.00  0.00    +0.000 OA
ATOM     24  H5* UNL     1       7.096   3.847  13.592  0.00  0.00    +0.000 HD
ENDBRANCH  22  23
ENDBRANCH  15  22
ENDBRANCH   8  13
BRANCH   1  25
ATOM     25  O   UNL     1       1.677   7.665  20.586  0.00  0.00    +0.000 OA
BRANCH  25  26
ATOM     26  C   UNL     1       1.500   8.484  19.423  0.00  0.00    +0.000 C 
BRANCH  26  27
ATOM     27  C   UNL     1       0.946   9.843  19.859  0.00  0.00    +0.000 C 
BRANCH  27  32
ATOM     28  C   UNL     1      -3.849  11.403  16.926  0.00  0.00    +0.000 C 
ATOM     29  C   UNL     1      -2.626  10.996  17.692  0.00  0.00    +0.000 A 
ATOM     30  C   UNL     1      -2.327  11.572  18.933  0.00  0.00    +0.000 A 
ATOM     31  C   UNL     1      -1.176  11.195  19.633  0.00  0.00    +0.000 A 
ATOM     32  C   UNL     1      -0.299  10.239  19.104  0.00  0.00    +0.000 A 
ATOM     33  C   UNL     1      -0.607   9.655  17.869  0.00  0.00    +0.000 A 
ATOM     34  C   UNL     1      -1.757  10.032  17.170  0.00  0.00    +0.000 A 
ENDBRANCH  27  32
ENDBRANCH  26  27
ENDBRANCH  25  26
ENDBRANCH   1  25
TORSDOF 9
ENDMDL
MODEL 3
REMARK VINA RESULT:      -8.3      1.274      1.488
REMARK  Name = 
REMARK  10 active torsions:
REMARK  status: ('A' for Active; 'I' for Inactive)
REMARK    1  A    between atoms: C_1  and  C_2
REMARK    2  A    between atoms: C_5  and  C_6
REMARK    3  A    between atoms: C_6  and  C_7
REMARK    4  A    between atoms: C_7  and  O_8
REMARK    5  A    between atoms: O_8  and  C_9
REMARK    6  A    between atoms: N_16  and  C1*_17
REMARK    7  A    between atoms: C4*_19  and  C5*_20
REMARK    8  A    between atoms: C5*_20  and  O5*_21
REMARK    9  A    between atoms: C3*_22  and  O3*_23
REMARK   10  A    between atoms: C2*_24  and  O2*_25
REMARK                            x       y       z     vdW  Elec       q    Type
REMARK                         _______ _______ _______ _____ _____    ______ ____
ROOT
ATOM      1  C   UNL     1       7.375   6.764  17.617  0.00  0.00    +0.000 A 
ATOM      2  N   UNL     1       7.740   6.490  16.344  0.00  0.00    +0.000 NA
ATOM      3  C   UNL     1       7.067   5.539  15.664  0.00  0.00    +0.000 A 
ATOM      4  N   UNL     1       7.439   5.277  14.353  0.00  0.00    +0.000 N 
ATOM      5  C   UNL     1       6.033   4.852  16.316  0.00  0.00    +0.000 A 
ATOM      6  N   UNL     1       5.204   3.824  15.915  0.00  0.00    +0.000 NA
ATOM      7  C   UNL     1       4.428   3.601  16.953  0.00  0.00    +0.000 A 
ATOM      8  N   UNL     1       4.713   4.438  18.001  0.00  0.00    +0.000 N 
ATOM      9  C   UNL     1       5.762   5.230  17.619  0.00  0.00    +0.000 A 
ATOM     10  N   UNL     1       6.398   6.172  18.335  0.00  0.00    +0.000 NA
ATOM     11  H   UNL     1       8.395   5.555  14.161  0.00  0.00    +0.000 HD
ATOM     12  H   UNL     1       7.140   4.366  14.023  0.00  0.00    +0.000 HD
ENDROOT
BRANCH   8  13
ATOM     13  C1* UNL     1       4.002   4.458  19.259  0.00  0.00    +0.000 C 
ATOM     14  O4* UNL     1       3.718   3.103  19.668  0.00  0.00    +0.000 OA
ATOM     15  C4* UNL     1       2.376   3.061  20.216  0.00  0.00    +0.000 C 
ATOM     16  C3* UNL     1       1.913   4.511  20.344  0.00  0.00    +0.000 C 
ATOM     17  C2* UNL     1       2.684   5.228  19.247  0.00  0.00    +0.000 C 
BRANCH  16  18
ATOM     18  O3* UNL     1       2.312   5.090  21.603  0.00  0.00    +0.000 OA
ATOM     19  H3* UNL     1       3.235   5.398  21.537  0.00  0.00    +0.000 HD
ENDBRANCH  16  18
BRANCH  17  20
ATOM     20  O2* UNL     1       2.865   6.612  19.551  0.00  0.00    +0.000 OA
ATOM     21  H2* UNL     1       3.776   6.837  19.264  0.00  0.00    +0.000 HD
ENDBRANCH  17  20
BRANCH  15  22
ATOM     22  C5* UNL     1       1.476   2.222  19.306  0.00  0.00    +0.000 C 
BRANCH  22  23
ATOM     23  O5* UNL     1       2.274   1.364  18.493  0.00  0.00    +0.000 OA
ATOM     24  H5* UNL     1       2.157   0.465  18.855  0.00  0.00    +0.000 HD
ENDBRANCH  22  23
ENDBRANCH  15  22
ENDBRANCH   8  13
BRANCH   1  25
ATOM     25  O   UNL     1       8.093   7.719  18.313  0.00  0.00    +0.000 OA
BRANCH  25  26
ATOM     26  C   UNL     1       7.770   9.051  17.894  0.00  0.00    +0.000 C 
BRANCH  26  27
ATOM     27  C   UNL     1       9.069   9.843  17.729  0.00  0.00    +0.000 C 
BRANCH  27  32
ATOM     28  C   UNL     1       9.674  14.110  21.661  0.00  0.00    +0.000 C 
ATOM     29  C   UNL     1       9.505  13.007  20.659  0.00  0.00    +0.000 A 
ATOM     30  C   UNL     1       9.684  11.668  21.024  0.00  0.00    +0.000 A 
ATOM     31  C   UNL     1       9.538  10.648  20.078  0.00  0.00    +0.000 A 
ATOM     32  C   UNL     1       9.216  10.947  18.748  0.00  0.00    +0.000 A 
ATOM     33  C   UNL     1       9.026  12.287  18.388  0.00  0.00    +0.000 A 
ATOM     34  C   UNL     1       9.172  13.306  19.334  0.00  0.00    +0.000 A 
ENDBRANCH  27  32
ENDBRANCH  26  27
ENDBRANCH  25  26
ENDBRANCH   1  25
TORSDOF 9
ENDMDL
MODEL 4
REMARK VINA RESULT:      -8.3      1.404      1.804
REMARK  Name = 
REMARK  10 active torsions:
REMARK  status: ('A' for Active; 'I' for Inactive)
REMARK    1  A    between atoms: C_1  and  C_2
REMARK    2  A    between atoms: C_5  and  C_6
REMARK    3  A    between atoms: C_6  and  C_7
REMARK    4  A    between atoms: C_7  and  O_8
REMARK    5  A    between atoms: O_8  and  C_9
REMARK    6  A    between atoms: N_16  and  C1*_17
REMARK    7  A    between atoms: C4*_19  and  C5*_20
REMARK    8  A    between atoms: C5*_20  and  O5*_21
REMARK    9  A    between atoms: C3*_22  and  O3*_23
REMARK   10  A    between atoms: C2*_24  and  O2*_25
REMARK                            x       y       z     vdW  Elec       q    Type
REMARK                         _______ _______ _______ _____ _____    ______ ____
ROOT
ATOM      1  C   UNL     1       7.067   6.361  16.597  0.00  0.00    +0.000 A 
ATOM      2  N   UNL     1       7.233   5.497  15.570  0.00  0.00    +0.000 NA
ATOM      3  C   UNL     1       6.328   4.512  15.395  0.00  0.00    +0.000 A 
ATOM      4  N   UNL     1       6.500   3.641  14.328  0.00  0.00    +0.000 N 
ATOM      5  C   UNL     1       5.266   4.406  16.304  0.00  0.00    +0.000 A 
ATOM      6  N   UNL     1       4.227   3.506  16.417  0.00  0.00    +0.000 NA
ATOM      7  C   UNL     1       3.543   3.919  17.462  0.00  0.00    +0.000 A 
ATOM      8  N   UNL     1       4.089   5.044  18.025  0.00  0.00    +0.000 N 
ATOM      9  C   UNL     1       5.214   5.354  17.311  0.00  0.00    +0.000 A 
ATOM     10  N   UNL     1       6.085   6.355  17.523  0.00  0.00    +0.000 NA
ATOM     11  H   UNL     1       7.462   3.601  14.014  0.00  0.00    +0.000 HD
ATOM     12  H   UNL     1       6.006   2.762  14.442  0.00  0.00    +0.000 HD
ENDROOT
BRANCH   8  13
ATOM     13  C1* UNL     1       3.537   5.751  19.157  0.00  0.00    +0.000 C 
ATOM     14  O4* UNL     1       3.292   4.816  20.230  0.00  0.00    +0.000 OA
ATOM     15  C4* UNL     1       2.026   5.155  20.853  0.00  0.00    +0.000 C 
ATOM     16  C3* UNL     1       1.597   6.498  20.264  0.00  0.00    +0.000 C 
ATOM     17  C2* UNL     1       2.236   6.501  18.884  0.00  0.00    +0.000 C 
BRANCH  16  18
ATOM     18  O3* UNL     1       2.153   7.606  21.001  0.00  0.00    +0.000 OA
ATOM     19  H3* UNL     1       1.597   8.395  20.863  0.00  0.00    +0.000 HD
ENDBRANCH  16  18
BRANCH  17  20
ATOM     20  O2* UNL     1       2.467   7.830  18.416  0.00  0.00    +0.000 OA
ATOM     21  H2* UNL     1       2.252   7.822  17.458  0.00  0.00    +0.000 HD
ENDBRANCH  17  20
BRANCH  15  22
ATOM     22  C5* UNL     1       1.013   4.036  20.597  0.00  0.00    +0.000 C 
BRANCH  22  23
ATOM     23  O5* UNL     1       1.696   2.834  20.251  0.00  0.00    +0.000 OA
ATOM     24  H5* UNL     1       2.647   3.056  20.247  0.00  0.00    +0.000 HD
ENDBRANCH  22  23
ENDBRANCH  15  22
ENDBRANCH   8  13
BRANCH   1  25
ATOM     25  O   UNL     1       8.018   7.347  16.784  0.00  0.00    +0.000 OA
BRANCH  25  26
ATOM     26  C   UNL     1       7.533   8.418  17.604  0.00  0.00    +0.000 C 
BRANCH  26  27
ATOM     27  C   UNL     1       8.613   8.786  18.623  0.00  0.00    +0.000 C 
BRANCH  27  32
ATOM     28  C   UNL     1       9.977  14.458  18.526  0.00  0.00    +0.000 C 
ATOM     29  C   UNL     1       9.632  12.998  18.535  0.00  0.00    +0.000 A 
ATOM     30  C   UNL     1       8.647  12.484  17.684  0.00  0.00    +0.000 A 
ATOM     31  C   UNL     1       8.323  11.124  17.710  0.00  0.00    +0.000 A 
ATOM     32  C   UNL     1       8.974  10.251  18.592  0.00  0.00    +0.000 A 
ATOM     33  C   UNL     1       9.968  10.765  19.433  0.00  0.00    +0.000 A 
ATOM     34  C   UNL     1      10.291  12.125  19.406  0.00  0.00    +0.000 A 
ENDBRANCH  27  32
ENDBRANCH  26  27
ENDBRANCH  25  26
ENDBRANCH   1  25
TORSDOF 9
ENDMDL
MODEL 5
REMARK VINA RESULT:      -8.3      4.396      7.878
REMARK  Name = 
REMARK  10 active torsions:
REMARK  status: ('A' for Active; 'I' for Inactive)
REMARK    1  A    between atoms: C_1  and  C_2
REMARK    2  A    between atoms: C_5  and  C_6
REMARK    3  A    between atoms: C_6  and  C_7
REMARK    4  A    between atoms: C_7  and  O_8
REMARK    5  A    between atoms: O_8  and  C_9
REMARK    6  A    between atoms: N_16  and  C1*_17
REMARK    7  A    between atoms: C4*_19  and  C5*_20
REMARK    8  A    between atoms: C5*_20  and  O5*_21
REMARK    9  A    between atoms: C3*_22  and  O3*_23
REMARK   10  A    between atoms: C2*_24  and  O2*_25
REMARK                            x       y       z     vdW  Elec       q    Type
REMARK                         _______ _______ _______ _____ _____    ______ ____
ROOT
ATOM      1  C   UNL     1       2.379   6.182  19.915  0.00  0.00    +0.000 A 
ATOM      2  N   UNL     1       1.456   5.328  20.414  0.00  0.00    +0.000 NA
ATOM      3  C   UNL     1       1.563   4.014  20.129  0.00  0.00    +0.000 A 
ATOM      4  N   UNL     1       0.620   3.146  20.661  0.00  0.00    +0.000 N 
ATOM      5  C   UNL     1       2.612   3.589  19.302  0.00  0.00    +0.000 A 
ATOM      6  N   UNL     1       2.960   2.350  18.807  0.00  0.00    +0.000 NA
ATOM      7  C   UNL     1       4.042   2.571  18.093  0.00  0.00    +0.000 A 
ATOM      8  N   UNL     1       4.412   3.891  18.108  0.00  0.00    +0.000 N 
ATOM      9  C   UNL     1       3.486   4.565  18.858  0.00  0.00    +0.000 A 
ATOM     10  N   UNL     1       3.426   5.883  19.118  0.00  0.00    +0.000 NA
ATOM     11  H   UNL     1      -0.247   3.615  20.897  0.00  0.00    +0.000 HD
ATOM     12  H   UNL     1       0.556   2.265  20.160  0.00  0.00    +0.000 HD
ENDROOT
BRANCH   8  13
ATOM     13  C1* UNL     1       5.581   4.429  17.452  0.00  0.00    +0.000 C 
ATOM     14  O4* UNL     1       6.741   4.197  18.279  0.00  0.00    +0.000 OA
ATOM     15  C4* UNL     1       7.578   5.381  18.238  0.00  0.00    +0.000 C 
ATOM     16  C3* UNL     1       6.996   6.287  17.154  0.00  0.00    +0.000 C 
ATOM     17  C2* UNL     1       5.520   5.922  17.140  0.00  0.00    +0.000 C 
BRANCH  16  18
ATOM     18  O3* UNL     1       7.532   5.974  15.852  0.00  0.00    +0.000 OA
ATOM     19  H3* UNL     1       6.864   6.179  15.172  0.00  0.00    +0.000 HD
ENDBRANCH  16  18
BRANCH  17  20
ATOM     20  O2* UNL     1       4.926   6.184  15.868  0.00  0.00    +0.000 OA
ATOM     21  H2* UNL     1       5.324   5.540  15.244  0.00  0.00    +0.000 HD
ENDBRANCH  17  20
BRANCH  15  22
ATOM     22  C5* UNL     1       7.603   6.040  19.620  0.00  0.00    +0.000 C 
BRANCH  22  23
ATOM     23  O5* UNL     1       8.220   5.165  20.562  0.00  0.00    +0.000 OA
ATOM     24  H5* UNL     1       7.918   5.462  21.442  0.00  0.00    +0.000 HD
ENDBRANCH  22  23
ENDBRANCH  15  22
ENDBRANCH   8  13
BRANCH   1  25
ATOM     25  O   UNL     1       2.240   7.530  20.188  0.00  0.00    +0.000 OA
BRANCH  25  26
ATOM     26  C   UNL     1       1.094   7.802  21.005  0.00  0.00    +0.000 C 
BRANCH  26  27
ATOM     27  C   UNL     1       1.430   8.952  21.958  0.00  0.00    +0.000 C 
BRANCH  27  32
ATOM     28  C   UNL     1      -2.672  13.098  22.095  0.00  0.00    +0.000 C 
ATOM     29  C   UNL     1      -1.629  12.020  22.060  0.00  0.00    +0.000 A 
ATOM     30  C   UNL     1      -1.467  11.138  23.135  0.00  0.00    +0.000 A 
ATOM     31  C   UNL     1      -0.482  10.146  23.098  0.00  0.00    +0.000 A 
ATOM     32  C   UNL     1       0.363  10.019  21.988  0.00  0.00    +0.000 A 
ATOM     33  C   UNL     1       0.190  10.893  20.908  0.00  0.00    +0.000 A 
ATOM     34  C   UNL     1      -0.794  11.885  20.946  0.00  0.00    +0.000 A 
ENDBRANCH  27  32
ENDBRANCH  26  27
ENDBRANCH  25  26
ENDBRANCH   1  25
TORSDOF 9
ENDMDL
MODEL 6
REMARK VINA RESULT:      -8.3      0.759      1.188
REMARK  Name = 
REMARK  10 active torsions:
REMARK  status: ('A' for Active; 'I' for Inactive)
REMARK    1  A    between atoms: C_1  and  C_2
REMARK    2  A    between atoms: C_5  and  C_6
REMARK    3  A    between atoms: C_6  and  C_7
REMARK    4  A    between atoms: C_7  and  O_8
REMARK    5  A    between atoms: O_8  and  C_9
REMARK    6  A    between atoms: N_16  and  C1*_17
REMARK    7  A    between atoms: C4*_19  and  C5*_20
REMARK    8  A    between atoms: C5*_20  and  O5*_21
REMARK    9  A    between atoms: C3*_22  and  O3*_23
REMARK   10  A    between atoms: C2*_24  and  O2*_25
REMARK                            x       y       z     vdW  Elec       q    Type
REMARK                         _______ _______ _______ _____ _____    ______ ____
ROOT
ATOM      1  C   UNL     1       7.242   6.617  17.750  0.00  0.00    +0.000 A 
ATOM      2  N   UNL     1       7.633   6.408  16.473  0.00  0.00    +0.000 NA
ATOM      3  C   UNL     1       7.013   5.453  15.749  0.00  0.00    +0.000 A 
ATOM      4  N   UNL     1       7.412   5.258  14.434  0.00  0.00    +0.000 N 
ATOM      5  C   UNL     1       6.006   4.694  16.362  0.00  0.00    +0.000 A 
ATOM      6  N   UNL     1       5.231   3.645  15.913  0.00  0.00    +0.000 NA
ATOM      7  C   UNL     1       4.455   3.347  16.932  0.00  0.00    +0.000 A 
ATOM      8  N   UNL     1       4.688   4.156  18.014  0.00  0.00    +0.000 N 
ATOM      9  C   UNL     1       5.703   5.010  17.674  0.00  0.00    +0.000 A 
ATOM     10  N   UNL     1       6.286   5.954  18.433  0.00  0.00    +0.000 NA
ATOM     11  H   UNL     1       8.356   5.587  14.265  0.00  0.00    +0.000 HD
ATOM     12  H   UNL     1       7.160   4.347  14.068  0.00  0.00    +0.000 HD
ENDROOT
BRANCH   8  13
ATOM     13  C1* UNL     1       3.963   4.096  19.262  0.00  0.00    +0.000 C 
ATOM     14  O4* UNL     1       3.374   2.786  19.409  0.00  0.00    +0.000 OA
ATOM     15  C4* UNL     1       2.041   2.942  19.958  0.00  0.00    +0.000 C 
ATOM     16  C3* UNL     1       1.907   4.408  20.367  0.00  0.00    +0.000 C 
ATOM     17  C2* UNL     1       2.851   5.129  19.417  0.00  0.00    +0.000 C 
BRANCH  16  18
ATOM     18  O3* UNL     1       2.388   4.634  21.708  0.00  0.00    +0.000 OA
ATOM     19  H3* UNL     1       2.692   5.556  21.789  0.00  0.00    +0.000 HD
ENDBRANCH  16  18
BRANCH  17  20
ATOM     20  O2* UNL     1       3.325   6.354  19.977  0.00  0.00    +0.000 OA
ATOM     21  H2* UNL     1       3.135   7.050  19.312  0.00  0.00    +0.000 HD
ENDBRANCH  17  20
BRANCH  15  22
ATOM     22  C5* UNL     1       1.004   2.514  18.916  0.00  0.00    +0.000 C 
BRANCH  22  23
ATOM     23  O5* UNL     1       1.020   3.419  17.815  0.00  0.00    +0.000 OA
ATOM     24  H5* UNL     1       0.124   3.805  17.770  0.00  0.00    +0.000 HD
ENDBRANCH  22  23
ENDBRANCH  15  22
ENDBRANCH   8  13
BRANCH   1  25
ATOM     25  O   UNL     1       7.906   7.578  18.490  0.00  0.00    +0.000 OA
BRANCH  25  26
ATOM     26  C   UNL     1       8.469   8.604  17.664  0.00  0.00    +0.000 C 
BRANCH  26  27
ATOM     27  C   UNL     1       7.950   9.962  18.144  0.00  0.00    +0.000 C 
BRANCH  27  32
ATOM     28  C   UNL     1      12.215  13.722  19.449  0.00  0.00    +0.000 C 
ATOM     29  C   UNL     1      11.126  12.752  19.099  0.00  0.00    +0.000 A 
ATOM     30  C   UNL     1      10.260  12.997  18.026  0.00  0.00    +0.000 A 
ATOM     31  C   UNL     1       9.239  12.093  17.717  0.00  0.00    +0.000 A 
ATOM     32  C   UNL     1       9.060  10.929  18.476  0.00  0.00    +0.000 A 
ATOM     33  C   UNL     1       9.936  10.681  19.541  0.00  0.00    +0.000 A 
ATOM     34  C   UNL     1      10.956  11.584  19.849  0.00  0.00    +0.000 A 
ENDBRANCH  27  32
ENDBRANCH  26  27
ENDBRANCH  25  26
ENDBRANCH   1  25
TORSDOF 9
ENDMDL
MODEL 7
REMARK VINA RESULT:      -8.3      4.350      7.963
REMARK  Name = 
REMARK  10 active torsions:
REMARK  status: ('A' for Active; 'I' for Inactive)
REMARK    1  A    between atoms: C_1  and  C_2
REMARK    2  A    between atoms: C_5  and  C_6
REMARK    3  A    between atoms: C_6  and  C_7
REMARK    4  A    between atoms: C_7  and  O_8
REMARK    5  A    between atoms: O_8  and  C_9
REMARK    6  A    between atoms: N_16  and  C1*_17
REMARK    7  A    between atoms: C4*_19  and  C5*_20
REMARK    8  A    between atoms: C5*_20  and  O5*_21
REMARK    9  A    between atoms: C3*_22  and  O3*_23
REMARK   10  A    between atoms: C2*_24  and  O2*_25
REMARK                            x       y       z     vdW  Elec       q    Type
REMARK                         _______ _______ _______ _____ _____    ______ ____
ROOT
ATOM      1  C   UNL     1       2.489   6.097  20.002  0.00  0.00    +0.000 A 
ATOM      2  N   UNL     1       1.484   5.281  20.392  0.00  0.00    +0.000 NA
ATOM      3  C   UNL     1       1.464   4.010  19.940  0.00  0.00    +0.000 A 
ATOM      4  N   UNL     1       0.437   3.177  20.360  0.00  0.00    +0.000 N 
ATOM      5  C   UNL     1       2.473   3.594  19.059  0.00  0.00    +0.000 A 
ATOM      6  N   UNL     1       2.702   2.401  18.407  0.00  0.00    +0.000 NA
ATOM      7  C   UNL     1       3.806   2.605  17.721  0.00  0.00    +0.000 A 
ATOM      8  N   UNL     1       4.302   3.870  17.905  0.00  0.00    +0.000 N 
ATOM      9  C   UNL     1       3.441   4.530  18.739  0.00  0.00    +0.000 A 
ATOM     10  N   UNL     1       3.507   5.802  19.167  0.00  0.00    +0.000 NA
ATOM     11  H   UNL     1      -0.381   3.694  20.659  0.00  0.00    +0.000 HD
ATOM     12  H   UNL     1       0.292   2.378  19.751  0.00  0.00    +0.000 HD
ENDROOT
BRANCH   8  13
ATOM     13  C1* UNL     1       5.522   4.372  17.317  0.00  0.00    +0.000 C 
ATOM     14  O4* UNL     1       6.623   4.125  18.218  0.00  0.00    +0.000 OA
ATOM     15  C4* UNL     1       7.489   5.289  18.215  0.00  0.00    +0.000 C 
ATOM     16  C3* UNL     1       6.998   6.192  17.085  0.00  0.00    +0.000 C 
ATOM     17  C2* UNL     1       5.518   5.861  16.983  0.00  0.00    +0.000 C 
BRANCH  16  18
ATOM     18  O3* UNL     1       7.607   5.848  15.824  0.00  0.00    +0.000 OA
ATOM     19  H3* UNL     1       8.240   5.119  15.961  0.00  0.00    +0.000 HD
ENDBRANCH  16  18
BRANCH  17  20
ATOM     20  O2* UNL     1       5.012   6.119  15.672  0.00  0.00    +0.000 OA
ATOM     21  H2* UNL     1       4.337   6.824  15.775  0.00  0.00    +0.000 HD
ENDBRANCH  17  20
BRANCH  15  22
ATOM     22  C5* UNL     1       7.443   5.966  19.587  0.00  0.00    +0.000 C 
BRANCH  22  23
ATOM     23  O5* UNL     1       8.290   5.270  20.499  0.00  0.00    +0.000 OA
ATOM     24  H5* UNL     1       8.928   4.776  19.950  0.00  0.00    +0.000 HD
ENDBRANCH  22  23
ENDBRANCH  15  22
ENDBRANCH   8  13
BRANCH   1  25
ATOM     25  O   UNL     1       2.480   7.406  20.447  0.00  0.00    +0.000 OA
BRANCH  25  26
ATOM     26  C   UNL     1       1.157   7.866  20.750  0.00  0.00    +0.000 C 
BRANCH  26  27
ATOM     27  C   UNL     1       1.003   9.298  20.234  0.00  0.00    +0.000 C 
BRANCH  27  32
ATOM     28  C   UNL     1      -2.698  12.467  23.443  0.00  0.00    +0.000 C 
ATOM     29  C   UNL     1      -1.737  11.665  22.617  0.00  0.00    +0.000 A 
ATOM     30  C   UNL     1      -1.491  11.991  21.278  0.00  0.00    +0.000 A 
ATOM     31  C   UNL     1      -0.603  11.229  20.512  0.00  0.00    +0.000 A 
ATOM     32  C   UNL     1       0.053  10.123  21.068  0.00  0.00    +0.000 A 
ATOM     33  C   UNL     1      -0.185   9.807  22.411  0.00  0.00    +0.000 A 
ATOM     34  C   UNL     1      -1.072  10.569  23.176  0.00  0.00    +0.000 A 
ENDBRANCH  27  32
ENDBRANCH  26  27
ENDBRANCH  25  26
ENDBRANCH   1  25
TORSDOF 9
ENDMDL
MODEL 8
REMARK VINA RESULT:      -8.2      4.891      8.026
REMARK  Name = 
REMARK  10 active torsions:
REMARK  status: ('A' for Active; 'I' for Inactive)
REMARK    1  A    between atoms: C_1  and  C_2
REMARK    2  A    between atoms: C_5  and  C_6
REMARK    3  A    between atoms: C_6  and  C_7
REMARK    4  A    between atoms: C_7  and  O_8
REMARK    5  A    between atoms: O_8  and  C_9
REMARK    6  A    between atoms: N_16  and  C1*_17
REMARK    7  A    between atoms: C4*_19  and  C5*_20
REMARK    8  A    between atoms: C5*_20  and  O5*_21
REMARK    9  A    between atoms: C3*_22  and  O3*_23
REMARK   10  A    between atoms: C2*_24  and  O2*_25
REMARK                            x       y       z     vdW  Elec       q    Type
REMARK                         _______ _______ _______ _____ _____    ______ ____
ROOT
ATOM      1  C   UNL     1       2.084   6.460  20.098  0.00  0.00    +0.000 A 
ATOM      2  N   UNL     1       1.374   5.482  20.704  0.00  0.00    +0.000 NA
ATOM      3  C   UNL     1       1.690   4.195  20.451  0.00  0.00    +0.000 A 
ATOM      4  N   UNL     1       0.964   3.200  21.092  0.00  0.00    +0.000 N 
ATOM      5  C   UNL     1       2.725   3.923  19.546  0.00  0.00    +0.000 A 
ATOM      6  N   UNL     1       3.247   2.742  19.060  0.00  0.00    +0.000 NA
ATOM      7  C   UNL     1       4.209   3.117  18.245  0.00  0.00    +0.000 A 
ATOM      8  N   UNL     1       4.337   4.480  18.187  0.00  0.00    +0.000 N 
ATOM      9  C   UNL     1       3.371   5.016  18.995  0.00  0.00    +0.000 A 
ATOM     10  N   UNL     1       3.097   6.313  19.219  0.00  0.00    +0.000 NA
ATOM     11  H   UNL     1       0.051   3.520  21.390  0.00  0.00    +0.000 HD
ATOM     12  H   UNL     1       1.018   2.300  20.626  0.00  0.00    +0.000 HD
ENDROOT
BRANCH   8  13
ATOM     13  C1* UNL     1       5.331   5.185  17.411  0.00  0.00    +0.000 C 
ATOM     14  O4* UNL     1       4.763   5.567  16.140  0.00  0.00    +0.000 OA
ATOM     15  C4* UNL     1       5.761   5.355  15.110  0.00  0.00    +0.000 C 
ATOM     16  C3* UNL     1       7.070   5.037  15.830  0.00  0.00    +0.000 C 
ATOM     17  C2* UNL     1       6.612   4.403  17.134  0.00  0.00    +0.000 C 
BRANCH  16  18
ATOM     18  O3* UNL     1       7.800   6.235  16.164  0.00  0.00    +0.000 OA
ATOM     19  H3* UNL     1       8.425   6.039  16.885  0.00  0.00    +0.000 HD
ENDBRANCH  16  18
BRANCH  17  20
ATOM     20  O2* UNL     1       7.582   4.572  18.168  0.00  0.00    +0.000 OA
ATOM     21  H2* UNL     1       7.612   3.720  18.655  0.00  0.00    +0.000 HD
ENDBRANCH  17  20
BRANCH  15  22
ATOM     22  C5* UNL     1       5.302   4.232  14.175  0.00  0.00    +0.000 C 
BRANCH  22  23
ATOM     23  O5* UNL     1       6.395   3.361  13.891  0.00  0.00    +0.000 OA
ATOM     24  H5* UNL     1       6.803   3.152  14.754  0.00  0.00    +0.000 HD
ENDBRANCH  22  23
ENDBRANCH  15  22
ENDBRANCH   8  13
BRANCH   1  25
ATOM     25  O   UNL     1       1.729   7.774  20.341  0.00  0.00    +0.000 OA
BRANCH  25  26
ATOM     26  C   UNL     1       0.786   7.891  21.413  0.00  0.00    +0.000 C 
BRANCH  26  27
ATOM     27  C   UNL     1       1.115   9.147  22.224  0.00  0.00    +0.000 C 
BRANCH  27  32
ATOM     28  C   UNL     1      -2.984  13.267  21.716  0.00  0.00    +0.000 C 
ATOM     29  C   UNL     1      -1.918  12.220  21.845  0.00  0.00    +0.000 A 
ATOM     30  C   UNL     1      -1.020  11.972  20.801  0.00  0.00    +0.000 A 
ATOM     31  C   UNL     1      -0.039  10.983  20.927  0.00  0.00    +0.000 A 
ATOM     32  C   UNL     1       0.060  10.219  22.097  0.00  0.00    +0.000 A 
ATOM     33  C   UNL     1      -0.831  10.478  23.146  0.00  0.00    +0.000 A 
ATOM     34  C   UNL     1      -1.811  11.466  23.019  0.00  0.00    +0.000 A 
ENDBRANCH  27  32
ENDBRANCH  26  27
ENDBRANCH  25  26
ENDBRANCH   1  25
TORSDOF 9
ENDMDL
MODEL 9
REMARK VINA RESULT:      -8.2      1.541      1.875
REMARK  Name = 
REMARK  10 active torsions:
REMARK  status: ('A' for Active; 'I' for Inactive)
REMARK    1  A    between atoms: C_1  and  C_2
REMARK    2  A    between atoms: C_5  and  C_6
REMARK    3  A    between atoms: C_6  and  C_7
REMARK    4  A    between atoms: C_7  and  O_8
REMARK    5  A    between atoms: O_8  and  C_9
REMARK    6  A    between atoms: N_16  and  C1*_17
REMARK    7  A    between atoms: C4*_19  and  C5*_20
REMARK    8  A    between atoms: C5*_20  and  O5*_21
REMARK    9  A    between atoms: C3*_22  and  O3*_23
REMARK   10  A    between atoms: C2*_24  and  O2*_25
REMARK                            x       y       z     vdW  Elec       q    Type
REMARK                         _______ _______ _______ _____ _____    ______ ____
ROOT
ATOM      1  C   UNL     1       7.110   6.350  16.519  0.00  0.00    +0.000 A 
ATOM      2  N   UNL     1       7.312   5.539  15.457  0.00  0.00    +0.000 NA
ATOM      3  C   UNL     1       6.466   4.508  15.253  0.00  0.00    +0.000 A 
ATOM      4  N   UNL     1       6.674   3.692  14.150  0.00  0.00    +0.000 N 
ATOM      5  C   UNL     1       5.426   4.302  16.170  0.00  0.00    +0.000 A 
ATOM      6  N   UNL     1       4.444   3.337  16.258  0.00  0.00    +0.000 NA
ATOM      7  C   UNL     1       3.752   3.666  17.328  0.00  0.00    +0.000 A 
ATOM      8  N   UNL     1       4.237   4.799  17.929  0.00  0.00    +0.000 N 
ATOM      9  C   UNL     1       5.331   5.205  17.214  0.00  0.00    +0.000 A 
ATOM     10  N   UNL     1       6.144   6.248  17.456  0.00  0.00    +0.000 NA
ATOM     11  H   UNL     1       7.633   3.723  13.823  0.00  0.00    +0.000 HD
ATOM     12  H   UNL     1       6.236   2.781  14.235  0.00  0.00    +0.000 HD
ENDROOT
BRANCH   8  13
ATOM     13  C1* UNL     1       3.660   5.426  19.096  0.00  0.00    +0.000 C 
ATOM     14  O4* UNL     1       3.605   4.467  20.174  0.00  0.00    +0.000 OA
ATOM     15  C4* UNL     1       2.343   4.632  20.870  0.00  0.00    +0.000 C 
ATOM     16  C3* UNL     1       1.703   5.904  20.316  0.00  0.00    +0.000 C 
ATOM     17  C2* UNL     1       2.256   5.992  18.902  0.00  0.00    +0.000 C 
BRANCH  16  18
ATOM     18  O3* UNL     1       2.145   7.078  21.027  0.00  0.00    +0.000 OA
ATOM     19  H3* UNL     1       2.416   7.759  20.385  0.00  0.00    +0.000 HD
ENDBRANCH  16  18
BRANCH  17  20
ATOM     20  O2* UNL     1       2.278   7.340  18.430  0.00  0.00    +0.000 OA
ATOM     21  H2* UNL     1       1.375   7.694  18.578  0.00  0.00    +0.000 HD
ENDBRANCH  17  20
BRANCH  15  22
ATOM     22  C5* UNL     1       1.478   3.386  20.664  0.00  0.00    +0.000 C 
BRANCH  22  23
ATOM     23  O5* UNL     1       1.080   2.858  21.928  0.00  0.00    +0.000 OA
ATOM     24  H5* UNL     1       0.566   3.564  22.364  0.00  0.00    +0.000 HD
ENDBRANCH  22  23
ENDBRANCH  15  22
ENDBRANCH   8  13
BRANCH   1  25
ATOM     25  O   UNL     1       8.003   7.383  16.735  0.00  0.00    +0.000 OA
BRANCH  25  26
ATOM     26  C   UNL     1       7.847   7.970  18.034  0.00  0.00    +0.000 C 
BRANCH  26  27
ATOM     27  C   UNL     1       7.698   9.485  17.875  0.00  0.00    +0.000 C 
BRANCH  27  32
ATOM     28  C   UNL     1      12.332  12.407  19.880  0.00  0.00    +0.000 C 
ATOM     29  C   UNL     1      11.131  11.666  19.373  0.00  0.00    +0.000 A 
ATOM     30  C   UNL     1      10.277  10.989  20.252  0.00  0.00    +0.000 A 
ATOM     31  C   UNL     1       9.167  10.290  19.767  0.00  0.00    +0.000 A 
ATOM     32  C   UNL     1       8.892  10.249  18.393  0.00  0.00    +0.000 A 
ATOM     33  C   UNL     1       9.741  10.938  17.518  0.00  0.00    +0.000 A 
ATOM     34  C   UNL     1      10.849  11.636  18.003  0.00  0.00    +0.000 A 
ENDBRANCH  27  32
ENDBRANCH  26  27
ENDBRANCH  25  26
ENDBRANCH   1  25
TORSDOF 9
ENDMDL
