MODEL 1
REMARK VINA RESULT:      -8.8      0.000      0.000
REMARK  Name = 
REMARK  4 active torsions:
REMARK  status: ('A' for Active; 'I' for Inactive)
REMARK    1  A    between atoms: C_2  and  C_3
REMARK    2  A    between atoms: C_3  and  C_4
REMARK    3  A    between atoms: N_14  and  C_15
REMARK    4  A    between atoms: C_21  and  C_22
REMARK                            x       y       z     vdW  Elec       q    Type
REMARK                         _______ _______ _______ _____ _____    ______ ____
ROOT
ATOM      1  C   UNL     1       0.905   8.905  19.155  0.00  0.00    +0.000 A 
ATOM      2  C   UNL     1       0.492   9.032  17.826  0.00  0.00    +0.000 A 
ATOM      3  C   UNL     1      -0.445   9.994  17.462  0.00  0.00    +0.000 A 
ATOM      4  C   UNL     1      -0.985  10.837  18.429  0.00  0.00    +0.000 A 
ATOM      5  C   UNL     1      -0.633  10.729  19.765  0.00  0.00    +0.000 A 
ATOM      6  N   UNL     1      -1.210  11.585  20.632  0.00  0.00    +0.000 NA
ATOM      7  C   UNL     1      -0.898  11.512  21.949  0.00  0.00    +0.000 A 
ATOM      8  C   UNL     1       0.007  10.574  22.420  0.00  0.00    +0.000 A 
ATOM      9  C   UNL     1       0.607   9.694  21.524  0.00  0.00    +0.000 A 
ATOM     10  C   UNL     1       0.311   9.745  20.148  0.00  0.00    +0.000 A 
ENDROOT
BRANCH   7  11
ATOM     11  C   UNL     1      -1.537  12.505  22.837  0.00  0.00    +0.000 A 
ATOM     12  C   UNL     1      -0.886  13.703  23.192  0.00  0.00    +0.000 A 
ATOM     13  C   UNL     1      -1.524  14.679  23.965  0.00  0.00    +0.000 A 
ATOM     14  C   UNL     1      -2.823  14.465  24.411  0.00  0.00    +0.000 A 
ATOM     15 CL   UNL     1      -3.617  15.678  25.337  0.00  0.00    +0.000 Cl
ATOM     16  C   UNL     1      -3.480  13.278  24.108  0.00  0.00    +0.000 A 
ATOM     17  C   UNL     1      -2.840  12.306  23.331  0.00  0.00    +0.000 A 
ENDBRANCH   7  11
BRANCH   1  20
ATOM     18  O   UNL     1       3.016   7.613  17.519  0.00  0.00    +0.000 OA
ATOM     19  C   UNL     1       2.837   7.364  18.707  0.00  0.00    +0.000 C 
ATOM     20  N   UNL     1       1.897   7.954  19.531  0.00  0.00    +0.000 N 
ATOM     21  H   UNL     1       2.004   7.771  20.516  0.00  0.00    +0.000 HD
BRANCH  19  22
ATOM     22  C   UNL     1       3.698   6.320  19.410  0.00  0.00    +0.000 C 
BRANCH  22  23
ATOM     23  C   UNL     1       3.040   4.927  19.527  0.00  0.00    +0.000 C 
ATOM     24  C   UNL     1       4.103   3.800  19.548  0.00  0.00    +0.000 C 
ATOM     25  C   UNL     1       3.440   2.422  19.704  0.00  0.00    +0.000 C 
ATOM     26  C   UNL     1       2.656   2.381  21.024  0.00  0.00    +0.000 C 
ATOM     27  C   UNL     1       1.576   3.475  21.027  0.00  0.00    +0.000 C 
ATOM     28  C   UNL     1       0.612   3.238  19.854  0.00  0.00    +0.000 C 
ATOM     29  C   UNL     1       1.384   3.281  18.525  0.00  0.00    +0.000 C 
ATOM     30  C   UNL     1       2.472   2.194  18.530  0.00  0.00    +0.000 C 
ATOM     31  C   UNL     1       2.050   4.659  18.365  0.00  0.00    +0.000 C 
ATOM     32  C   UNL     1       2.245   4.852  20.861  0.00  0.00    +0.000 C 
ENDBRANCH  22  23
ENDBRANCH  19  22
ENDBRANCH   1  20
TORSDOF 4
ENDMDL
MODEL 2
REMARK VINA RESULT:      -8.7      5.043     10.502
REMARK  Name = 
REMARK  4 active torsions:
REMARK  status: ('A' for Active; 'I' for Inactive)
REMARK    1  A    between atoms: C_2  and  C_3
REMARK    2  A    between atoms: C_3  and  C_4
REMARK    3  A    between atoms: N_14  and  C_15
REMARK    4  A    between atoms: C_21  and  C_22
REMARK                            x       y       z     vdW  Elec       q    Type
REMARK                         _______ _______ _______ _____ _____    ______ ____
ROOT
ATOM      1  C   UNL     1       0.218  10.608  20.508  0.00  0.00    +0.000 A 
ATOM      2  C   UNL     1      -0.199  10.247  21.792  0.00  0.00    +0.000 A 
ATOM      3  C   UNL     1       0.168   9.022  22.339  0.00  0.00    +0.000 A 
ATOM      4  C   UNL     1       0.953   8.140  21.603  0.00  0.00    +0.000 A 
ATOM      5  C   UNL     1       1.365   8.437  20.314  0.00  0.00    +0.000 A 
ATOM      6  N   UNL     1       2.119   7.522  19.674  0.00  0.00    +0.000 NA
ATOM      7  C   UNL     1       2.540   7.770  18.409  0.00  0.00    +0.000 A 
ATOM      8  C   UNL     1       2.210   8.950  17.763  0.00  0.00    +0.000 A 
ATOM      9  C   UNL     1       1.436   9.899  18.425  0.00  0.00    +0.000 A 
ATOM     10  C   UNL     1       0.986   9.677  19.742  0.00  0.00    +0.000 A 
ENDROOT
BRANCH   7  11
ATOM     11  C   UNL     1       3.395   6.741  17.782  0.00  0.00    +0.000 A 
ATOM     12  C   UNL     1       3.123   5.366  17.929  0.00  0.00    +0.000 A 
ATOM     13  C   UNL     1       3.883   4.396  17.268  0.00  0.00    +0.000 A 
ATOM     14  C   UNL     1       4.945   4.786  16.459  0.00  0.00    +0.000 A 
ATOM     15 CL   UNL     1       5.862   3.594  15.624  0.00  0.00    +0.000 Cl
ATOM     16  C   UNL     1       5.262   6.132  16.321  0.00  0.00    +0.000 A 
ATOM     17  C   UNL     1       4.495   7.100  16.981  0.00  0.00    +0.000 A 
ENDBRANCH   7  11
BRANCH   1  20
ATOM     18  O   UNL     1       0.916  13.333  21.452  0.00  0.00    +0.000 OA
ATOM     19  C   UNL     1       0.219  13.120  20.465  0.00  0.00    +0.000 C 
ATOM     20  N   UNL     1      -0.114  11.879  19.955  0.00  0.00    +0.000 N 
ATOM     21  H   UNL     1      -0.537  11.882  19.041  0.00  0.00    +0.000 HD
BRANCH  19  22
ATOM     22  C   UNL     1      -0.368  14.284  19.675  0.00  0.00    +0.000 C 
BRANCH  22  23
ATOM     23  C   UNL     1       0.621  15.442  19.419  0.00  0.00    +0.000 C 
ATOM     24  C   UNL     1       1.934  14.931  18.773  0.00  0.00    +0.000 C 
ATOM     25  C   UNL     1       2.896  16.096  18.487  0.00  0.00    +0.000 C 
ATOM     26  C   UNL     1       2.226  17.083  17.520  0.00  0.00    +0.000 C 
ATOM     27  C   UNL     1       0.929  17.627  18.141  0.00  0.00    +0.000 C 
ATOM     28  C   UNL     1       1.262  18.348  19.457  0.00  0.00    +0.000 C 
ATOM     29  C   UNL     1       1.929  17.369  20.436  0.00  0.00    +0.000 C 
ATOM     30  C   UNL     1       3.220  16.816  19.807  0.00  0.00    +0.000 C 
ATOM     31  C   UNL     1       0.970  16.201  20.725  0.00  0.00    +0.000 C 
ATOM     32  C   UNL     1      -0.026  16.456  18.434  0.00  0.00    +0.000 C 
ENDBRANCH  22  23
ENDBRANCH  19  22
ENDBRANCH   1  20
TORSDOF 4
ENDMDL
MODEL 3
REMARK VINA RESULT:      -8.6      5.050     10.486
REMARK  Name = 
REMARK  4 active torsions:
REMARK  status: ('A' for Active; 'I' for Inactive)
REMARK    1  A    between atoms: C_2  and  C_3
REMARK    2  A    between atoms: C_3  and  C_4
REMARK    3  A    between atoms: N_14  and  C_15
REMARK    4  A    between atoms: C_21  and  C_22
REMARK                            x       y       z     vdW  Elec       q    Type
REMARK                         _______ _______ _______ _____ _____    ______ ____
ROOT
ATOM      1  C   UNL     1       0.240  10.582  20.500  0.00  0.00    +0.000 A 
ATOM      2  C   UNL     1      -0.171  10.223  21.786  0.00  0.00    +0.000 A 
ATOM      3  C   UNL     1       0.201   9.000  22.336  0.00  0.00    +0.000 A 
ATOM      4  C   UNL     1       0.985   8.118  21.599  0.00  0.00    +0.000 A 
ATOM      5  C   UNL     1       1.391   8.413  20.307  0.00  0.00    +0.000 A 
ATOM      6  N   UNL     1       2.144   7.497  19.666  0.00  0.00    +0.000 NA
ATOM      7  C   UNL     1       2.559   7.742  18.400  0.00  0.00    +0.000 A 
ATOM      8  C   UNL     1       2.225   8.920  17.752  0.00  0.00    +0.000 A 
ATOM      9  C   UNL     1       1.451   9.869  18.414  0.00  0.00    +0.000 A 
ATOM     10  C   UNL     1       1.007   9.650  19.733  0.00  0.00    +0.000 A 
ENDROOT
BRANCH   7  11
ATOM     11  C   UNL     1       3.414   6.713  17.772  0.00  0.00    +0.000 A 
ATOM     12  C   UNL     1       3.105   5.342  17.864  0.00  0.00    +0.000 A 
ATOM     13  C   UNL     1       3.868   4.375  17.201  0.00  0.00    +0.000 A 
ATOM     14  C   UNL     1       4.968   4.764  16.444  0.00  0.00    +0.000 A 
ATOM     15 CL   UNL     1       5.889   3.578  15.606  0.00  0.00    +0.000 Cl
ATOM     16  C   UNL     1       5.321   6.107  16.363  0.00  0.00    +0.000 A 
ATOM     17  C   UNL     1       4.552   7.071  17.025  0.00  0.00    +0.000 A 
ENDBRANCH   7  11
BRANCH   1  20
ATOM     18  O   UNL     1       1.035  13.307  21.364  0.00  0.00    +0.000 OA
ATOM     19  C   UNL     1       0.284  13.092  20.418  0.00  0.00    +0.000 C 
ATOM     20  N   UNL     1      -0.096  11.850  19.945  0.00  0.00    +0.000 N 
ATOM     21  H   UNL     1      -0.566  11.848  19.054  0.00  0.00    +0.000 HD
BRANCH  19  22
ATOM     22  C   UNL     1      -0.321  14.256  19.641  0.00  0.00    +0.000 C 
BRANCH  22  23
ATOM     23  C   UNL     1       0.668  15.403  19.340  0.00  0.00    +0.000 C 
ATOM     24  C   UNL     1       0.028  16.474  18.420  0.00  0.00    +0.000 C 
ATOM     25  C   UNL     1       1.007  17.630  18.159  0.00  0.00    +0.000 C 
ATOM     26  C   UNL     1       1.381  18.291  19.494  0.00  0.00    +0.000 C 
ATOM     27  C   UNL     1       2.039  17.259  20.423  0.00  0.00    +0.000 C 
ATOM     28  C   UNL     1       3.308  16.711  19.753  0.00  0.00    +0.000 C 
ATOM     29  C   UNL     1       2.947  16.042  18.417  0.00  0.00    +0.000 C 
ATOM     30  C   UNL     1       2.277  17.073  17.493  0.00  0.00    +0.000 C 
ATOM     31  C   UNL     1       1.967  14.884  18.673  0.00  0.00    +0.000 C 
ATOM     32  C   UNL     1       1.059  16.099  20.674  0.00  0.00    +0.000 C 
ENDBRANCH  22  23
ENDBRANCH  19  22
ENDBRANCH   1  20
TORSDOF 4
ENDMDL
MODEL 4
REMARK VINA RESULT:      -8.6      5.023     10.445
REMARK  Name = 
REMARK  4 active torsions:
REMARK  status: ('A' for Active; 'I' for Inactive)
REMARK    1  A    between atoms: C_2  and  C_3
REMARK    2  A    between atoms: C_3  and  C_4
REMARK    3  A    between atoms: N_14  and  C_15
REMARK    4  A    between atoms: C_21  and  C_22
REMARK                            x       y       z     vdW  Elec       q    Type
REMARK                         _______ _______ _______ _____ _____    ______ ____
ROOT
ATOM      1  C   UNL     1       0.224  10.581  20.514  0.00  0.00    +0.000 A 
ATOM      2  C   UNL     1      -0.202  10.211  21.793  0.00  0.00    +0.000 A 
ATOM      3  C   UNL     1       0.167   8.985  22.337  0.00  0.00    +0.000 A 
ATOM      4  C   UNL     1       0.963   8.111  21.602  0.00  0.00    +0.000 A 
ATOM      5  C   UNL     1       1.383   8.417  20.318  0.00  0.00    +0.000 A 
ATOM      6  N   UNL     1       2.147   7.509  19.679  0.00  0.00    +0.000 NA
ATOM      7  C   UNL     1       2.577   7.766  18.420  0.00  0.00    +0.000 A 
ATOM      8  C   UNL     1       2.247   8.948  17.778  0.00  0.00    +0.000 A 
ATOM      9  C   UNL     1       1.463   9.889  18.438  0.00  0.00    +0.000 A 
ATOM     10  C   UNL     1       1.003   9.658  19.750  0.00  0.00    +0.000 A 
ENDROOT
BRANCH   7  11
ATOM     11  C   UNL     1       3.443   6.745  17.795  0.00  0.00    +0.000 A 
ATOM     12  C   UNL     1       3.155   5.369  17.900  0.00  0.00    +0.000 A 
ATOM     13  C   UNL     1       3.928   4.409  17.239  0.00  0.00    +0.000 A 
ATOM     14  C   UNL     1       5.017   4.808  16.472  0.00  0.00    +0.000 A 
ATOM     15 CL   UNL     1       5.949   3.629  15.637  0.00  0.00    +0.000 Cl
ATOM     16  C   UNL     1       5.349   6.155  16.377  0.00  0.00    +0.000 A 
ATOM     17  C   UNL     1       4.570   7.113  17.036  0.00  0.00    +0.000 A 
ENDBRANCH   7  11
BRANCH   1  20
ATOM     18  O   UNL     1       0.742  13.304  21.573  0.00  0.00    +0.000 OA
ATOM     19  C   UNL     1       0.134  13.092  20.529  0.00  0.00    +0.000 C 
ATOM     20  N   UNL     1      -0.110  11.853  19.965  0.00  0.00    +0.000 N 
ATOM     21  H   UNL     1      -0.459  11.865  19.021  0.00  0.00    +0.000 HD
BRANCH  19  22
ATOM     22  C   UNL     1      -0.431  14.255  19.721  0.00  0.00    +0.000 C 
BRANCH  22  23
ATOM     23  C   UNL     1       0.587  15.379  19.428  0.00  0.00    +0.000 C 
ATOM     24  C   UNL     1       1.015  16.106  20.728  0.00  0.00    +0.000 C 
ATOM     25  C   UNL     1       2.057  17.196  20.430  0.00  0.00    +0.000 C 
ATOM     26  C   UNL     1       3.299  16.553  19.795  0.00  0.00    +0.000 C 
ATOM     27  C   UNL     1       2.912  15.842  18.489  0.00  0.00    +0.000 C 
ATOM     28  C   UNL     1       2.313  16.866  17.513  0.00  0.00    +0.000 C 
ATOM     29  C   UNL     1       1.065  17.514  18.135  0.00  0.00    +0.000 C 
ATOM     30  C   UNL     1       1.453  18.214  19.448  0.00  0.00    +0.000 C 
ATOM     31  C   UNL     1       0.019  16.425  18.435  0.00  0.00    +0.000 C 
ATOM     32  C   UNL     1       1.862  14.757  18.792  0.00  0.00    +0.000 C 
ENDBRANCH  22  23
ENDBRANCH  19  22
ENDBRANCH   1  20
TORSDOF 4
ENDMDL
MODEL 5
REMARK VINA RESULT:      -8.5      1.205      1.940
REMARK  Name = 
REMARK  4 active torsions:
REMARK  status: ('A' for Active; 'I' for Inactive)
REMARK    1  A    between atoms: C_2  and  C_3
REMARK    2  A    between atoms: C_3  and  C_4
REMARK    3  A    between atoms: N_14  and  C_15
REMARK    4  A    between atoms: C_21  and  C_22
REMARK                            x       y       z     vdW  Elec       q    Type
REMARK                         _______ _______ _______ _____ _____    ______ ____
ROOT
ATOM      1  C   UNL     1       0.886   9.492  20.176  0.00  0.00    +0.000 A 
ATOM      2  C   UNL     1       1.349   9.938  18.935  0.00  0.00    +0.000 A 
ATOM      3  C   UNL     1       1.114  11.244  18.518  0.00  0.00    +0.000 A 
ATOM      4  C   UNL     1       0.407  12.118  19.338  0.00  0.00    +0.000 A 
ATOM      5  C   UNL     1      -0.100  11.715  20.563  0.00  0.00    +0.000 A 
ATOM      6  N   UNL     1      -0.777  12.627  21.289  0.00  0.00    +0.000 NA
ATOM      7  C   UNL     1      -1.294  12.274  22.490  0.00  0.00    +0.000 A 
ATOM      8  C   UNL     1      -1.137  10.990  22.988  0.00  0.00    +0.000 A 
ATOM      9  C   UNL     1      -0.434  10.049  22.242  0.00  0.00    +0.000 A 
ATOM     10  C   UNL     1       0.122  10.383  20.992  0.00  0.00    +0.000 A 
ENDROOT
BRANCH   7  11
ATOM     11  C   UNL     1      -1.989  13.334  23.249  0.00  0.00    +0.000 A 
ATOM     12  C   UNL     1      -1.281  14.383  23.868  0.00  0.00    +0.000 A 
ATOM     13  C   UNL     1      -1.945  15.430  24.515  0.00  0.00    +0.000 A 
ATOM     14  C   UNL     1      -3.334  15.437  24.570  0.00  0.00    +0.000 A 
ATOM     15 CL   UNL     1      -4.151  16.739  25.342  0.00  0.00    +0.000 Cl
ATOM     16  C   UNL     1      -4.062  14.397  24.001  0.00  0.00    +0.000 A 
ATOM     17  C   UNL     1      -3.393  13.354  23.351  0.00  0.00    +0.000 A 
ENDBRANCH   7  11
BRANCH   1  20
ATOM     18  O   UNL     1       2.663   7.412  19.025  0.00  0.00    +0.000 OA
ATOM     19  C   UNL     1       1.979   7.234  20.028  0.00  0.00    +0.000 C 
ATOM     20  N   UNL     1       1.160   8.170  20.633  0.00  0.00    +0.000 N 
ATOM     21  H   UNL     1       0.814   7.922  21.546  0.00  0.00    +0.000 HD
BRANCH  19  22
ATOM     22  C   UNL     1       1.986   5.881  20.731  0.00  0.00    +0.000 C 
BRANCH  22  23
ATOM     23  C   UNL     1       2.415   4.700  19.833  0.00  0.00    +0.000 C 
ATOM     24  C   UNL     1       1.766   4.795  18.428  0.00  0.00    +0.000 C 
ATOM     25  C   UNL     1       2.230   3.637  17.530  0.00  0.00    +0.000 C 
ATOM     26  C   UNL     1       3.757   3.697  17.370  0.00  0.00    +0.000 C 
ATOM     27  C   UNL     1       4.432   3.583  18.746  0.00  0.00    +0.000 C 
ATOM     28  C   UNL     1       4.039   2.246  19.394  0.00  0.00    +0.000 C 
ATOM     29  C   UNL     1       2.513   2.175  19.564  0.00  0.00    +0.000 C 
ATOM     30  C   UNL     1       1.838   2.303  18.187  0.00  0.00    +0.000 C 
ATOM     31  C   UNL     1       2.044   3.334  20.462  0.00  0.00    +0.000 C 
ATOM     32  C   UNL     1       3.957   4.739  19.645  0.00  0.00    +0.000 C 
ENDBRANCH  22  23
ENDBRANCH  19  22
ENDBRANCH   1  20
TORSDOF 4
ENDMDL
MODEL 6
REMARK VINA RESULT:      -8.5      4.806      9.749
REMARK  Name = 
REMARK  4 active torsions:
REMARK  status: ('A' for Active; 'I' for Inactive)
REMARK    1  A    between atoms: C_2  and  C_3
REMARK    2  A    between atoms: C_3  and  C_4
REMARK    3  A    between atoms: N_14  and  C_15
REMARK    4  A    between atoms: C_21  and  C_22
REMARK                            x       y       z     vdW  Elec       q    Type
REMARK                         _______ _______ _______ _____ _____    ______ ____
ROOT
ATOM      1  C   UNL     1       0.090  11.304  21.063  0.00  0.00    +0.000 A 
ATOM      2  C   UNL     1      -0.491  10.912  22.272  0.00  0.00    +0.000 A 
ATOM      3  C   UNL     1      -0.388   9.597  22.716  0.00  0.00    +0.000 A 
ATOM      4  C   UNL     1       0.293   8.657  21.949  0.00  0.00    +0.000 A 
ATOM      5  C   UNL     1       0.858   8.988  20.727  0.00  0.00    +0.000 A 
ATOM      6  N   UNL     1       1.495   8.013  20.050  0.00  0.00    +0.000 NA
ATOM      7  C   UNL     1       2.058   8.292  18.849  0.00  0.00    +0.000 A 
ATOM      8  C   UNL     1       1.994   9.565  18.307  0.00  0.00    +0.000 A 
ATOM      9  C   UNL     1       1.340  10.575  19.007  0.00  0.00    +0.000 A 
ATOM     10  C   UNL     1       0.749  10.322  20.261  0.00  0.00    +0.000 A 
ENDROOT
BRANCH   7  11
ATOM     11  C   UNL     1       2.774   7.186  18.181  0.00  0.00    +0.000 A 
ATOM     12  C   UNL     1       3.943   7.412  17.427  0.00  0.00    +0.000 A 
ATOM     13  C   UNL     1       4.665   6.356  16.863  0.00  0.00    +0.000 A 
ATOM     14  C   UNL     1       4.220   5.049  17.031  0.00  0.00    +0.000 A 
ATOM     15 CL   UNL     1       5.124   3.748  16.363  0.00  0.00    +0.000 Cl
ATOM     16  C   UNL     1       3.051   4.794  17.739  0.00  0.00    +0.000 A 
ATOM     17  C   UNL     1       2.334   5.855  18.305  0.00  0.00    +0.000 A 
ENDBRANCH   7  11
BRANCH   1  20
ATOM     18  O   UNL     1      -1.525  12.527  18.895  0.00  0.00    +0.000 OA
ATOM     19  C   UNL     1      -0.725  13.159  19.578  0.00  0.00    +0.000 C 
ATOM     20  N   UNL     1       0.030  12.658  20.622  0.00  0.00    +0.000 N 
ATOM     21  H   UNL     1       0.496  13.345  21.192  0.00  0.00    +0.000 HD
BRANCH  19  22
ATOM     22  C   UNL     1      -0.491  14.642  19.310  0.00  0.00    +0.000 C 
BRANCH  22  23
ATOM     23  C   UNL     1       0.995  15.038  19.176  0.00  0.00    +0.000 C 
ATOM     24  C   UNL     1       1.787  13.989  18.352  0.00  0.00    +0.000 C 
ATOM     25  C   UNL     1       3.256  14.412  18.192  0.00  0.00    +0.000 C 
ATOM     26  C   UNL     1       3.320  15.761  17.460  0.00  0.00    +0.000 C 
ATOM     27  C   UNL     1       2.562  16.830  18.264  0.00  0.00    +0.000 C 
ATOM     28  C   UNL     1       3.206  16.971  19.651  0.00  0.00    +0.000 C 
ATOM     29  C   UNL     1       3.144  15.628  20.397  0.00  0.00    +0.000 C 
ATOM     30  C   UNL     1       3.892  14.557  19.585  0.00  0.00    +0.000 C 
ATOM     31  C   UNL     1       1.675  15.201  20.559  0.00  0.00    +0.000 C 
ATOM     32  C   UNL     1       1.094  16.398  18.429  0.00  0.00    +0.000 C 
ENDBRANCH  22  23
ENDBRANCH  19  22
ENDBRANCH   1  20
TORSDOF 4
ENDMDL
MODEL 7
REMARK VINA RESULT:      -8.5      4.803      9.725
REMARK  Name = 
REMARK  4 active torsions:
REMARK  status: ('A' for Active; 'I' for Inactive)
REMARK    1  A    between atoms: C_2  and  C_3
REMARK    2  A    between atoms: C_3  and  C_4
REMARK    3  A    between atoms: N_14  and  C_15
REMARK    4  A    between atoms: C_21  and  C_22
REMARK                            x       y       z     vdW  Elec       q    Type
REMARK                         _______ _______ _______ _____ _____    ______ ____
ROOT
ATOM      1  C   UNL     1       0.103  11.246  21.021  0.00  0.00    +0.000 A 
ATOM      2  C   UNL     1      -0.471  10.848  22.232  0.00  0.00    +0.000 A 
ATOM      3  C   UNL     1      -0.353   9.534  22.675  0.00  0.00    +0.000 A 
ATOM      4  C   UNL     1       0.335   8.601  21.906  0.00  0.00    +0.000 A 
ATOM      5  C   UNL     1       0.893   8.938  20.683  0.00  0.00    +0.000 A 
ATOM      6  N   UNL     1       1.538   7.969  20.004  0.00  0.00    +0.000 NA
ATOM      7  C   UNL     1       2.094   8.253  18.802  0.00  0.00    +0.000 A 
ATOM      8  C   UNL     1       2.015   9.525  18.259  0.00  0.00    +0.000 A 
ATOM      9  C   UNL     1       1.354  10.529  18.962  0.00  0.00    +0.000 A 
ATOM     10  C   UNL     1       0.769  10.270  20.217  0.00  0.00    +0.000 A 
ENDROOT
BRANCH   7  11
ATOM     11  C   UNL     1       2.819   7.154  18.131  0.00  0.00    +0.000 A 
ATOM     12  C   UNL     1       4.005   7.387  17.406  0.00  0.00    +0.000 A 
ATOM     13  C   UNL     1       4.734   6.336  16.841  0.00  0.00    +0.000 A 
ATOM     14  C   UNL     1       4.279   5.029  16.978  0.00  0.00    +0.000 A 
ATOM     15 CL   UNL     1       5.192   3.734  16.309  0.00  0.00    +0.000 Cl
ATOM     16  C   UNL     1       3.094   4.768  17.657  0.00  0.00    +0.000 A 
ATOM     17  C   UNL     1       2.370   5.824  18.224  0.00  0.00    +0.000 A 
ENDBRANCH   7  11
BRANCH   1  20
ATOM     18  O   UNL     1      -1.461  12.437  18.798  0.00  0.00    +0.000 OA
ATOM     19  C   UNL     1      -0.701  13.085  19.510  0.00  0.00    +0.000 C 
ATOM     20  N   UNL     1       0.028  12.598  20.580  0.00  0.00    +0.000 N 
ATOM     21  H   UNL     1       0.457  13.295  21.167  0.00  0.00    +0.000 HD
BRANCH  19  22
ATOM     22  C   UNL     1      -0.492  14.573  19.253  0.00  0.00    +0.000 C 
BRANCH  22  23
ATOM     23  C   UNL     1       0.987  14.990  19.097  0.00  0.00    +0.000 C 
ATOM     24  C   UNL     1       1.118  16.325  18.319  0.00  0.00    +0.000 C 
ATOM     25  C   UNL     1       2.591  16.750  18.203  0.00  0.00    +0.000 C 
ATOM     26  C   UNL     1       3.177  16.943  19.610  0.00  0.00    +0.000 C 
ATOM     27  C   UNL     1       3.082  15.628  20.401  0.00  0.00    +0.000 C 
ATOM     28  C   UNL     1       3.872  14.536  19.664  0.00  0.00    +0.000 C 
ATOM     29  C   UNL     1       3.292  14.330  18.256  0.00  0.00    +0.000 C 
ATOM     30  C   UNL     1       3.376  15.650  17.470  0.00  0.00    +0.000 C 
ATOM     31  C   UNL     1       1.817  13.904  18.367  0.00  0.00    +0.000 C 
ATOM     32  C   UNL     1       1.607  15.202  20.507  0.00  0.00    +0.000 C 
ENDBRANCH  22  23
ENDBRANCH  19  22
ENDBRANCH   1  20
TORSDOF 4
ENDMDL
MODEL 8
REMARK VINA RESULT:      -8.5      1.135      1.357
REMARK  Name = 
REMARK  4 active torsions:
REMARK  status: ('A' for Active; 'I' for Inactive)
REMARK    1  A    between atoms: C_2  and  C_3
REMARK    2  A    between atoms: C_3  and  C_4
REMARK    3  A    between atoms: N_14  and  C_15
REMARK    4  A    between atoms: C_21  and  C_22
REMARK                            x       y       z     vdW  Elec       q    Type
REMARK                         _______ _______ _______ _____ _____    ______ ____
ROOT
ATOM      1  C   UNL     1       0.922   9.327  20.127  0.00  0.00    +0.000 A 
ATOM      2  C   UNL     1       1.309   9.744  18.850  0.00  0.00    +0.000 A 
ATOM      3  C   UNL     1       1.018  11.029  18.404  0.00  0.00    +0.000 A 
ATOM      4  C   UNL     1       0.329  11.911  19.231  0.00  0.00    +0.000 A 
ATOM      5  C   UNL     1      -0.105  11.535  20.492  0.00  0.00    +0.000 A 
ATOM      6  N   UNL     1      -0.769  12.454  21.222  0.00  0.00    +0.000 NA
ATOM      7  C   UNL     1      -1.215  12.127  22.459  0.00  0.00    +0.000 A 
ATOM      8  C   UNL     1      -0.998  10.866  22.989  0.00  0.00    +0.000 A 
ATOM      9  C   UNL     1      -0.308   9.918  22.239  0.00  0.00    +0.000 A 
ATOM     10  C   UNL     1       0.175  10.225  20.952  0.00  0.00    +0.000 A 
ENDROOT
BRANCH   7  11
ATOM     11  C   UNL     1      -1.901  13.194  23.219  0.00  0.00    +0.000 A 
ATOM     12  C   UNL     1      -1.230  14.371  23.605  0.00  0.00    +0.000 A 
ATOM     13  C   UNL     1      -1.900  15.415  24.251  0.00  0.00    +0.000 A 
ATOM     14  C   UNL     1      -3.255  15.292  24.538  0.00  0.00    +0.000 A 
ATOM     15 CL   UNL     1      -4.085  16.587  25.306  0.00  0.00    +0.000 Cl
ATOM     16  C   UNL     1      -3.938  14.128  24.202  0.00  0.00    +0.000 A 
ATOM     17  C   UNL     1      -3.264  13.088  23.551  0.00  0.00    +0.000 A 
ENDBRANCH   7  11
BRANCH   1  20
ATOM     18  O   UNL     1       2.932   7.384  19.132  0.00  0.00    +0.000 OA
ATOM     19  C   UNL     1       2.186   7.156  20.078  0.00  0.00    +0.000 C 
ATOM     20  N   UNL     1       1.255   8.029  20.611  0.00  0.00    +0.000 N 
ATOM     21  H   UNL     1       0.857   7.756  21.495  0.00  0.00    +0.000 HD
BRANCH  19  22
ATOM     22  C   UNL     1       2.235   5.807  20.787  0.00  0.00    +0.000 C 
BRANCH  22  23
ATOM     23  C   UNL     1       2.413   4.599  19.842  0.00  0.00    +0.000 C 
ATOM     24  C   UNL     1       3.907   4.357  19.508  0.00  0.00    +0.000 C 
ATOM     25  C   UNL     1       4.076   3.129  18.599  0.00  0.00    +0.000 C 
ATOM     26  C   UNL     1       3.525   1.886  19.315  0.00  0.00    +0.000 C 
ATOM     27  C   UNL     1       2.036   2.086  19.640  0.00  0.00    +0.000 C 
ATOM     28  C   UNL     1       1.258   2.308  18.334  0.00  0.00    +0.000 C 
ATOM     29  C   UNL     1       1.796   3.552  17.610  0.00  0.00    +0.000 C 
ATOM     30  C   UNL     1       3.290   3.356  17.297  0.00  0.00    +0.000 C 
ATOM     31  C   UNL     1       1.630   4.784  18.517  0.00  0.00    +0.000 C 
ATOM     32  C   UNL     1       1.872   3.321  20.543  0.00  0.00    +0.000 C 
ENDBRANCH  22  23
ENDBRANCH  19  22
ENDBRANCH   1  20
TORSDOF 4
ENDMDL
MODEL 9
REMARK VINA RESULT:      -8.5      3.598      5.055
REMARK  Name = 
REMARK  4 active torsions:
REMARK  status: ('A' for Active; 'I' for Inactive)
REMARK    1  A    between atoms: C_2  and  C_3
REMARK    2  A    between atoms: C_3  and  C_4
REMARK    3  A    between atoms: N_14  and  C_15
REMARK    4  A    between atoms: C_21  and  C_22
REMARK                            x       y       z     vdW  Elec       q    Type
REMARK                         _______ _______ _______ _____ _____    ______ ____
ROOT
ATOM      1  C   UNL     1       1.689   8.029  19.780  0.00  0.00    +0.000 A 
ATOM      2  C   UNL     1       1.234   7.623  21.037  0.00  0.00    +0.000 A 
ATOM      3  C   UNL     1       0.720   8.550  21.940  0.00  0.00    +0.000 A 
ATOM      4  C   UNL     1       0.663   9.897  21.594  0.00  0.00    +0.000 A 
ATOM      5  C   UNL     1       1.132  10.354  20.373  0.00  0.00    +0.000 A 
ATOM      6  N   UNL     1       1.041  11.675  20.126  0.00  0.00    +0.000 NA
ATOM      7  C   UNL     1       1.491  12.166  18.946  0.00  0.00    +0.000 A 
ATOM      8  C   UNL     1       2.042  11.332  17.986  0.00  0.00    +0.000 A 
ATOM      9  C   UNL     1       2.131   9.966  18.239  0.00  0.00    +0.000 A 
ATOM     10  C   UNL     1       1.668   9.421  19.452  0.00  0.00    +0.000 A 
ENDROOT
BRANCH   7  11
ATOM     11  C   UNL     1       1.324  13.618  18.725  0.00  0.00    +0.000 A 
ATOM     12  C   UNL     1       0.070  14.245  18.862  0.00  0.00    +0.000 A 
ATOM     13  C   UNL     1      -0.071  15.631  18.735  0.00  0.00    +0.000 A 
ATOM     14  C   UNL     1       1.042  16.415  18.450  0.00  0.00    +0.000 A 
ATOM     15 CL   UNL     1       0.872  18.121  18.322  0.00  0.00    +0.000 Cl
ATOM     16  C   UNL     1       2.287  15.822  18.273  0.00  0.00    +0.000 A 
ATOM     17  C   UNL     1       2.425  14.436  18.406  0.00  0.00    +0.000 A 
ENDBRANCH   7  11
BRANCH   1  20
ATOM     18  O   UNL     1       2.782   5.303  20.201  0.00  0.00    +0.000 OA
ATOM     19  C   UNL     1       2.703   5.835  19.098  0.00  0.00    +0.000 C 
ATOM     20  N   UNL     1       2.174   7.084  18.831  0.00  0.00    +0.000 N 
ATOM     21  H   UNL     1       2.017   7.292  17.858  0.00  0.00    +0.000 HD
BRANCH  19  22
ATOM     22  C   UNL     1       3.212   5.107  17.858  0.00  0.00    +0.000 C 
BRANCH  22  23
ATOM     23  C   UNL     1       4.702   5.358  17.541  0.00  0.00    +0.000 C 
ATOM     24  C   UNL     1       5.543   5.479  18.838  0.00  0.00    +0.000 C 
ATOM     25  C   UNL     1       7.031   5.690  18.510  0.00  0.00    +0.000 C 
ATOM     26  C   UNL     1       7.548   4.492  17.699  0.00  0.00    +0.000 C 
ATOM     27  C   UNL     1       6.747   4.358  16.394  0.00  0.00    +0.000 C 
ATOM     28  C   UNL     1       6.910   5.642  15.567  0.00  0.00    +0.000 C 
ATOM     29  C   UNL     1       6.391   6.848  16.365  0.00  0.00    +0.000 C 
ATOM     30  C   UNL     1       7.185   6.973  17.677  0.00  0.00    +0.000 C 
ATOM     31  C   UNL     1       4.903   6.641  16.695  0.00  0.00    +0.000 C 
ATOM     32  C   UNL     1       5.258   4.156  16.727  0.00  0.00    +0.000 C 
ENDBRANCH  22  23
ENDBRANCH  19  22
ENDBRANCH   1  20
TORSDOF 4
ENDMDL
