MODEL 1
REMARK VINA RESULT:      -7.7      0.000      0.000
REMARK  Name = 
REMARK  13 active torsions:
REMARK  status: ('A' for Active; 'I' for Inactive)
REMARK    1  A    between atoms: C_1  and  N_2
REMARK    2  A    between atoms: C_3  and  C_5
REMARK    3  A    between atoms: C_5  and  C_9
REMARK    4  A    between atoms: N_6  and  O_7
REMARK    5  A    between atoms: O_7  and  C_8
REMARK    6  A    between atoms: C_14  and  O_15
REMARK    7  A    between atoms: O_15  and  C_16
REMARK    8  A    between atoms: C_19  and  C_20
REMARK    9  A    between atoms: C_20  and  C_21
REMARK   10  A    between atoms: C_20  and  C_22
REMARK   11  A    between atoms: C_24  and  C_25
REMARK   12  A    between atoms: C_25  and  C_26
REMARK   13  A    between atoms: C_25  and  C_27
REMARK                            x       y       z     vdW  Elec       q    Type
REMARK                         _______ _______ _______ _____ _____    ______ ____
ROOT
ATOM      1  C   UNL     1       5.982   4.458  17.130  0.00  0.00    +0.000 A 
ATOM      2  C   UNL     1       7.175   4.548  16.362  0.00  0.00    +0.000 A 
ATOM      3  C   UNL     1       7.175   4.556  14.963  0.00  0.00    +0.000 A 
ATOM      4  C   UNL     1       5.982   4.349  14.297  0.00  0.00    +0.000 A 
ATOM      5  C   UNL     1       4.809   4.145  15.026  0.00  0.00    +0.000 A 
ATOM      6  C   UNL     1       4.754   4.296  16.431  0.00  0.00    +0.000 A 
ENDROOT
BRANCH   1   7
ATOM      7  C   UNL     1       6.194   4.584  18.621  0.00  0.00    +0.000 C 
ATOM      8  N   UNL     1       5.712   3.849  19.583  0.00  0.00    +0.000 NA
BRANCH   7  11
ATOM      9  C   UNL     1       8.261   7.799  18.506  0.00  0.00    +0.000 C 
ATOM     10  N   UNL     1       7.336   6.733  18.239  0.00  0.00    +0.000 N 
ATOM     11  C   UNL     1       7.169   5.674  19.120  0.00  0.00    +0.000 C 
ATOM     12  O   UNL     1       7.711   5.604  20.217  0.00  0.00    +0.000 OA
ATOM     13  H   UNL     1       6.920   6.625  17.322  0.00  0.00    +0.000 HD
ENDBRANCH   7  11
BRANCH   8  14
ATOM     14  O   UNL     1       4.937   2.784  19.135  0.00  0.00    +0.000 OA
ATOM     15  C   UNL     1       4.759   1.874  20.211  0.00  0.00    +0.000 C 
ENDBRANCH   8  14
ENDBRANCH   1   7
BRANCH   6  16
ATOM     16  O   UNL     1       3.488   4.331  17.069  0.00  0.00    +0.000 OA
BRANCH  16  17
ATOM     17  C   UNL     1       3.128   5.501  17.771  0.00  0.00    +0.000 A 
ATOM     18  C   UNL     1       3.563   6.739  17.267  0.00  0.00    +0.000 A 
ATOM     19  C   UNL     1       3.062   7.944  17.757  0.00  0.00    +0.000 A 
ATOM     20  C   UNL     1       2.166   7.963  18.827  0.00  0.00    +0.000 A 
ATOM     21  C   UNL     1       1.873   6.742  19.453  0.00  0.00    +0.000 A 
ATOM     22  C   UNL     1       2.354   5.491  18.966  0.00  0.00    +0.000 A 
BRANCH  20  23
ATOM     23  C   UNL     1       1.569   9.295  19.262  0.00  0.00    +0.000 C 
ATOM     24  C   UNL     1       0.611   9.949  18.257  0.00  0.00    +0.000 C 
ATOM     25  C   UNL     1       0.879   9.184  20.621  0.00  0.00    +0.000 C 
ENDBRANCH  20  23
BRANCH  22  26
ATOM     26  C   UNL     1       2.129   4.240  19.813  0.00  0.00    +0.000 C 
ATOM     27  C   UNL     1       2.230   4.628  21.301  0.00  0.00    +0.000 C 
ATOM     28  C   UNL     1       0.767   3.517  19.647  0.00  0.00    +0.000 C 
ENDBRANCH  22  26
ENDBRANCH  16  17
ENDBRANCH   6  16
TORSDOF 7
ENDMDL
MODEL 2
REMARK VINA RESULT:      -7.4      1.176      3.203
REMARK  Name = 
REMARK  13 active torsions:
REMARK  status: ('A' for Active; 'I' for Inactive)
REMARK    1  A    between atoms: C_1  and  N_2
REMARK    2  A    between atoms: C_3  and  C_5
REMARK    3  A    between atoms: C_5  and  C_9
REMARK    4  A    between atoms: N_6  and  O_7
REMARK    5  A    between atoms: O_7  and  C_8
REMARK    6  A    between atoms: C_14  and  O_15
REMARK    7  A    between atoms: O_15  and  C_16
REMARK    8  A    between atoms: C_19  and  C_20
REMARK    9  A    between atoms: C_20  and  C_21
REMARK   10  A    between atoms: C_20  and  C_22
REMARK   11  A    between atoms: C_24  and  C_25
REMARK   12  A    between atoms: C_25  and  C_26
REMARK   13  A    between atoms: C_25  and  C_27
REMARK                            x       y       z     vdW  Elec       q    Type
REMARK                         _______ _______ _______ _____ _____    ______ ____
ROOT
ATOM      1  C   UNL     1       6.356   5.201  16.809  0.00  0.00    +0.000 A 
ATOM      2  C   UNL     1       7.360   4.584  16.014  0.00  0.00    +0.000 A 
ATOM      3  C   UNL     1       7.267   4.485  14.621  0.00  0.00    +0.000 A 
ATOM      4  C   UNL     1       6.101   4.895  14.002  0.00  0.00    +0.000 A 
ATOM      5  C   UNL     1       5.052   5.402  14.769  0.00  0.00    +0.000 A 
ATOM      6  C   UNL     1       5.181   5.664  16.153  0.00  0.00    +0.000 A 
ENDROOT
BRANCH   1   7
ATOM      7  C   UNL     1       6.705   5.307  18.275  0.00  0.00    +0.000 C 
ATOM      8  N   UNL     1       6.337   4.542  19.264  0.00  0.00    +0.000 NA
BRANCH   7  11
ATOM      9  C   UNL     1       8.445   8.711  18.203  0.00  0.00    +0.000 C 
ATOM     10  N   UNL     1       7.560   7.599  17.991  0.00  0.00    +0.000 N 
ATOM     11  C   UNL     1       7.694   6.414  18.701  0.00  0.00    +0.000 C 
ATOM     12  O   UNL     1       8.497   6.250  19.612  0.00  0.00    +0.000 OA
ATOM     13  H   UNL     1       6.936   7.578  17.194  0.00  0.00    +0.000 HD
ENDBRANCH   7  11
BRANCH   8  14
ATOM     14  O   UNL     1       5.551   3.464  18.870  0.00  0.00    +0.000 OA
ATOM     15  C   UNL     1       4.842   2.986  20.004  0.00  0.00    +0.000 C 
ENDBRANCH   8  14
ENDBRANCH   1   7
BRANCH   6  16
ATOM     16  O   UNL     1       4.173   6.415  16.807  0.00  0.00    +0.000 OA
BRANCH  16  17
ATOM     17  C   UNL     1       3.193   5.716  17.544  0.00  0.00    +0.000 A 
ATOM     18  C   UNL     1       2.850   4.418  17.130  0.00  0.00    +0.000 A 
ATOM     19  C   UNL     1       2.076   3.577  17.928  0.00  0.00    +0.000 A 
ATOM     20  C   UNL     1       1.545   4.029  19.137  0.00  0.00    +0.000 A 
ATOM     21  C   UNL     1       1.729   5.380  19.465  0.00  0.00    +0.000 A 
ATOM     22  C   UNL     1       2.529   6.262  18.680  0.00  0.00    +0.000 A 
BRANCH  20  23
ATOM     23  C   UNL     1       0.790   3.045  20.021  0.00  0.00    +0.000 C 
ATOM     24  C   UNL     1       0.638   1.629  19.450  0.00  0.00    +0.000 C 
ATOM     25  C   UNL     1       1.401   2.964  21.420  0.00  0.00    +0.000 C 
ENDBRANCH  20  23
BRANCH  22  26
ATOM     26  C   UNL     1       2.526   7.751  19.018  0.00  0.00    +0.000 C 
ATOM     27  C   UNL     1       1.879   8.521  17.850  0.00  0.00    +0.000 C 
ATOM     28  C   UNL     1       1.757   8.178  20.295  0.00  0.00    +0.000 C 
ENDBRANCH  22  26
ENDBRANCH  16  17
ENDBRANCH   6  16
TORSDOF 7
ENDMDL
MODEL 3
REMARK VINA RESULT:      -7.4      5.070      8.747
REMARK  Name = 
REMARK  13 active torsions:
REMARK  status: ('A' for Active; 'I' for Inactive)
REMARK    1  A    between atoms: C_1  and  N_2
REMARK    2  A    between atoms: C_3  and  C_5
REMARK    3  A    between atoms: C_5  and  C_9
REMARK    4  A    between atoms: N_6  and  O_7
REMARK    5  A    between atoms: O_7  and  C_8
REMARK    6  A    between atoms: C_14  and  O_15
REMARK    7  A    between atoms: O_15  and  C_16
REMARK    8  A    between atoms: C_19  and  C_20
REMARK    9  A    between atoms: C_20  and  C_21
REMARK   10  A    between atoms: C_20  and  C_22
REMARK   11  A    between atoms: C_24  and  C_25
REMARK   12  A    between atoms: C_25  and  C_26
REMARK   13  A    between atoms: C_25  and  C_27
REMARK                            x       y       z     vdW  Elec       q    Type
REMARK                         _______ _______ _______ _____ _____    ______ ____
ROOT
ATOM      1  C   UNL     1      -0.954  12.184  19.156  0.00  0.00    +0.000 A 
ATOM      2  C   UNL     1      -2.367  12.296  19.053  0.00  0.00    +0.000 A 
ATOM      3  C   UNL     1      -3.166  11.298  18.486  0.00  0.00    +0.000 A 
ATOM      4  C   UNL     1      -2.551  10.212  17.893  0.00  0.00    +0.000 A 
ATOM      5  C   UNL     1      -1.159  10.128  17.879  0.00  0.00    +0.000 A 
ATOM      6  C   UNL     1      -0.337  11.036  18.586  0.00  0.00    +0.000 A 
ENDROOT
BRANCH   1   7
ATOM      7  C   UNL     1      -0.295  13.318  19.907  0.00  0.00    +0.000 C 
ATOM      8  N   UNL     1      -0.011  13.406  21.176  0.00  0.00    +0.000 NA
BRANCH   7  11
ATOM      9  C   UNL     1      -0.447  16.763  18.255  0.00  0.00    +0.000 C 
ATOM     10  N   UNL     1      -0.708  15.583  19.031  0.00  0.00    +0.000 N 
ATOM     11  C   UNL     1       0.198  14.532  19.090  0.00  0.00    +0.000 C 
ATOM     12  O   UNL     1       1.308  14.558  18.574  0.00  0.00    +0.000 OA
ATOM     13  H   UNL     1      -1.631  15.402  19.406  0.00  0.00    +0.000 HD
ENDBRANCH   7  11
BRANCH   8  14
ATOM     14  O   UNL     1      -0.333  12.261  21.899  0.00  0.00    +0.000 OA
ATOM     15  C   UNL     1      -1.310  12.603  22.871  0.00  0.00    +0.000 C 
ENDBRANCH   8  14
ENDBRANCH   1   7
BRANCH   6  16
ATOM     16  O   UNL     1       1.041  10.739  18.741  0.00  0.00    +0.000 OA
BRANCH  16  17
ATOM     17  C   UNL     1       1.417   9.390  18.914  0.00  0.00    +0.000 A 
ATOM     18  C   UNL     1       1.839   8.668  17.785  0.00  0.00    +0.000 A 
ATOM     19  C   UNL     1       2.445   7.418  17.902  0.00  0.00    +0.000 A 
ATOM     20  C   UNL     1       2.580   6.803  19.147  0.00  0.00    +0.000 A 
ATOM     21  C   UNL     1       1.994   7.436  20.253  0.00  0.00    +0.000 A 
ATOM     22  C   UNL     1       1.383   8.722  20.171  0.00  0.00    +0.000 A 
BRANCH  20  23
ATOM     23  C   UNL     1       3.338   5.485  19.237  0.00  0.00    +0.000 C 
ATOM     24  C   UNL     1       2.620   4.269  18.635  0.00  0.00    +0.000 C 
ATOM     25  C   UNL     1       4.736   5.599  18.630  0.00  0.00    +0.000 C 
ENDBRANCH  20  23
BRANCH  22  26
ATOM     26  C   UNL     1       0.619   9.248  21.384  0.00  0.00    +0.000 C 
ATOM     27  C   UNL     1      -0.656   8.403  21.569  0.00  0.00    +0.000 C 
ATOM     28  C   UNL     1       1.359   9.216  22.747  0.00  0.00    +0.000 C 
ENDBRANCH  22  26
ENDBRANCH  16  17
ENDBRANCH   6  16
TORSDOF 7
ENDMDL
MODEL 4
REMARK VINA RESULT:      -7.3      4.668      8.242
REMARK  Name = 
REMARK  13 active torsions:
REMARK  status: ('A' for Active; 'I' for Inactive)
REMARK    1  A    between atoms: C_1  and  N_2
REMARK    2  A    between atoms: C_3  and  C_5
REMARK    3  A    between atoms: C_5  and  C_9
REMARK    4  A    between atoms: N_6  and  O_7
REMARK    5  A    between atoms: O_7  and  C_8
REMARK    6  A    between atoms: C_14  and  O_15
REMARK    7  A    between atoms: O_15  and  C_16
REMARK    8  A    between atoms: C_19  and  C_20
REMARK    9  A    between atoms: C_20  and  C_21
REMARK   10  A    between atoms: C_20  and  C_22
REMARK   11  A    between atoms: C_24  and  C_25
REMARK   12  A    between atoms: C_25  and  C_26
REMARK   13  A    between atoms: C_25  and  C_27
REMARK                            x       y       z     vdW  Elec       q    Type
REMARK                         _______ _______ _______ _____ _____    ______ ____
ROOT
ATOM      1  C   UNL     1      -0.323  12.048  19.511  0.00  0.00    +0.000 A 
ATOM      2  C   UNL     1      -1.713  12.344  19.544  0.00  0.00    +0.000 A 
ATOM      3  C   UNL     1      -2.669  11.556  18.895  0.00  0.00    +0.000 A 
ATOM      4  C   UNL     1      -2.239  10.517  18.091  0.00  0.00    +0.000 A 
ATOM      5  C   UNL     1      -0.873  10.271  17.949  0.00  0.00    +0.000 A 
ATOM      6  C   UNL     1       0.102  10.945  18.720  0.00  0.00    +0.000 A 
ENDROOT
BRANCH   1   7
ATOM      7  C   UNL     1       0.524  12.956  20.373  0.00  0.00    +0.000 C 
ATOM      8  N   UNL     1       0.525  13.089  21.669  0.00  0.00    +0.000 NA
BRANCH   7  11
ATOM      9  C   UNL     1       3.878  14.737  19.929  0.00  0.00    +0.000 C 
ATOM     10  N   UNL     1       2.789  13.922  20.392  0.00  0.00    +0.000 N 
ATOM     11  C   UNL     1       1.607  13.808  19.675  0.00  0.00    +0.000 C 
ATOM     12  O   UNL     1       1.427  14.303  18.569  0.00  0.00    +0.000 OA
ATOM     13  H   UNL     1       2.779  13.559  21.337  0.00  0.00    +0.000 HD
ENDBRANCH   7  11
BRANCH   8  14
ATOM     14  O   UNL     1      -0.356  12.230  22.318  0.00  0.00    +0.000 OA
ATOM     15  C   UNL     1      -1.218  13.004  23.139  0.00  0.00    +0.000 C 
ENDBRANCH   8  14
ENDBRANCH   1   7
BRANCH   6  16
ATOM     16  O   UNL     1       1.436  10.465  18.713  0.00  0.00    +0.000 OA
BRANCH  16  17
ATOM     17  C   UNL     1       1.653   9.095  18.973  0.00  0.00    +0.000 A 
ATOM     18  C   UNL     1       2.073   8.274  17.912  0.00  0.00    +0.000 A 
ATOM     19  C   UNL     1       2.532   6.977  18.130  0.00  0.00    +0.000 A 
ATOM     20  C   UNL     1       2.514   6.417  19.408  0.00  0.00    +0.000 A 
ATOM     21  C   UNL     1       1.924   7.164  20.438  0.00  0.00    +0.000 A 
ATOM     22  C   UNL     1       1.461   8.500  20.253  0.00  0.00    +0.000 A 
BRANCH  20  23
ATOM     23  C   UNL     1       3.119   5.034  19.613  0.00  0.00    +0.000 C 
ATOM     24  C   UNL     1       2.389   3.884  18.906  0.00  0.00    +0.000 C 
ATOM     25  C   UNL     1       4.598   5.006  19.230  0.00  0.00    +0.000 C 
ENDBRANCH  20  23
BRANCH  22  26
ATOM     26  C   UNL     1       0.676   9.166  21.381  0.00  0.00    +0.000 C 
ATOM     27  C   UNL     1      -0.623   8.371  21.614  0.00  0.00    +0.000 C 
ATOM     28  C   UNL     1       1.376   9.261  22.762  0.00  0.00    +0.000 C 
ENDBRANCH  22  26
ENDBRANCH  16  17
ENDBRANCH   6  16
TORSDOF 7
ENDMDL
MODEL 5
REMARK VINA RESULT:      -7.3      0.948      2.564
REMARK  Name = 
REMARK  13 active torsions:
REMARK  status: ('A' for Active; 'I' for Inactive)
REMARK    1  A    between atoms: C_1  and  N_2
REMARK    2  A    between atoms: C_3  and  C_5
REMARK    3  A    between atoms: C_5  and  C_9
REMARK    4  A    between atoms: N_6  and  O_7
REMARK    5  A    between atoms: O_7  and  C_8
REMARK    6  A    between atoms: C_14  and  O_15
REMARK    7  A    between atoms: O_15  and  C_16
REMARK    8  A    between atoms: C_19  and  C_20
REMARK    9  A    between atoms: C_20  and  C_21
REMARK   10  A    between atoms: C_20  and  C_22
REMARK   11  A    between atoms: C_24  and  C_25
REMARK   12  A    between atoms: C_25  and  C_26
REMARK   13  A    between atoms: C_25  and  C_27
REMARK                            x       y       z     vdW  Elec       q    Type
REMARK                         _______ _______ _______ _____ _____    ______ ____
ROOT
ATOM      1  C   UNL     1       5.739   4.353  17.338  0.00  0.00    +0.000 A 
ATOM      2  C   UNL     1       7.031   4.440  16.752  0.00  0.00    +0.000 A 
ATOM      3  C   UNL     1       7.234   4.810  15.418  0.00  0.00    +0.000 A 
ATOM      4  C   UNL     1       6.132   4.982  14.602  0.00  0.00    +0.000 A 
ATOM      5  C   UNL     1       4.851   4.794  15.120  0.00  0.00    +0.000 A 
ATOM      6  C   UNL     1       4.614   4.583  16.499  0.00  0.00    +0.000 A 
ENDROOT
BRANCH   1   7
ATOM      7  C   UNL     1       5.749   4.053  18.819  0.00  0.00    +0.000 C 
ATOM      8  N   UNL     1       6.257   4.752  19.794  0.00  0.00    +0.000 NA
BRANCH   7  11
ATOM      9  C   UNL     1       3.470   0.991  18.593  0.00  0.00    +0.000 C 
ATOM     10  N   UNL     1       4.285   2.139  18.308  0.00  0.00    +0.000 N 
ATOM     11  C   UNL     1       5.000   2.792  19.303  0.00  0.00    +0.000 C 
ATOM     12  O   UNL     1       5.072   2.401  20.462  0.00  0.00    +0.000 OA
ATOM     13  H   UNL     1       4.216   2.616  17.418  0.00  0.00    +0.000 HD
ENDBRANCH   7  11
BRANCH   8  14
ATOM     14  O   UNL     1       6.819   5.956  19.382  0.00  0.00    +0.000 OA
ATOM     15  C   UNL     1       8.215   5.914  19.643  0.00  0.00    +0.000 C 
ENDBRANCH   8  14
ENDBRANCH   1   7
BRANCH   6  16
ATOM     16  O   UNL     1       3.285   4.661  16.987  0.00  0.00    +0.000 OA
BRANCH  16  17
ATOM     17  C   UNL     1       2.943   5.751  17.816  0.00  0.00    +0.000 A 
ATOM     18  C   UNL     1       3.305   7.043  17.399  0.00  0.00    +0.000 A 
ATOM     19  C   UNL     1       2.806   8.181  18.030  0.00  0.00    +0.000 A 
ATOM     20  C   UNL     1       1.989   8.073  19.156  0.00  0.00    +0.000 A 
ATOM     21  C   UNL     1       1.777   6.792  19.688  0.00  0.00    +0.000 A 
ATOM     22  C   UNL     1       2.258   5.607  19.056  0.00  0.00    +0.000 A 
BRANCH  20  23
ATOM     23  C   UNL     1       1.387   9.340  19.751  0.00  0.00    +0.000 C 
ATOM     24  C   UNL     1       0.337  10.043  18.881  0.00  0.00    +0.000 C 
ATOM     25  C   UNL     1       0.804   9.085  21.141  0.00  0.00    +0.000 C 
ENDBRANCH  20  23
BRANCH  22  26
ATOM     26  C   UNL     1       2.130   4.279  19.799  0.00  0.00    +0.000 C 
ATOM     27  C   UNL     1       2.237   4.548  21.313  0.00  0.00    +0.000 C 
ATOM     28  C   UNL     1       0.814   3.485  19.594  0.00  0.00    +0.000 C 
ENDBRANCH  22  26
ENDBRANCH  16  17
ENDBRANCH   6  16
TORSDOF 7
ENDMDL
MODEL 6
REMARK VINA RESULT:      -7.2      7.001     10.137
REMARK  Name = 
REMARK  13 active torsions:
REMARK  status: ('A' for Active; 'I' for Inactive)
REMARK    1  A    between atoms: C_1  and  N_2
REMARK    2  A    between atoms: C_3  and  C_5
REMARK    3  A    between atoms: C_5  and  C_9
REMARK    4  A    between atoms: N_6  and  O_7
REMARK    5  A    between atoms: O_7  and  C_8
REMARK    6  A    between atoms: C_14  and  O_15
REMARK    7  A    between atoms: O_15  and  C_16
REMARK    8  A    between atoms: C_19  and  C_20
REMARK    9  A    between atoms: C_20  and  C_21
REMARK   10  A    between atoms: C_20  and  C_22
REMARK   11  A    between atoms: C_24  and  C_25
REMARK   12  A    between atoms: C_25  and  C_26
REMARK   13  A    between atoms: C_25  and  C_27
REMARK                            x       y       z     vdW  Elec       q    Type
REMARK                         _______ _______ _______ _____ _____    ______ ____
ROOT
ATOM      1  C   UNL     1      -0.022  10.831  20.765  0.00  0.00    +0.000 A 
ATOM      2  C   UNL     1       0.471   9.553  21.144  0.00  0.00    +0.000 A 
ATOM      3  C   UNL     1       0.152   8.951  22.366  0.00  0.00    +0.000 A 
ATOM      4  C   UNL     1      -0.573   9.674  23.294  0.00  0.00    +0.000 A 
ATOM      5  C   UNL     1      -0.977  10.976  22.994  0.00  0.00    +0.000 A 
ATOM      6  C   UNL     1      -0.810  11.545  21.710  0.00  0.00    +0.000 A 
ENDROOT
BRANCH   1   7
ATOM      7  C   UNL     1       0.346  11.245  19.359  0.00  0.00    +0.000 C 
ATOM      8  N   UNL     1       1.098  12.234  18.965  0.00  0.00    +0.000 NA
BRANCH   7  11
ATOM      9  C   UNL     1      -2.046   9.966  16.663  0.00  0.00    +0.000 C 
ATOM     10  N   UNL     1      -1.396  10.722  17.698  0.00  0.00    +0.000 N 
ATOM     11  C   UNL     1      -0.152  10.360  18.194  0.00  0.00    +0.000 C 
ATOM     12  O   UNL     1       0.525   9.445  17.742  0.00  0.00    +0.000 OA
ATOM     13  H   UNL     1      -1.902  11.426  18.222  0.00  0.00    +0.000 HD
ENDBRANCH   7  11
BRANCH   8  14
ATOM     14  O   UNL     1       1.658  12.958  20.013  0.00  0.00    +0.000 OA
ATOM     15  C   UNL     1       2.594  13.879  19.473  0.00  0.00    +0.000 C 
ENDBRANCH   8  14
ENDBRANCH   1   7
BRANCH   6  16
ATOM     16  O   UNL     1      -1.473  12.761  21.406  0.00  0.00    +0.000 OA
BRANCH  16  17
ATOM     17  C   UNL     1      -2.835  12.706  21.044  0.00  0.00    +0.000 A 
ATOM     18  C   UNL     1      -3.156  12.496  19.692  0.00  0.00    +0.000 A 
ATOM     19  C   UNL     1      -4.455  12.196  19.287  0.00  0.00    +0.000 A 
ATOM     20  C   UNL     1      -5.503  12.172  20.209  0.00  0.00    +0.000 A 
ATOM     21  C   UNL     1      -5.222  12.562  21.526  0.00  0.00    +0.000 A 
ATOM     22  C   UNL     1      -3.901  12.859  21.976  0.00  0.00    +0.000 A 
BRANCH  20  23
ATOM     23  C   UNL     1      -6.886  11.741  19.738  0.00  0.00    +0.000 C 
ATOM     24  C   UNL     1      -6.907  10.809  18.519  0.00  0.00    +0.000 C 
ATOM     25  C   UNL     1      -7.694  11.110  20.872  0.00  0.00    +0.000 C 
ENDBRANCH  20  23
BRANCH  22  26
ATOM     26  C   UNL     1      -3.718  13.443  23.375  0.00  0.00    +0.000 C 
ATOM     27  C   UNL     1      -4.570  14.722  23.490  0.00  0.00    +0.000 C 
ATOM     28  C   UNL     1      -4.128  12.543  24.570  0.00  0.00    +0.000 C 
ENDBRANCH  22  26
ENDBRANCH  16  17
ENDBRANCH   6  16
TORSDOF 7
ENDMDL
MODEL 7
REMARK VINA RESULT:      -7.2      7.301     10.088
REMARK  Name = 
REMARK  13 active torsions:
REMARK  status: ('A' for Active; 'I' for Inactive)
REMARK    1  A    between atoms: C_1  and  N_2
REMARK    2  A    between atoms: C_3  and  C_5
REMARK    3  A    between atoms: C_5  and  C_9
REMARK    4  A    between atoms: N_6  and  O_7
REMARK    5  A    between atoms: O_7  and  C_8
REMARK    6  A    between atoms: C_14  and  O_15
REMARK    7  A    between atoms: O_15  and  C_16
REMARK    8  A    between atoms: C_19  and  C_20
REMARK    9  A    between atoms: C_20  and  C_21
REMARK   10  A    between atoms: C_20  and  C_22
REMARK   11  A    between atoms: C_24  and  C_25
REMARK   12  A    between atoms: C_25  and  C_26
REMARK   13  A    between atoms: C_25  and  C_27
REMARK                            x       y       z     vdW  Elec       q    Type
REMARK                         _______ _______ _______ _____ _____    ______ ____
ROOT
ATOM      1  C   UNL     1      -0.350  10.862  20.607  0.00  0.00    +0.000 A 
ATOM      2  C   UNL     1       0.143   9.534  20.719  0.00  0.00    +0.000 A 
ATOM      3  C   UNL     1       0.066   8.797  21.906  0.00  0.00    +0.000 A 
ATOM      4  C   UNL     1      -0.397   9.422  23.048  0.00  0.00    +0.000 A 
ATOM      5  C   UNL     1      -0.784  10.762  22.994  0.00  0.00    +0.000 A 
ATOM      6  C   UNL     1      -0.872  11.478  21.778  0.00  0.00    +0.000 A 
ENDROOT
BRANCH   1   7
ATOM      7  C   UNL     1      -0.277  11.435  19.210  0.00  0.00    +0.000 C 
ATOM      8  N   UNL     1      -0.996  11.141  18.164  0.00  0.00    +0.000 NA
BRANCH   7  11
ATOM      9  C   UNL     1       2.937  13.122  18.007  0.00  0.00    +0.000 C 
ATOM     10  N   UNL     1       1.867  12.200  18.267  0.00  0.00    +0.000 N 
ATOM     11  C   UNL     1       0.723  12.584  18.954  0.00  0.00    +0.000 C 
ATOM     12  O   UNL     1       0.491  13.734  19.307  0.00  0.00    +0.000 OA
ATOM     13  H   UNL     1       1.992  11.205  18.124  0.00  0.00    +0.000 HD
ENDBRANCH   7  11
BRANCH   8  14
ATOM     14  O   UNL     1      -1.989  10.199  18.418  0.00  0.00    +0.000 OA
ATOM     15  C   UNL     1      -2.555   9.796  17.180  0.00  0.00    +0.000 C 
ENDBRANCH   8  14
ENDBRANCH   1   7
BRANCH   6  16
ATOM     16  O   UNL     1      -1.516  12.741  21.769  0.00  0.00    +0.000 OA
BRANCH  16  17
ATOM     17  C   UNL     1      -2.901  12.781  21.498  0.00  0.00    +0.000 A 
ATOM     18  C   UNL     1      -3.312  12.926  20.162  0.00  0.00    +0.000 A 
ATOM     19  C   UNL     1      -4.640  12.741  19.783  0.00  0.00    +0.000 A 
ATOM     20  C   UNL     1      -5.626  12.482  20.736  0.00  0.00    +0.000 A 
ATOM     21  C   UNL     1      -5.252  12.520  22.087  0.00  0.00    +0.000 A 
ATOM     22  C   UNL     1      -3.900  12.690  22.508  0.00  0.00    +0.000 A 
BRANCH  20  23
ATOM     23  C   UNL     1      -7.044  12.187  20.264  0.00  0.00    +0.000 C 
ATOM     24  C   UNL     1      -7.153  11.447  18.923  0.00  0.00    +0.000 C 
ATOM     25  C   UNL     1      -7.843  11.430  21.325  0.00  0.00    +0.000 C 
ENDBRANCH  20  23
BRANCH  22  26
ATOM     26  C   UNL     1      -3.616  12.895  23.994  0.00  0.00    +0.000 C 
ATOM     27  C   UNL     1      -3.497  14.407  24.269  0.00  0.00    +0.000 C 
ATOM     28  C   UNL     1      -4.676  12.358  24.991  0.00  0.00    +0.000 C 
ENDBRANCH  22  26
ENDBRANCH  16  17
ENDBRANCH   6  16
TORSDOF 7
ENDMDL
MODEL 8
REMARK VINA RESULT:      -7.2      5.108      8.918
REMARK  Name = 
REMARK  13 active torsions:
REMARK  status: ('A' for Active; 'I' for Inactive)
REMARK    1  A    between atoms: C_1  and  N_2
REMARK    2  A    between atoms: C_3  and  C_5
REMARK    3  A    between atoms: C_5  and  C_9
REMARK    4  A    between atoms: N_6  and  O_7
REMARK    5  A    between atoms: O_7  and  C_8
REMARK    6  A    between atoms: C_14  and  O_15
REMARK    7  A    between atoms: O_15  and  C_16
REMARK    8  A    between atoms: C_19  and  C_20
REMARK    9  A    between atoms: C_20  and  C_21
REMARK   10  A    between atoms: C_20  and  C_22
REMARK   11  A    between atoms: C_24  and  C_25
REMARK   12  A    between atoms: C_25  and  C_26
REMARK   13  A    between atoms: C_25  and  C_27
REMARK                            x       y       z     vdW  Elec       q    Type
REMARK                         _______ _______ _______ _____ _____    ______ ____
ROOT
ATOM      1  C   UNL     1      -0.750  12.320  19.653  0.00  0.00    +0.000 A 
ATOM      2  C   UNL     1      -2.158  12.513  19.613  0.00  0.00    +0.000 A 
ATOM      3  C   UNL     1      -3.015  11.682  18.884  0.00  0.00    +0.000 A 
ATOM      4  C   UNL     1      -2.465  10.705  18.076  0.00  0.00    +0.000 A 
ATOM      5  C   UNL     1      -1.078  10.563  18.008  0.00  0.00    +0.000 A 
ATOM      6  C   UNL     1      -0.201  11.278  18.856  0.00  0.00    +0.000 A 
ENDROOT
BRANCH   1   7
ATOM      7  C   UNL     1      -0.023  13.255  20.591  0.00  0.00    +0.000 C 
ATOM      8  N   UNL     1       0.885  14.149  20.318  0.00  0.00    +0.000 NA
BRANCH   7  11
ATOM      9  C   UNL     1      -1.248  14.652  23.933  0.00  0.00    +0.000 C 
ATOM     10  N   UNL     1      -0.894  14.462  22.554  0.00  0.00    +0.000 N 
ATOM     11  C   UNL     1      -0.431  13.242  22.081  0.00  0.00    +0.000 C 
ATOM     12  O   UNL     1      -0.373  12.223  22.759  0.00  0.00    +0.000 OA
ATOM     13  H   UNL     1      -0.794  15.253  21.930  0.00  0.00    +0.000 HD
ENDBRANCH   7  11
BRANCH   8  14
ATOM     14  O   UNL     1       1.164  14.260  18.959  0.00  0.00    +0.000 OA
ATOM     15  C   UNL     1       2.121  15.295  18.780  0.00  0.00    +0.000 C 
ENDBRANCH   8  14
ENDBRANCH   1   7
BRANCH   6  16
ATOM     16  O   UNL     1       1.163  10.895  18.913  0.00  0.00    +0.000 OA
BRANCH  16  17
ATOM     17  C   UNL     1       1.466   9.519  18.997  0.00  0.00    +0.000 A 
ATOM     18  C   UNL     1       1.866   8.853  17.826  0.00  0.00    +0.000 A 
ATOM     19  C   UNL     1       2.405   7.569  17.864  0.00  0.00    +0.000 A 
ATOM     20  C   UNL     1       2.491   6.865  19.066  0.00  0.00    +0.000 A 
ATOM     21  C   UNL     1       1.924   7.451  20.207  0.00  0.00    +0.000 A 
ATOM     22  C   UNL     1       1.381   8.771  20.205  0.00  0.00    +0.000 A 
BRANCH  20  23
ATOM     23  C   UNL     1       3.178   5.506  19.073  0.00  0.00    +0.000 C 
ATOM     24  C   UNL     1       2.853   4.609  20.275  0.00  0.00    +0.000 C 
ATOM     25  C   UNL     1       2.912   4.735  17.780  0.00  0.00    +0.000 C 
ENDBRANCH  20  23
BRANCH  22  26
ATOM     26  C   UNL     1       0.629   9.254  21.444  0.00  0.00    +0.000 C 
ATOM     27  C   UNL     1      -0.618   8.369  21.640  0.00  0.00    +0.000 C 
ATOM     28  C   UNL     1       1.399   9.218  22.790  0.00  0.00    +0.000 C 
ENDBRANCH  22  26
ENDBRANCH  16  17
ENDBRANCH   6  16
TORSDOF 7
ENDMDL
MODEL 9
REMARK VINA RESULT:      -7.2      5.111      8.813
REMARK  Name = 
REMARK  13 active torsions:
REMARK  status: ('A' for Active; 'I' for Inactive)
REMARK    1  A    between atoms: C_1  and  N_2
REMARK    2  A    between atoms: C_3  and  C_5
REMARK    3  A    between atoms: C_5  and  C_9
REMARK    4  A    between atoms: N_6  and  O_7
REMARK    5  A    between atoms: O_7  and  C_8
REMARK    6  A    between atoms: C_14  and  O_15
REMARK    7  A    between atoms: O_15  and  C_16
REMARK    8  A    between atoms: C_19  and  C_20
REMARK    9  A    between atoms: C_20  and  C_21
REMARK   10  A    between atoms: C_20  and  C_22
REMARK   11  A    between atoms: C_24  and  C_25
REMARK   12  A    between atoms: C_25  and  C_26
REMARK   13  A    between atoms: C_25  and  C_27
REMARK                            x       y       z     vdW  Elec       q    Type
REMARK                         _______ _______ _______ _____ _____    ______ ____
ROOT
ATOM      1  C   UNL     1      -0.797  12.161  19.793  0.00  0.00    +0.000 A 
ATOM      2  C   UNL     1      -2.155  12.393  19.440  0.00  0.00    +0.000 A 
ATOM      3  C   UNL     1      -2.892  11.508  18.646  0.00  0.00    +0.000 A 
ATOM      4  C   UNL     1      -2.244  10.426  18.080  0.00  0.00    +0.000 A 
ATOM      5  C   UNL     1      -0.883  10.233  18.317  0.00  0.00    +0.000 A 
ATOM      6  C   UNL     1      -0.156  11.016  19.245  0.00  0.00    +0.000 A 
ENDROOT
BRANCH   1   7
ATOM      7  C   UNL     1      -0.224  13.178  20.753  0.00  0.00    +0.000 C 
ATOM      8  N   UNL     1       0.574  14.178  20.508  0.00  0.00    +0.000 NA
BRANCH   7  11
ATOM      9  C   UNL     1      -1.757  14.392  24.039  0.00  0.00    +0.000 C 
ATOM     10  N   UNL     1      -1.331  14.250  22.674  0.00  0.00    +0.000 N 
ATOM     11  C   UNL     1      -0.677  13.110  22.228  0.00  0.00    +0.000 C 
ATOM     12  O   UNL     1      -0.493  12.113  22.917  0.00  0.00    +0.000 OA
ATOM     13  H   UNL     1      -1.327  15.045  22.047  0.00  0.00    +0.000 HD
ENDBRANCH   7  11
BRANCH   8  14
ATOM     14  O   UNL     1       0.883  14.327  19.160  0.00  0.00    +0.000 OA
ATOM     15  C   UNL     1       2.276  14.106  18.990  0.00  0.00    +0.000 C 
ENDBRANCH   8  14
ENDBRANCH   1   7
BRANCH   6  16
ATOM     16  O   UNL     1       1.145  10.599  19.625  0.00  0.00    +0.000 OA
BRANCH  16  17
ATOM     17  C   UNL     1       1.559   9.298  19.270  0.00  0.00    +0.000 A 
ATOM     18  C   UNL     1       1.932   9.059  17.936  0.00  0.00    +0.000 A 
ATOM     19  C   UNL     1       2.570   7.880  17.556  0.00  0.00    +0.000 A 
ATOM     20  C   UNL     1       2.788   6.856  18.478  0.00  0.00    +0.000 A 
ATOM     21  C   UNL     1       2.253   7.013  19.765  0.00  0.00    +0.000 A 
ATOM     22  C   UNL     1       1.610   8.213  20.191  0.00  0.00    +0.000 A 
BRANCH  20  23
ATOM     23  C   UNL     1       3.578   5.629  18.040  0.00  0.00    +0.000 C 
ATOM     24  C   UNL     1       2.736   4.409  17.644  0.00  0.00    +0.000 C 
ATOM     25  C   UNL     1       4.550   5.962  16.908  0.00  0.00    +0.000 C 
ENDBRANCH  20  23
BRANCH  22  26
ATOM     26  C   UNL     1       0.906   8.225  21.546  0.00  0.00    +0.000 C 
ATOM     27  C   UNL     1       1.525   9.338  22.414  0.00  0.00    +0.000 C 
ATOM     28  C   UNL     1      -0.623   8.484  21.540  0.00  0.00    +0.000 C 
ENDBRANCH  22  26
ENDBRANCH  16  17
ENDBRANCH   6  16
TORSDOF 7
ENDMDL
