MODEL 1
REMARK VINA RESULT:      -8.6      0.000      0.000
REMARK  Name = 
REMARK  8 active torsions:
REMARK  status: ('A' for Active; 'I' for Inactive)
REMARK    1  A    between atoms: C_1  and  C_2
REMARK    2  A    between atoms: C_2  and  C_3
REMARK    3  A    between atoms: C_2  and  C_5
REMARK    4  A    between atoms: C_2  and  N_7
REMARK    5  A    between atoms: C_3  and  O_4
REMARK    6  A    between atoms: C_5  and  O_6
REMARK    7  A    between atoms: N_7  and  C_8
REMARK    8  A    between atoms: C_8  and  C_9
REMARK                            x       y       z     vdW  Elec       q    Type
REMARK                         _______ _______ _______ _____ _____    ______ ____
ROOT
ATOM      1  C   UNL     1       5.700   4.918  15.441  0.00  0.00    +0.000 A 
ATOM      2  C   UNL     1       5.686   6.252  15.926  0.00  0.00    +0.000 A 
ATOM      3  C   UNL     1       4.856   6.614  17.001  0.00  0.00    +0.000 A 
ATOM      4  C   UNL     1       4.056   5.626  17.567  0.00  0.00    +0.000 A 
ATOM      5  C   UNL     1       4.069   4.321  17.095  0.00  0.00    +0.000 A 
ATOM      6  C   UNL     1       4.882   3.938  16.043  0.00  0.00    +0.000 A 
ATOM      7  C   UNL     1       3.122   3.548  17.891  0.00  0.00    +0.000 A 
ATOM      8  C   UNL     1       2.718   2.212  17.868  0.00  0.00    +0.000 A 
ATOM      9  C   UNL     1       1.751   1.799  18.813  0.00  0.00    +0.000 A 
ATOM     10  C   UNL     1       1.212   2.719  19.754  0.00  0.00    +0.000 A 
ATOM     11  C   UNL     1       1.644   4.060  19.745  0.00  0.00    +0.000 A 
ATOM     12  C   UNL     1       1.192   5.071  20.616  0.00  0.00    +0.000 A 
ATOM     13  C   UNL     1       1.710   6.388  20.497  0.00  0.00    +0.000 A 
ATOM     14  C   UNL     1       2.675   6.705  19.513  0.00  0.00    +0.000 A 
ATOM     15  C   UNL     1       3.100   5.679  18.670  0.00  0.00    +0.000 A 
ATOM     16  C   UNL     1       2.590   4.416  18.802  0.00  0.00    +0.000 A 
ENDROOT
BRANCH   1  17
ATOM     17  C   UNL     1       6.575   4.534  14.285  0.00  0.00    +0.000 C 
BRANCH  17  18
ATOM     18  N   UNL     1       6.095   3.267  13.701  0.00  0.00    +0.000 NA
ATOM     19  H   UNL     1       6.729   2.484  13.990  0.00  0.00    +0.000 HD
BRANCH  18  21
ATOM     20  C   UNL     1       7.061   4.120  11.632  0.00  0.00    +0.000 C 
ATOM     21  C   UNL     1       5.942   3.235  12.228  0.00  0.00    +0.000 C 
BRANCH  21  22
ATOM     22  C   UNL     1       4.560   3.797  11.784  0.00  0.00    +0.000 C 
BRANCH  22  23
ATOM     23  O   UNL     1       3.857   2.875  10.994  0.00  0.00    +0.000 OA
ATOM     24  H   UNL     1       2.928   2.841  11.342  0.00  0.00    +0.000 HD
ENDBRANCH  22  23
ENDBRANCH  21  22
BRANCH  21  25
ATOM     25  C   UNL     1       6.128   1.785  11.703  0.00  0.00    +0.000 C 
BRANCH  25  26
ATOM     26  O   UNL     1       7.418   1.585  11.186  0.00  0.00    +0.000 OA
ATOM     27  H   UNL     1       7.555   0.604  11.112  0.00  0.00    +0.000 HD
ENDBRANCH  25  26
ENDBRANCH  21  25
ENDBRANCH  18  21
ENDBRANCH  17  18
ENDBRANCH   1  17
TORSDOF 7
ENDMDL
MODEL 2
REMARK VINA RESULT:      -8.1      4.956      7.722
REMARK  Name = 
REMARK  8 active torsions:
REMARK  status: ('A' for Active; 'I' for Inactive)
REMARK    1  A    between atoms: C_1  and  C_2
REMARK    2  A    between atoms: C_2  and  C_3
REMARK    3  A    between atoms: C_2  and  C_5
REMARK    4  A    between atoms: C_2  and  N_7
REMARK    5  A    between atoms: C_3  and  O_4
REMARK    6  A    between atoms: C_5  and  O_6
REMARK    7  A    between atoms: N_7  and  C_8
REMARK    8  A    between atoms: C_8  and  C_9
REMARK                            x       y       z     vdW  Elec       q    Type
REMARK                         _______ _______ _______ _____ _____    ______ ____
ROOT
ATOM      1  C   UNL     1       2.517   7.343  19.038  0.00  0.00    +0.000 A 
ATOM      2  C   UNL     1       2.378   8.119  17.858  0.00  0.00    +0.000 A 
ATOM      3  C   UNL     1       1.600   9.289  17.859  0.00  0.00    +0.000 A 
ATOM      4  C   UNL     1       0.976   9.656  19.047  0.00  0.00    +0.000 A 
ATOM      5  C   UNL     1       1.112   8.899  20.203  0.00  0.00    +0.000 A 
ATOM      6  C   UNL     1       1.877   7.746  20.229  0.00  0.00    +0.000 A 
ATOM      7  C   UNL     1       0.335   9.545  21.255  0.00  0.00    +0.000 A 
ATOM      8  C   UNL     1       0.098   9.238  22.596  0.00  0.00    +0.000 A 
ATOM      9  C   UNL     1      -0.731  10.113  23.336  0.00  0.00    +0.000 A 
ATOM     10  C   UNL     1      -1.301  11.264  22.729  0.00  0.00    +0.000 A 
ATOM     11  C   UNL     1      -1.040  11.540  21.371  0.00  0.00    +0.000 A 
ATOM     12  C   UNL     1      -1.541  12.641  20.649  0.00  0.00    +0.000 A 
ATOM     13  C   UNL     1      -1.201  12.799  19.279  0.00  0.00    +0.000 A 
ATOM     14  C   UNL     1      -0.365  11.865  18.623  0.00  0.00    +0.000 A 
ATOM     15  C   UNL     1       0.113  10.789  19.370  0.00  0.00    +0.000 A 
ATOM     16  C   UNL     1      -0.225  10.655  20.690  0.00  0.00    +0.000 A 
ENDROOT
BRANCH   1  17
ATOM     17  C   UNL     1       3.336   6.086  19.034  0.00  0.00    +0.000 C 
BRANCH  17  18
ATOM     18  N   UNL     1       2.994   5.270  20.213  0.00  0.00    +0.000 NA
ATOM     19  H   UNL     1       3.844   5.141  20.812  0.00  0.00    +0.000 HD
BRANCH  18  21
ATOM     20  C   UNL     1       0.911   4.014  20.370  0.00  0.00    +0.000 C 
ATOM     21  C   UNL     1       2.397   3.941  19.946  0.00  0.00    +0.000 C 
BRANCH  21  22
ATOM     22  C   UNL     1       3.103   2.821  20.765  0.00  0.00    +0.000 C 
BRANCH  22  23
ATOM     23  O   UNL     1       2.557   2.701  22.053  0.00  0.00    +0.000 OA
ATOM     24  H   UNL     1       3.223   3.076  22.687  0.00  0.00    +0.000 HD
ENDBRANCH  22  23
ENDBRANCH  21  22
BRANCH  21  25
ATOM     25  C   UNL     1       2.461   3.621  18.428  0.00  0.00    +0.000 C 
BRANCH  25  26
ATOM     26  O   UNL     1       1.178   3.551  17.861  0.00  0.00    +0.000 OA
ATOM     27  H   UNL     1       0.899   4.482  17.654  0.00  0.00    +0.000 HD
ENDBRANCH  25  26
ENDBRANCH  21  25
ENDBRANCH  18  21
ENDBRANCH  17  18
ENDBRANCH   1  17
TORSDOF 7
ENDMDL
MODEL 3
REMARK VINA RESULT:      -8.0      4.760      7.453
REMARK  Name = 
REMARK  8 active torsions:
REMARK  status: ('A' for Active; 'I' for Inactive)
REMARK    1  A    between atoms: C_1  and  C_2
REMARK    2  A    between atoms: C_2  and  C_3
REMARK    3  A    between atoms: C_2  and  C_5
REMARK    4  A    between atoms: C_2  and  N_7
REMARK    5  A    between atoms: C_3  and  O_4
REMARK    6  A    between atoms: C_5  and  O_6
REMARK    7  A    between atoms: N_7  and  C_8
REMARK    8  A    between atoms: C_8  and  C_9
REMARK                            x       y       z     vdW  Elec       q    Type
REMARK                         _______ _______ _______ _____ _____    ______ ____
ROOT
ATOM      1  C   UNL     1       2.505   7.121  19.181  0.00  0.00    +0.000 A 
ATOM      2  C   UNL     1       2.452   7.880  17.983  0.00  0.00    +0.000 A 
ATOM      3  C   UNL     1       1.739   9.090  17.934  0.00  0.00    +0.000 A 
ATOM      4  C   UNL     1       1.093   9.513  19.091  0.00  0.00    +0.000 A 
ATOM      5  C   UNL     1       1.145   8.773  20.264  0.00  0.00    +0.000 A 
ATOM      6  C   UNL     1       1.845   7.582  20.341  0.00  0.00    +0.000 A 
ATOM      7  C   UNL     1       0.366   9.480  21.275  0.00  0.00    +0.000 A 
ATOM      8  C   UNL     1       0.063   9.213  22.611  0.00  0.00    +0.000 A 
ATOM      9  C   UNL     1      -0.743  10.146  23.303  0.00  0.00    +0.000 A 
ATOM     10  C   UNL     1      -1.227  11.314  22.654  0.00  0.00    +0.000 A 
ATOM     11  C   UNL     1      -0.902  11.548  21.303  0.00  0.00    +0.000 A 
ATOM     12  C   UNL     1      -1.316  12.659  20.542  0.00  0.00    +0.000 A 
ATOM     13  C   UNL     1      -0.918  12.771  19.183  0.00  0.00    +0.000 A 
ATOM     14  C   UNL     1      -0.110  11.781  18.577  0.00  0.00    +0.000 A 
ATOM     15  C   UNL     1       0.281  10.697  19.361  0.00  0.00    +0.000 A 
ATOM     16  C   UNL     1      -0.112  10.607  20.669  0.00  0.00    +0.000 A 
ENDROOT
BRANCH   1  17
ATOM     17  C   UNL     1       3.255   5.822  19.231  0.00  0.00    +0.000 C 
BRANCH  17  18
ATOM     18  N   UNL     1       2.470   4.827  19.985  0.00  0.00    +0.000 NA
ATOM     19  H   UNL     1       2.480   5.068  21.004  0.00  0.00    +0.000 HD
BRANCH  18  21
ATOM     20  C   UNL     1       2.705   2.732  21.207  0.00  0.00    +0.000 C 
ATOM     21  C   UNL     1       2.874   3.411  19.828  0.00  0.00    +0.000 C 
BRANCH  21  22
ATOM     22  C   UNL     1       4.359   3.285  19.380  0.00  0.00    +0.000 C 
BRANCH  22  23
ATOM     23  O   UNL     1       4.962   2.132  19.907  0.00  0.00    +0.000 OA
ATOM     24  H   UNL     1       5.287   2.363  20.816  0.00  0.00    +0.000 HD
ENDBRANCH  22  23
ENDBRANCH  21  22
BRANCH  21  25
ATOM     25  C   UNL     1       1.942   2.698  18.810  0.00  0.00    +0.000 C 
BRANCH  25  26
ATOM     26  O   UNL     1       2.595   1.633  18.170  0.00  0.00    +0.000 OA
ATOM     27  H   UNL     1       3.568   1.837  18.183  0.00  0.00    +0.000 HD
ENDBRANCH  25  26
ENDBRANCH  21  25
ENDBRANCH  18  21
ENDBRANCH  17  18
ENDBRANCH   1  17
TORSDOF 7
ENDMDL
MODEL 4
REMARK VINA RESULT:      -8.0      4.645      6.973
REMARK  Name = 
REMARK  8 active torsions:
REMARK  status: ('A' for Active; 'I' for Inactive)
REMARK    1  A    between atoms: C_1  and  C_2
REMARK    2  A    between atoms: C_2  and  C_3
REMARK    3  A    between atoms: C_2  and  C_5
REMARK    4  A    between atoms: C_2  and  N_7
REMARK    5  A    between atoms: C_3  and  O_4
REMARK    6  A    between atoms: C_5  and  O_6
REMARK    7  A    between atoms: N_7  and  C_8
REMARK    8  A    between atoms: C_8  and  C_9
REMARK                            x       y       z     vdW  Elec       q    Type
REMARK                         _______ _______ _______ _____ _____    ______ ____
ROOT
ATOM      1  C   UNL     1       2.445   7.254  19.157  0.00  0.00    +0.000 A 
ATOM      2  C   UNL     1       2.394   8.018  17.962  0.00  0.00    +0.000 A 
ATOM      3  C   UNL     1       1.675   9.225  17.914  0.00  0.00    +0.000 A 
ATOM      4  C   UNL     1       1.023   9.640  19.071  0.00  0.00    +0.000 A 
ATOM      5  C   UNL     1       1.073   8.895  20.241  0.00  0.00    +0.000 A 
ATOM      6  C   UNL     1       1.779   7.707  20.315  0.00  0.00    +0.000 A 
ATOM      7  C   UNL     1       0.288   9.594  21.252  0.00  0.00    +0.000 A 
ATOM      8  C   UNL     1      -0.019   9.320  22.586  0.00  0.00    +0.000 A 
ATOM      9  C   UNL     1      -0.833  10.246  23.278  0.00  0.00    +0.000 A 
ATOM     10  C   UNL     1      -1.320  11.415  22.633  0.00  0.00    +0.000 A 
ATOM     11  C   UNL     1      -0.990  11.656  21.284  0.00  0.00    +0.000 A 
ATOM     12  C   UNL     1      -1.406  12.769  20.526  0.00  0.00    +0.000 A 
ATOM     13  C   UNL     1      -1.003  12.889  19.170  0.00  0.00    +0.000 A 
ATOM     14  C   UNL     1      -0.188  11.905  18.562  0.00  0.00    +0.000 A 
ATOM     15  C   UNL     1       0.205  10.819  19.343  0.00  0.00    +0.000 A 
ATOM     16  C   UNL     1      -0.193  10.722  20.649  0.00  0.00    +0.000 A 
ENDROOT
BRANCH   1  17
ATOM     17  C   UNL     1       3.201   5.958  19.204  0.00  0.00    +0.000 C 
BRANCH  17  18
ATOM     18  N   UNL     1       3.977   5.794  17.960  0.00  0.00    +0.000 NA
ATOM     19  H   UNL     1       3.325   5.749  17.141  0.00  0.00    +0.000 HD
BRANCH  18  21
ATOM     20  C   UNL     1       5.085   4.275  16.410  0.00  0.00    +0.000 C 
ATOM     21  C   UNL     1       4.894   4.632  17.902  0.00  0.00    +0.000 C 
BRANCH  21  22
ATOM     22  C   UNL     1       4.302   3.399  18.647  0.00  0.00    +0.000 C 
BRANCH  22  23
ATOM     23  O   UNL     1       5.234   2.834  19.531  0.00  0.00    +0.000 OA
ATOM     24  H   UNL     1       4.812   2.024  19.921  0.00  0.00    +0.000 HD
ENDBRANCH  22  23
ENDBRANCH  21  22
BRANCH  21  25
ATOM     25  C   UNL     1       6.276   5.011  18.500  0.00  0.00    +0.000 C 
BRANCH  25  26
ATOM     26  O   UNL     1       7.300   4.199  17.987  0.00  0.00    +0.000 OA
ATOM     27  H   UNL     1       6.873   3.365  17.656  0.00  0.00    +0.000 HD
ENDBRANCH  25  26
ENDBRANCH  21  25
ENDBRANCH  18  21
ENDBRANCH  17  18
ENDBRANCH   1  17
TORSDOF 7
ENDMDL
MODEL 5
REMARK VINA RESULT:      -8.0      4.493      6.812
REMARK  Name = 
REMARK  8 active torsions:
REMARK  status: ('A' for Active; 'I' for Inactive)
REMARK    1  A    between atoms: C_1  and  C_2
REMARK    2  A    between atoms: C_2  and  C_3
REMARK    3  A    between atoms: C_2  and  C_5
REMARK    4  A    between atoms: C_2  and  N_7
REMARK    5  A    between atoms: C_3  and  O_4
REMARK    6  A    between atoms: C_5  and  O_6
REMARK    7  A    between atoms: N_7  and  C_8
REMARK    8  A    between atoms: C_8  and  C_9
REMARK                            x       y       z     vdW  Elec       q    Type
REMARK                         _______ _______ _______ _____ _____    ______ ____
ROOT
ATOM      1  C   UNL     1       2.446   7.335  19.088  0.00  0.00    +0.000 A 
ATOM      2  C   UNL     1       2.362   8.115  17.905  0.00  0.00    +0.000 A 
ATOM      3  C   UNL     1       1.623   9.310  17.888  0.00  0.00    +0.000 A 
ATOM      4  C   UNL     1       0.984   9.698  19.061  0.00  0.00    +0.000 A 
ATOM      5  C   UNL     1       1.067   8.937  20.220  0.00  0.00    +0.000 A 
ATOM      6  C   UNL     1       1.792   7.760  20.264  0.00  0.00    +0.000 A 
ATOM      7  C   UNL     1       0.287   9.610  21.253  0.00  0.00    +0.000 A 
ATOM      8  C   UNL     1       0.007   9.312  22.588  0.00  0.00    +0.000 A 
ATOM      9  C   UNL     1      -0.809  10.214  23.308  0.00  0.00    +0.000 A 
ATOM     10  C   UNL     1      -1.325  11.384  22.688  0.00  0.00    +0.000 A 
ATOM     11  C   UNL     1      -1.023  11.650  21.337  0.00  0.00    +0.000 A 
ATOM     12  C   UNL     1      -1.470  12.766  20.603  0.00  0.00    +0.000 A 
ATOM     13  C   UNL     1      -1.092  12.912  19.242  0.00  0.00    +0.000 A 
ATOM     14  C   UNL     1      -0.272  11.950  18.606  0.00  0.00    +0.000 A 
ATOM     15  C   UNL     1       0.152  10.860  19.364  0.00  0.00    +0.000 A 
ATOM     16  C   UNL     1      -0.222  10.738  20.675  0.00  0.00    +0.000 A 
ENDROOT
BRANCH   1  17
ATOM     17  C   UNL     1       3.223   6.052  19.104  0.00  0.00    +0.000 C 
BRANCH  17  18
ATOM     18  N   UNL     1       3.347   5.533  17.729  0.00  0.00    +0.000 NA
ATOM     19  H   UNL     1       2.707   4.713  17.602  0.00  0.00    +0.000 HD
BRANCH  18  21
ATOM     20  C   UNL     1       5.140   6.154  16.199  0.00  0.00    +0.000 C 
ATOM     21  C   UNL     1       4.708   5.146  17.289  0.00  0.00    +0.000 C 
BRANCH  21  22
ATOM     22  C   UNL     1       4.728   3.711  16.687  0.00  0.00    +0.000 C 
BRANCH  22  23
ATOM     23  O   UNL     1       5.947   3.435  16.049  0.00  0.00    +0.000 OA
ATOM     24  H   UNL     1       5.968   3.975  15.215  0.00  0.00    +0.000 HD
ENDBRANCH  22  23
ENDBRANCH  21  22
BRANCH  21  25
ATOM     25  C   UNL     1       5.703   5.247  18.477  0.00  0.00    +0.000 C 
BRANCH  25  26
ATOM     26  O   UNL     1       6.242   3.994  18.806  0.00  0.00    +0.000 OA
ATOM     27  H   UNL     1       6.709   3.655  17.998  0.00  0.00    +0.000 HD
ENDBRANCH  25  26
ENDBRANCH  21  25
ENDBRANCH  18  21
ENDBRANCH  17  18
ENDBRANCH   1  17
TORSDOF 7
ENDMDL
MODEL 6
REMARK VINA RESULT:      -7.9      5.096      7.673
REMARK  Name = 
REMARK  8 active torsions:
REMARK  status: ('A' for Active; 'I' for Inactive)
REMARK    1  A    between atoms: C_1  and  C_2
REMARK    2  A    between atoms: C_2  and  C_3
REMARK    3  A    between atoms: C_2  and  C_5
REMARK    4  A    between atoms: C_2  and  N_7
REMARK    5  A    between atoms: C_3  and  O_4
REMARK    6  A    between atoms: C_5  and  O_6
REMARK    7  A    between atoms: N_7  and  C_8
REMARK    8  A    between atoms: C_8  and  C_9
REMARK                            x       y       z     vdW  Elec       q    Type
REMARK                         _______ _______ _______ _____ _____    ______ ____
ROOT
ATOM      1  C   UNL     1       2.586   7.175  19.104  0.00  0.00    +0.000 A 
ATOM      2  C   UNL     1       2.447   7.919  17.904  0.00  0.00    +0.000 A 
ATOM      3  C   UNL     1       1.668   9.088  17.873  0.00  0.00    +0.000 A 
ATOM      4  C   UNL     1       1.044   9.486  19.051  0.00  0.00    +0.000 A 
ATOM      5  C   UNL     1       1.181   8.761  20.227  0.00  0.00    +0.000 A 
ATOM      6  C   UNL     1       1.947   7.610  20.285  0.00  0.00    +0.000 A 
ATOM      7  C   UNL     1       0.404   9.435  21.262  0.00  0.00    +0.000 A 
ATOM      8  C   UNL     1       0.167   9.164  22.611  0.00  0.00    +0.000 A 
ATOM      9  C   UNL     1      -0.661  10.059  23.326  0.00  0.00    +0.000 A 
ATOM     10  C   UNL     1      -1.233  11.193  22.688  0.00  0.00    +0.000 A 
ATOM     11  C   UNL     1      -0.972  11.431  21.324  0.00  0.00    +0.000 A 
ATOM     12  C   UNL     1      -1.474  12.512  20.572  0.00  0.00    +0.000 A 
ATOM     13  C   UNL     1      -1.134  12.633  19.198  0.00  0.00    +0.000 A 
ATOM     14  C   UNL     1      -0.298  11.682  18.568  0.00  0.00    +0.000 A 
ATOM     15  C   UNL     1       0.181  10.627  19.344  0.00  0.00    +0.000 A 
ATOM     16  C   UNL     1      -0.157  10.529  20.667  0.00  0.00    +0.000 A 
ENDROOT
BRANCH   1  17
ATOM     17  C   UNL     1       3.407   5.919  19.134  0.00  0.00    +0.000 C 
BRANCH  17  18
ATOM     18  N   UNL     1       2.943   5.053  20.234  0.00  0.00    +0.000 NA
ATOM     19  H   UNL     1       3.608   5.120  21.041  0.00  0.00    +0.000 HD
BRANCH  18  21
ATOM     20  C   UNL     1       3.733   3.265  18.778  0.00  0.00    +0.000 C 
ATOM     21  C   UNL     1       2.739   3.622  19.907  0.00  0.00    +0.000 C 
BRANCH  21  22
ATOM     22  C   UNL     1       1.289   3.350  19.410  0.00  0.00    +0.000 C 
BRANCH  22  23
ATOM     23  O   UNL     1       0.334   3.801  20.333  0.00  0.00    +0.000 OA
ATOM     24  H   UNL     1      -0.284   3.043  20.507  0.00  0.00    +0.000 HD
ENDBRANCH  22  23
ENDBRANCH  21  22
BRANCH  21  25
ATOM     25  C   UNL     1       3.060   2.740  21.144  0.00  0.00    +0.000 C 
BRANCH  25  26
ATOM     26  O   UNL     1       2.329   3.146  22.271  0.00  0.00    +0.000 OA
ATOM     27  H   UNL     1       2.936   3.075  23.054  0.00  0.00    +0.000 HD
ENDBRANCH  25  26
ENDBRANCH  21  25
ENDBRANCH  18  21
ENDBRANCH  17  18
ENDBRANCH   1  17
TORSDOF 7
ENDMDL
MODEL 7
REMARK VINA RESULT:      -7.9      4.555      6.996
REMARK  Name = 
REMARK  8 active torsions:
REMARK  status: ('A' for Active; 'I' for Inactive)
REMARK    1  A    between atoms: C_1  and  C_2
REMARK    2  A    between atoms: C_2  and  C_3
REMARK    3  A    between atoms: C_2  and  C_5
REMARK    4  A    between atoms: C_2  and  N_7
REMARK    5  A    between atoms: C_3  and  O_4
REMARK    6  A    between atoms: C_5  and  O_6
REMARK    7  A    between atoms: N_7  and  C_8
REMARK    8  A    between atoms: C_8  and  C_9
REMARK                            x       y       z     vdW  Elec       q    Type
REMARK                         _______ _______ _______ _____ _____    ______ ____
ROOT
ATOM      1  C   UNL     1       2.406   6.729  19.549  0.00  0.00    +0.000 A 
ATOM      2  C   UNL     1       2.538   7.436  18.326  0.00  0.00    +0.000 A 
ATOM      3  C   UNL     1       1.969   8.712  18.172  0.00  0.00    +0.000 A 
ATOM      4  C   UNL     1       1.276   9.250  19.252  0.00  0.00    +0.000 A 
ATOM      5  C   UNL     1       1.147   8.560  20.450  0.00  0.00    +0.000 A 
ATOM      6  C   UNL     1       1.705   7.307  20.629  0.00  0.00    +0.000 A 
ATOM      7  C   UNL     1       0.368   9.389  21.362  0.00  0.00    +0.000 A 
ATOM      8  C   UNL     1      -0.075   9.214  22.675  0.00  0.00    +0.000 A 
ATOM      9  C   UNL     1      -0.831  10.256  23.260  0.00  0.00    +0.000 A 
ATOM     10  C   UNL     1      -1.128  11.440  22.531  0.00  0.00    +0.000 A 
ATOM     11  C   UNL     1      -0.665  11.579  21.207  0.00  0.00    +0.000 A 
ATOM     12  C   UNL     1      -0.889  12.694  20.375  0.00  0.00    +0.000 A 
ATOM     13  C   UNL     1      -0.366  12.704  19.054  0.00  0.00    +0.000 A 
ATOM     14  C   UNL     1       0.377  11.609  18.556  0.00  0.00    +0.000 A 
ATOM     15  C   UNL     1       0.579  10.524  19.408  0.00  0.00    +0.000 A 
ATOM     16  C   UNL     1       0.069  10.534  20.678  0.00  0.00    +0.000 A 
ENDROOT
BRANCH   1  17
ATOM     17  C   UNL     1       3.003   5.361  19.710  0.00  0.00    +0.000 C 
BRANCH  17  18
ATOM     18  N   UNL     1       2.730   4.559  18.503  0.00  0.00    +0.000 NA
ATOM     19  H   UNL     1       1.754   4.180  18.544  0.00  0.00    +0.000 HD
BRANCH  18  21
ATOM     20  C   UNL     1       4.521   3.850  17.010  0.00  0.00    +0.000 C 
ATOM     21  C   UNL     1       3.662   3.440  18.228  0.00  0.00    +0.000 C 
BRANCH  21  22
ATOM     22  C   UNL     1       2.896   2.128  17.890  0.00  0.00    +0.000 C 
BRANCH  22  23
ATOM     23  O   UNL     1       2.157   1.663  18.989  0.00  0.00    +0.000 OA
ATOM     24  H   UNL     1       2.809   1.425  19.699  0.00  0.00    +0.000 HD
ENDBRANCH  22  23
ENDBRANCH  21  22
BRANCH  21  25
ATOM     25  C   UNL     1       4.603   3.218  19.444  0.00  0.00    +0.000 C 
BRANCH  25  26
ATOM     26  O   UNL     1       4.994   1.874  19.554  0.00  0.00    +0.000 OA
ATOM     27  H   UNL     1       4.442   1.468  20.274  0.00  0.00    +0.000 HD
ENDBRANCH  25  26
ENDBRANCH  21  25
ENDBRANCH  18  21
ENDBRANCH  17  18
ENDBRANCH   1  17
TORSDOF 7
ENDMDL
MODEL 8
REMARK VINA RESULT:      -7.9      4.583      7.069
REMARK  Name = 
REMARK  8 active torsions:
REMARK  status: ('A' for Active; 'I' for Inactive)
REMARK    1  A    between atoms: C_1  and  C_2
REMARK    2  A    between atoms: C_2  and  C_3
REMARK    3  A    between atoms: C_2  and  C_5
REMARK    4  A    between atoms: C_2  and  N_7
REMARK    5  A    between atoms: C_3  and  O_4
REMARK    6  A    between atoms: C_5  and  O_6
REMARK    7  A    between atoms: N_7  and  C_8
REMARK    8  A    between atoms: C_8  and  C_9
REMARK                            x       y       z     vdW  Elec       q    Type
REMARK                         _______ _______ _______ _____ _____    ______ ____
ROOT
ATOM      1  C   UNL     1       2.526   6.930  19.481  0.00  0.00    +0.000 A 
ATOM      2  C   UNL     1       2.510   7.587  18.222  0.00  0.00    +0.000 A 
ATOM      3  C   UNL     1       1.800   8.788  18.051  0.00  0.00    +0.000 A 
ATOM      4  C   UNL     1       1.120   9.305  19.149  0.00  0.00    +0.000 A 
ATOM      5  C   UNL     1       1.135   8.665  20.381  0.00  0.00    +0.000 A 
ATOM      6  C   UNL     1       1.832   7.485  20.577  0.00  0.00    +0.000 A 
ATOM      7  C   UNL     1       0.328   9.453  21.305  0.00  0.00    +0.000 A 
ATOM      8  C   UNL     1      -0.016   9.298  22.649  0.00  0.00    +0.000 A 
ATOM      9  C   UNL     1      -0.842  10.284  23.236  0.00  0.00    +0.000 A 
ATOM     10  C   UNL     1      -1.305  11.394  22.478  0.00  0.00    +0.000 A 
ATOM     11  C   UNL     1      -0.938  11.514  21.122  0.00  0.00    +0.000 A 
ATOM     12  C   UNL     1      -1.328  12.558  20.260  0.00  0.00    +0.000 A 
ATOM     13  C   UNL     1      -0.888  12.557  18.909  0.00  0.00    +0.000 A 
ATOM     14  C   UNL     1      -0.064  11.521  18.412  0.00  0.00    +0.000 A 
ATOM     15  C   UNL     1       0.302  10.506  19.294  0.00  0.00    +0.000 A 
ATOM     16  C   UNL     1      -0.131  10.526  20.593  0.00  0.00    +0.000 A 
ENDROOT
BRANCH   1  17
ATOM     17  C   UNL     1       3.272   5.641  19.661  0.00  0.00    +0.000 C 
BRANCH  17  18
ATOM     18  N   UNL     1       2.788   4.650  18.682  0.00  0.00    +0.000 NA
ATOM     19  H   UNL     1       1.827   4.331  18.949  0.00  0.00    +0.000 HD
BRANCH  18  21
ATOM     20  C   UNL     1       2.799   2.423  17.693  0.00  0.00    +0.000 C 
ATOM     21  C   UNL     1       3.643   3.458  18.472  0.00  0.00    +0.000 C 
BRANCH  21  22
ATOM     22  C   UNL     1       4.093   2.831  19.823  0.00  0.00    +0.000 C 
BRANCH  22  23
ATOM     23  O   UNL     1       4.949   1.736  19.625  0.00  0.00    +0.000 OA
ATOM     24  H   UNL     1       4.588   1.219  18.858  0.00  0.00    +0.000 HD
ENDBRANCH  22  23
ENDBRANCH  21  22
BRANCH  21  25
ATOM     25  C   UNL     1       4.881   3.833  17.612  0.00  0.00    +0.000 C 
BRANCH  25  26
ATOM     26  O   UNL     1       6.045   3.916  18.392  0.00  0.00    +0.000 OA
ATOM     27  H   UNL     1       6.740   3.370  17.939  0.00  0.00    +0.000 HD
ENDBRANCH  25  26
ENDBRANCH  21  25
ENDBRANCH  18  21
ENDBRANCH  17  18
ENDBRANCH   1  17
TORSDOF 7
ENDMDL
MODEL 9
REMARK VINA RESULT:      -7.9      4.883      7.507
REMARK  Name = 
REMARK  8 active torsions:
REMARK  status: ('A' for Active; 'I' for Inactive)
REMARK    1  A    between atoms: C_1  and  C_2
REMARK    2  A    between atoms: C_2  and  C_3
REMARK    3  A    between atoms: C_2  and  C_5
REMARK    4  A    between atoms: C_2  and  N_7
REMARK    5  A    between atoms: C_3  and  O_4
REMARK    6  A    between atoms: C_5  and  O_6
REMARK    7  A    between atoms: N_7  and  C_8
REMARK    8  A    between atoms: C_8  and  C_9
REMARK                            x       y       z     vdW  Elec       q    Type
REMARK                         _______ _______ _______ _____ _____    ______ ____
ROOT
ATOM      1  C   UNL     1       2.572   7.329  18.994  0.00  0.00    +0.000 A 
ATOM      2  C   UNL     1       2.440   8.114  17.819  0.00  0.00    +0.000 A 
ATOM      3  C   UNL     1       1.660   9.282  17.822  0.00  0.00    +0.000 A 
ATOM      4  C   UNL     1       1.027   9.638  19.009  0.00  0.00    +0.000 A 
ATOM      5  C   UNL     1       1.155   8.873  20.160  0.00  0.00    +0.000 A 
ATOM      6  C   UNL     1       1.923   7.722  20.183  0.00  0.00    +0.000 A 
ATOM      7  C   UNL     1       0.370   9.509  21.211  0.00  0.00    +0.000 A 
ATOM      8  C   UNL     1       0.123   9.192  22.548  0.00  0.00    +0.000 A 
ATOM      9  C   UNL     1      -0.713  10.059  23.288  0.00  0.00    +0.000 A 
ATOM     10  C   UNL     1      -1.281  11.214  22.685  0.00  0.00    +0.000 A 
ATOM     11  C   UNL     1      -1.010  11.500  21.332  0.00  0.00    +0.000 A 
ATOM     12  C   UNL     1      -1.508  12.606  20.614  0.00  0.00    +0.000 A 
ATOM     13  C   UNL     1      -1.158  12.775  19.248  0.00  0.00    +0.000 A 
ATOM     14  C   UNL     1      -0.315  11.848  18.592  0.00  0.00    +0.000 A 
ATOM     15  C   UNL     1       0.159  10.767  19.334  0.00  0.00    +0.000 A 
ATOM     16  C   UNL     1      -0.189  10.623  20.650  0.00  0.00    +0.000 A 
ENDROOT
BRANCH   1  17
ATOM     17  C   UNL     1       3.394   6.074  18.986  0.00  0.00    +0.000 C 
BRANCH  17  18
ATOM     18  N   UNL     1       3.048   5.250  20.160  0.00  0.00    +0.000 NA
ATOM     19  H   UNL     1       3.788   5.355  20.894  0.00  0.00    +0.000 HD
BRANCH  18  21
ATOM     20  C   UNL     1       1.978   3.688  18.625  0.00  0.00    +0.000 C 
ATOM     21  C   UNL     1       2.827   3.806  19.911  0.00  0.00    +0.000 C 
BRANCH  21  22
ATOM     22  C   UNL     1       2.061   3.134  21.088  0.00  0.00    +0.000 C 
BRANCH  22  23
ATOM     23  O   UNL     1       0.682   3.068  20.835  0.00  0.00    +0.000 OA
ATOM     24  H   UNL     1       0.430   3.909  20.371  0.00  0.00    +0.000 HD
ENDBRANCH  22  23
ENDBRANCH  21  22
BRANCH  21  25
ATOM     25  C   UNL     1       4.185   3.091  19.673  0.00  0.00    +0.000 C 
BRANCH  25  26
ATOM     26  O   UNL     1       4.099   2.156  18.629  0.00  0.00    +0.000 OA
ATOM     27  H   UNL     1       3.134   2.024  18.433  0.00  0.00    +0.000 HD
ENDBRANCH  25  26
ENDBRANCH  21  25
ENDBRANCH  18  21
ENDBRANCH  17  18
ENDBRANCH   1  17
TORSDOF 7
ENDMDL
