MODEL 1
REMARK VINA RESULT:      -6.9      0.000      0.000
REMARK  Name = 
REMARK  6 active torsions:
REMARK  status: ('A' for Active; 'I' for Inactive)
REMARK    1  A    between atoms: C_1  and  C_2
REMARK    2  A    between atoms: C_4  and  C_5
REMARK    3  A    between atoms: C_5  and  N_6
REMARK    4  A    between atoms: N_6  and  C_7
REMARK    5  A    between atoms: C_7  and  C_8
REMARK    6  A    between atoms: C_8  and  O_9
REMARK                            x       y       z     vdW  Elec       q    Type
REMARK                         _______ _______ _______ _____ _____    ______ ____
ROOT
ATOM      1  N   UNL     1       3.691   5.568  19.665  0.00  0.00    +0.000 NA
ATOM      2  H   UNL     1       3.361   6.092  20.479  0.00  0.00    +0.000 HD
ENDROOT
BRANCH   1   3
ATOM      3  C   UNL     1       3.098   4.195  19.707  0.00  0.00    +0.000 C 
ATOM      4  C   UNL     1       2.245   3.884  18.457  0.00  0.00    +0.000 C 
ATOM      5  C   UNL     1       1.380   2.643  18.648  0.00  0.00    +0.000 C 
ATOM      6  O   UNL     1       0.547   2.782  19.795  0.00  0.00    +0.000 OA
ATOM      7  C   UNL     1       1.299   2.921  20.998  0.00  0.00    +0.000 C 
ATOM      8  C   UNL     1       2.168   4.173  20.948  0.00  0.00    +0.000 C 
BRANCH   3   9
ATOM      9  C   UNL     1       4.230   3.134  19.862  0.00  0.00    +0.000 C 
BRANCH   9  10
ATOM     10  O   UNL     1       5.341   3.435  19.019  0.00  0.00    +0.000 OA
ATOM     11  H   UNL     1       5.376   4.410  18.980  0.00  0.00    +0.000 HD
ENDBRANCH   9  10
ENDBRANCH   3   9
ENDBRANCH   1   3
BRANCH   1  12
ATOM     12  C   UNL     1       3.384   6.357  18.474  0.00  0.00    +0.000 C 
BRANCH  12  16
ATOM     13  C   UNL     1       0.568   8.871  21.817  0.00  0.00    +0.000 C 
ATOM     14  C   UNL     1       1.110   8.760  20.418  0.00  0.00    +0.000 A 
ATOM     15  C   UNL     1       1.980   7.701  20.099  0.00  0.00    +0.000 A 
ATOM     16  C   UNL     1       2.505   7.543  18.806  0.00  0.00    +0.000 A 
ATOM     17  C   UNL     1       2.152   8.473  17.819  0.00  0.00    +0.000 A 
ATOM     18  C   UNL     1       1.295   9.533  18.120  0.00  0.00    +0.000 A 
ATOM     19  C   UNL     1       0.774   9.675  19.409  0.00  0.00    +0.000 A 
ATOM     20 BR   UNL     1      -0.399  11.134  19.725  0.00  0.00    +0.000 Br
ENDBRANCH  12  16
ENDBRANCH   1  12
TORSDOF 5
ENDMDL
MODEL 2
REMARK VINA RESULT:      -6.9      1.348      1.885
REMARK  Name = 
REMARK  6 active torsions:
REMARK  status: ('A' for Active; 'I' for Inactive)
REMARK    1  A    between atoms: C_1  and  C_2
REMARK    2  A    between atoms: C_4  and  C_5
REMARK    3  A    between atoms: C_5  and  N_6
REMARK    4  A    between atoms: N_6  and  C_7
REMARK    5  A    between atoms: C_7  and  C_8
REMARK    6  A    between atoms: C_8  and  O_9
REMARK                            x       y       z     vdW  Elec       q    Type
REMARK                         _______ _______ _______ _____ _____    ______ ____
ROOT
ATOM      1  N   UNL     1       2.075   4.785  18.328  0.00  0.00    +0.000 NA
ATOM      2  H   UNL     1       2.289   4.454  17.386  0.00  0.00    +0.000 HD
ENDROOT
BRANCH   1   3
ATOM      3  C   UNL     1       2.014   3.606  19.248  0.00  0.00    +0.000 C 
ATOM      4  C   UNL     1       1.151   3.880  20.500  0.00  0.00    +0.000 C 
ATOM      5  C   UNL     1       1.359   2.824  21.581  0.00  0.00    +0.000 C 
ATOM      6  O   UNL     1       2.735   2.734  21.936  0.00  0.00    +0.000 OA
ATOM      7  C   UNL     1       3.555   2.334  20.840  0.00  0.00    +0.000 C 
ATOM      8  C   UNL     1       3.473   3.353  19.708  0.00  0.00    +0.000 C 
BRANCH   3   9
ATOM      9  C   UNL     1       1.467   2.363  18.480  0.00  0.00    +0.000 C 
BRANCH   9  10
ATOM     10  O   UNL     1       2.470   1.790  17.643  0.00  0.00    +0.000 OA
ATOM     11  H   UNL     1       1.998   1.143  17.084  0.00  0.00    +0.000 HD
ENDBRANCH   9  10
ENDBRANCH   3   9
ENDBRANCH   1   3
BRANCH   1  12
ATOM     12  C   UNL     1       3.057   5.810  18.675  0.00  0.00    +0.000 C 
BRANCH  12  16
ATOM     13  C   UNL     1       0.778   8.991  21.856  0.00  0.00    +0.000 C 
ATOM     14  C   UNL     1       1.260   8.692  20.463  0.00  0.00    +0.000 A 
ATOM     15  C   UNL     1       1.934   7.482  20.213  0.00  0.00    +0.000 A 
ATOM     16  C   UNL     1       2.395   7.148  18.929  0.00  0.00    +0.000 A 
ATOM     17  C   UNL     1       2.178   8.052  17.881  0.00  0.00    +0.000 A 
ATOM     18  C   UNL     1       1.517   9.259  18.112  0.00  0.00    +0.000 A 
ATOM     19  C   UNL     1       1.057   9.577  19.394  0.00  0.00    +0.000 A 
ATOM     20 BR   UNL     1       0.150  11.230  19.615  0.00  0.00    +0.000 Br
ENDBRANCH  12  16
ENDBRANCH   1  12
TORSDOF 5
ENDMDL
MODEL 3
REMARK VINA RESULT:      -6.7      2.297      3.814
REMARK  Name = 
REMARK  6 active torsions:
REMARK  status: ('A' for Active; 'I' for Inactive)
REMARK    1  A    between atoms: C_1  and  C_2
REMARK    2  A    between atoms: C_4  and  C_5
REMARK    3  A    between atoms: C_5  and  N_6
REMARK    4  A    between atoms: N_6  and  C_7
REMARK    5  A    between atoms: C_7  and  C_8
REMARK    6  A    between atoms: C_8  and  O_9
REMARK                            x       y       z     vdW  Elec       q    Type
REMARK                         _______ _______ _______ _____ _____    ______ ____
ROOT
ATOM      1  N   UNL     1       3.645   5.589  17.611  0.00  0.00    +0.000 NA
ATOM      2  H   UNL     1       3.374   6.387  17.032  0.00  0.00    +0.000 HD
ENDROOT
BRANCH   1   3
ATOM      3  C   UNL     1       5.139   5.506  17.641  0.00  0.00    +0.000 C 
ATOM      4  C   UNL     1       5.810   6.875  17.388  0.00  0.00    +0.000 C 
ATOM      5  C   UNL     1       7.298   6.736  17.086  0.00  0.00    +0.000 C 
ATOM      6  O   UNL     1       7.506   5.868  15.976  0.00  0.00    +0.000 OA
ATOM      7  C   UNL     1       7.035   4.546  16.224  0.00  0.00    +0.000 C 
ATOM      8  C   UNL     1       5.533   4.550  16.485  0.00  0.00    +0.000 C 
BRANCH   3   9
ATOM      9  C   UNL     1       5.609   4.922  19.008  0.00  0.00    +0.000 C 
BRANCH   9  10
ATOM     10  O   UNL     1       5.618   3.496  18.986  0.00  0.00    +0.000 OA
ATOM     11  H   UNL     1       4.801   3.227  19.447  0.00  0.00    +0.000 HD
ENDBRANCH   9  10
ENDBRANCH   3   9
ENDBRANCH   1   3
BRANCH   1  12
ATOM     12  C   UNL     1       2.990   5.737  18.909  0.00  0.00    +0.000 C 
BRANCH  12  16
ATOM     13  C   UNL     1       0.622   9.133  21.787  0.00  0.00    +0.000 C 
ATOM     14  C   UNL     1       1.182   8.754  20.443  0.00  0.00    +0.000 A 
ATOM     15  C   UNL     1       1.829   7.514  20.293  0.00  0.00    +0.000 A 
ATOM     16  C   UNL     1       2.358   7.104  19.058  0.00  0.00    +0.000 A 
ATOM     17  C   UNL     1       2.240   7.964  17.958  0.00  0.00    +0.000 A 
ATOM     18  C   UNL     1       1.605   9.200  18.091  0.00  0.00    +0.000 A 
ATOM     19  C   UNL     1       1.076   9.593  19.324  0.00  0.00    +0.000 A 
ATOM     20 BR   UNL     1       0.214  11.282  19.410  0.00  0.00    +0.000 Br
ENDBRANCH  12  16
ENDBRANCH   1  12
TORSDOF 5
ENDMDL
MODEL 4
REMARK VINA RESULT:      -6.5      1.183      1.947
REMARK  Name = 
REMARK  6 active torsions:
REMARK  status: ('A' for Active; 'I' for Inactive)
REMARK    1  A    between atoms: C_1  and  C_2
REMARK    2  A    between atoms: C_4  and  C_5
REMARK    3  A    between atoms: C_5  and  N_6
REMARK    4  A    between atoms: N_6  and  C_7
REMARK    5  A    between atoms: C_7  and  C_8
REMARK    6  A    between atoms: C_8  and  O_9
REMARK                            x       y       z     vdW  Elec       q    Type
REMARK                         _______ _______ _______ _____ _____    ______ ____
ROOT
ATOM      1  N   UNL     1       2.893   5.347  20.272  0.00  0.00    +0.000 NA
ATOM      2  H   UNL     1       2.051   5.717  20.718  0.00  0.00    +0.000 HD
ENDROOT
BRANCH   1   3
ATOM      3  C   UNL     1       2.666   3.905  19.944  0.00  0.00    +0.000 C 
ATOM      4  C   UNL     1       3.988   3.116  19.811  0.00  0.00    +0.000 C 
ATOM      5  C   UNL     1       3.780   1.755  19.156  0.00  0.00    +0.000 C 
ATOM      6  O   UNL     1       3.159   1.900  17.883  0.00  0.00    +0.000 OA
ATOM      7  C   UNL     1       1.864   2.489  17.974  0.00  0.00    +0.000 C 
ATOM      8  C   UNL     1       1.952   3.892  18.567  0.00  0.00    +0.000 C 
BRANCH   3   9
ATOM      9  C   UNL     1       1.757   3.250  21.030  0.00  0.00    +0.000 C 
BRANCH   9  10
ATOM     10  O   UNL     1       2.501   2.936  22.206  0.00  0.00    +0.000 OA
ATOM     11  H   UNL     1       3.268   3.540  22.193  0.00  0.00    +0.000 HD
ENDBRANCH   9  10
ENDBRANCH   3   9
ENDBRANCH   1   3
BRANCH   1  12
ATOM     12  C   UNL     1       3.216   6.213  19.141  0.00  0.00    +0.000 C 
BRANCH  12  16
ATOM     13  C   UNL     1       0.218   9.401  21.647  0.00  0.00    +0.000 C 
ATOM     14  C   UNL     1       0.907   9.024  20.363  0.00  0.00    +0.000 A 
ATOM     15  C   UNL     1       1.731   7.885  20.335  0.00  0.00    +0.000 A 
ATOM     16  C   UNL     1       2.388   7.480  19.160  0.00  0.00    +0.000 A 
ATOM     17  C   UNL     1       2.216   8.243  17.998  0.00  0.00    +0.000 A 
ATOM     18  C   UNL     1       1.406   9.380  18.010  0.00  0.00    +0.000 A 
ATOM     19  C   UNL     1       0.752   9.767  19.184  0.00  0.00    +0.000 A 
ATOM     20 BR   UNL     1      -0.345  11.315  19.106  0.00  0.00    +0.000 Br
ENDBRANCH  12  16
ENDBRANCH   1  12
TORSDOF 5
ENDMDL
MODEL 5
REMARK VINA RESULT:      -6.5      3.729      4.865
REMARK  Name = 
REMARK  6 active torsions:
REMARK  status: ('A' for Active; 'I' for Inactive)
REMARK    1  A    between atoms: C_1  and  C_2
REMARK    2  A    between atoms: C_4  and  C_5
REMARK    3  A    between atoms: C_5  and  N_6
REMARK    4  A    between atoms: N_6  and  C_7
REMARK    5  A    between atoms: C_7  and  C_8
REMARK    6  A    between atoms: C_8  and  O_9
REMARK                            x       y       z     vdW  Elec       q    Type
REMARK                         _______ _______ _______ _____ _____    ______ ____
ROOT
ATOM      1  N   UNL     1       4.168   2.783  18.418  0.00  0.00    +0.000 NA
ATOM      2  H   UNL     1       5.011   2.959  18.969  0.00  0.00    +0.000 HD
ENDROOT
BRANCH   1   3
ATOM      3  C   UNL     1       2.976   3.201  19.221  0.00  0.00    +0.000 C 
ATOM      4  C   UNL     1       3.145   4.608  19.836  0.00  0.00    +0.000 C 
ATOM      5  C   UNL     1       2.102   4.893  20.911  0.00  0.00    +0.000 C 
ATOM      6  O   UNL     1       2.145   3.897  21.929  0.00  0.00    +0.000 OA
ATOM      7  C   UNL     1       1.845   2.596  21.430  0.00  0.00    +0.000 C 
ATOM      8  C   UNL     1       2.866   2.174  20.378  0.00  0.00    +0.000 C 
BRANCH   3   9
ATOM      9  C   UNL     1       1.696   3.153  18.333  0.00  0.00    +0.000 C 
BRANCH   9  10
ATOM     10  O   UNL     1       1.290   1.809  18.081  0.00  0.00    +0.000 OA
ATOM     11  H   UNL     1       0.937   1.484  18.931  0.00  0.00    +0.000 HD
ENDBRANCH   9  10
ENDBRANCH   3   9
ENDBRANCH   1   3
BRANCH   1  12
ATOM     12  C   UNL     1       4.331   3.452  17.129  0.00  0.00    +0.000 C 
BRANCH  12  16
ATOM     13  C   UNL     1       8.201   5.773  19.380  0.00  0.00    +0.000 C 
ATOM     14  C   UNL     1       7.107   5.805  18.348  0.00  0.00    +0.000 A 
ATOM     15  C   UNL     1       6.286   4.675  18.181  0.00  0.00    +0.000 A 
ATOM     16  C   UNL     1       5.242   4.656  17.241  0.00  0.00    +0.000 A 
ATOM     17  C   UNL     1       5.028   5.793  16.451  0.00  0.00    +0.000 A 
ATOM     18  C   UNL     1       5.837   6.921  16.600  0.00  0.00    +0.000 A 
ATOM     19  C   UNL     1       6.868   6.930  17.544  0.00  0.00    +0.000 A 
ATOM     20 BR   UNL     1       7.907   8.512  17.693  0.00  0.00    +0.000 Br
ENDBRANCH  12  16
ENDBRANCH   1  12
TORSDOF 5
ENDMDL
MODEL 6
REMARK VINA RESULT:      -6.4      3.676      4.758
REMARK  Name = 
REMARK  6 active torsions:
REMARK  status: ('A' for Active; 'I' for Inactive)
REMARK    1  A    between atoms: C_1  and  C_2
REMARK    2  A    between atoms: C_4  and  C_5
REMARK    3  A    between atoms: C_5  and  N_6
REMARK    4  A    between atoms: N_6  and  C_7
REMARK    5  A    between atoms: C_7  and  C_8
REMARK    6  A    between atoms: C_8  and  O_9
REMARK                            x       y       z     vdW  Elec       q    Type
REMARK                         _______ _______ _______ _____ _____    ______ ____
ROOT
ATOM      1  N   UNL     1       3.146   3.791  17.108  0.00  0.00    +0.000 NA
ATOM      2  H   UNL     1       2.557   3.275  16.451  0.00  0.00    +0.000 HD
ENDROOT
BRANCH   1   3
ATOM      3  C   UNL     1       2.721   3.450  18.502  0.00  0.00    +0.000 C 
ATOM      4  C   UNL     1       1.235   3.035  18.579  0.00  0.00    +0.000 C 
ATOM      5  C   UNL     1       0.719   3.016  20.014  0.00  0.00    +0.000 C 
ATOM      6  O   UNL     1       0.913   4.284  20.634  0.00  0.00    +0.000 OA
ATOM      7  C   UNL     1       2.291   4.641  20.721  0.00  0.00    +0.000 C 
ATOM      8  C   UNL     1       2.907   4.749  19.330  0.00  0.00    +0.000 C 
BRANCH   3   9
ATOM      9  C   UNL     1       3.626   2.314  19.069  0.00  0.00    +0.000 C 
BRANCH   9  10
ATOM     10  O   UNL     1       3.241   1.041  18.555  0.00  0.00    +0.000 OA
ATOM     11  H   UNL     1       3.925   0.813  17.896  0.00  0.00    +0.000 HD
ENDBRANCH   9  10
ENDBRANCH   3   9
ENDBRANCH   1   3
BRANCH   1  12
ATOM     12  C   UNL     1       4.540   3.501  16.780  0.00  0.00    +0.000 C 
BRANCH  12  16
ATOM     13  C   UNL     1       8.171   5.787  19.430  0.00  0.00    +0.000 C 
ATOM     14  C   UNL     1       7.172   5.840  18.306  0.00  0.00    +0.000 A 
ATOM     15  C   UNL     1       6.381   4.709  18.036  0.00  0.00    +0.000 A 
ATOM     16  C   UNL     1       5.425   4.709  17.006  0.00  0.00    +0.000 A 
ATOM     17  C   UNL     1       5.270   5.866  16.232  0.00  0.00    +0.000 A 
ATOM     18  C   UNL     1       6.051   6.995  16.484  0.00  0.00    +0.000 A 
ATOM     19  C   UNL     1       6.994   6.985  17.516  0.00  0.00    +0.000 A 
ATOM     20 BR   UNL     1       7.999   8.570  17.800  0.00  0.00    +0.000 Br
ENDBRANCH  12  16
ENDBRANCH   1  12
TORSDOF 5
ENDMDL
MODEL 7
REMARK VINA RESULT:      -6.4      1.092      2.362
REMARK  Name = 
REMARK  6 active torsions:
REMARK  status: ('A' for Active; 'I' for Inactive)
REMARK    1  A    between atoms: C_1  and  C_2
REMARK    2  A    between atoms: C_4  and  C_5
REMARK    3  A    between atoms: C_5  and  N_6
REMARK    4  A    between atoms: N_6  and  C_7
REMARK    5  A    between atoms: C_7  and  C_8
REMARK    6  A    between atoms: C_8  and  O_9
REMARK                            x       y       z     vdW  Elec       q    Type
REMARK                         _______ _______ _______ _____ _____    ______ ____
ROOT
ATOM      1  N   UNL     1       2.089   5.011  17.915  0.00  0.00    +0.000 NA
ATOM      2  H   UNL     1       2.108   4.808  16.914  0.00  0.00    +0.000 HD
ENDROOT
BRANCH   1   3
ATOM      3  C   UNL     1       2.292   3.733  18.667  0.00  0.00    +0.000 C 
ATOM      4  C   UNL     1       3.186   3.919  19.914  0.00  0.00    +0.000 C 
ATOM      5  C   UNL     1       3.666   2.586  20.479  0.00  0.00    +0.000 C 
ATOM      6  O   UNL     1       4.354   1.837  19.482  0.00  0.00    +0.000 OA
ATOM      7  C   UNL     1       3.519   1.510  18.374  0.00  0.00    +0.000 C 
ATOM      8  C   UNL     1       3.020   2.777  17.685  0.00  0.00    +0.000 C 
BRANCH   3   9
ATOM      9  C   UNL     1       0.912   3.135  19.079  0.00  0.00    +0.000 C 
BRANCH   9  10
ATOM     10  O   UNL     1       0.441   3.712  20.295  0.00  0.00    +0.000 OA
ATOM     11  H   UNL     1      -0.498   3.922  20.133  0.00  0.00    +0.000 HD
ENDBRANCH   9  10
ENDBRANCH   3   9
ENDBRANCH   1   3
BRANCH   1  12
ATOM     12  C   UNL     1       3.068   6.064  18.176  0.00  0.00    +0.000 C 
BRANCH  12  16
ATOM     13  C   UNL     1       0.891   8.759  21.840  0.00  0.00    +0.000 C 
ATOM     14  C   UNL     1       1.313   8.652  20.400  0.00  0.00    +0.000 A 
ATOM     15  C   UNL     1       1.993   7.499  19.966  0.00  0.00    +0.000 A 
ATOM     16  C   UNL     1       2.399   7.343  18.630  0.00  0.00    +0.000 A 
ATOM     17  C   UNL     1       2.121   8.370  17.719  0.00  0.00    +0.000 A 
ATOM     18  C   UNL     1       1.452   9.523  18.134  0.00  0.00    +0.000 A 
ATOM     19  C   UNL     1       1.047   9.664  19.465  0.00  0.00    +0.000 A 
ATOM     20 BR   UNL     1       0.127  11.255  19.938  0.00  0.00    +0.000 Br
ENDBRANCH  12  16
ENDBRANCH   1  12
TORSDOF 5
ENDMDL
MODEL 8
REMARK VINA RESULT:      -6.3      0.927      1.088
REMARK  Name = 
REMARK  6 active torsions:
REMARK  status: ('A' for Active; 'I' for Inactive)
REMARK    1  A    between atoms: C_1  and  C_2
REMARK    2  A    between atoms: C_4  and  C_5
REMARK    3  A    between atoms: C_5  and  N_6
REMARK    4  A    between atoms: N_6  and  C_7
REMARK    5  A    between atoms: C_7  and  C_8
REMARK    6  A    between atoms: C_8  and  O_9
REMARK                            x       y       z     vdW  Elec       q    Type
REMARK                         _______ _______ _______ _____ _____    ______ ____
ROOT
ATOM      1  N   UNL     1       2.726   5.385  17.791  0.00  0.00    +0.000 NA
ATOM      2  H   UNL     1       3.189   5.360  16.881  0.00  0.00    +0.000 HD
ENDROOT
BRANCH   1   3
ATOM      3  C   UNL     1       2.719   4.002  18.363  0.00  0.00    +0.000 C 
ATOM      4  C   UNL     1       1.321   3.347  18.300  0.00  0.00    +0.000 C 
ATOM      5  C   UNL     1       1.234   2.098  19.171  0.00  0.00    +0.000 C 
ATOM      6  O   UNL     1       1.580   2.401  20.519  0.00  0.00    +0.000 OA
ATOM      7  C   UNL     1       2.920   2.869  20.645  0.00  0.00    +0.000 C 
ATOM      8  C   UNL     1       3.115   4.159  19.855  0.00  0.00    +0.000 C 
BRANCH   3   9
ATOM      9  C   UNL     1       3.762   3.115  17.618  0.00  0.00    +0.000 C 
BRANCH   9  10
ATOM     10  O   UNL     1       5.094   3.446  18.006  0.00  0.00    +0.000 OA
ATOM     11  H   UNL     1       5.268   4.320  17.606  0.00  0.00    +0.000 HD
ENDBRANCH   9  10
ENDBRANCH   3   9
ENDBRANCH   1   3
BRANCH   1  12
ATOM     12  C   UNL     1       3.391   6.404  18.601  0.00  0.00    +0.000 C 
BRANCH  12  16
ATOM     13  C   UNL     1       0.391   8.962  21.746  0.00  0.00    +0.000 C 
ATOM     14  C   UNL     1       0.998   8.823  20.376  0.00  0.00    +0.000 A 
ATOM     15  C   UNL     1       1.895   7.769  20.125  0.00  0.00    +0.000 A 
ATOM     16  C   UNL     1       2.481   7.585  18.861  0.00  0.00    +0.000 A 
ATOM     17  C   UNL     1       2.161   8.484  17.835  0.00  0.00    +0.000 A 
ATOM     18  C   UNL     1       1.276   9.539  18.068  0.00  0.00    +0.000 A 
ATOM     19  C   UNL     1       0.695   9.706  19.329  0.00  0.00    +0.000 A 
ATOM     20 BR   UNL     1      -0.511  11.155  19.552  0.00  0.00    +0.000 Br
ENDBRANCH  12  16
ENDBRANCH   1  12
TORSDOF 5
ENDMDL
MODEL 9
REMARK VINA RESULT:      -6.3      2.583      3.749
REMARK  Name = 
REMARK  6 active torsions:
REMARK  status: ('A' for Active; 'I' for Inactive)
REMARK    1  A    between atoms: C_1  and  C_2
REMARK    2  A    between atoms: C_4  and  C_5
REMARK    3  A    between atoms: C_5  and  N_6
REMARK    4  A    between atoms: N_6  and  C_7
REMARK    5  A    between atoms: C_7  and  C_8
REMARK    6  A    between atoms: C_8  and  O_9
REMARK                            x       y       z     vdW  Elec       q    Type
REMARK                         _______ _______ _______ _____ _____    ______ ____
ROOT
ATOM      1  N   UNL     1       3.748   5.377  17.537  0.00  0.00    +0.000 NA
ATOM      2  H   UNL     1       3.294   6.053  16.919  0.00  0.00    +0.000 HD
ENDROOT
BRANCH   1   3
ATOM      3  C   UNL     1       5.230   5.567  17.445  0.00  0.00    +0.000 C 
ATOM      4  C   UNL     1       5.929   4.393  16.722  0.00  0.00    +0.000 C 
ATOM      5  C   UNL     1       7.441   4.416  16.922  0.00  0.00    +0.000 C 
ATOM      6  O   UNL     1       7.764   4.409  18.309  0.00  0.00    +0.000 OA
ATOM      7  C   UNL     1       7.264   5.557  18.991  0.00  0.00    +0.000 C 
ATOM      8  C   UNL     1       5.742   5.611  18.908  0.00  0.00    +0.000 C 
BRANCH   3   9
ATOM      9  C   UNL     1       5.549   6.910  16.720  0.00  0.00    +0.000 C 
BRANCH   9  10
ATOM     10  O   UNL     1       5.193   6.851  15.341  0.00  0.00    +0.000 OA
ATOM     11  H   UNL     1       4.375   6.318  15.309  0.00  0.00    +0.000 HD
ENDBRANCH   9  10
ENDBRANCH   3   9
ENDBRANCH   1   3
BRANCH   1  12
ATOM     12  C   UNL     1       3.169   5.532  18.869  0.00  0.00    +0.000 C 
BRANCH  12  16
ATOM     13  C   UNL     1       0.809   8.886  21.804  0.00  0.00    +0.000 C 
ATOM     14  C   UNL     1       1.332   8.511  20.444  0.00  0.00    +0.000 A 
ATOM     15  C   UNL     1       2.007   7.288  20.281  0.00  0.00    +0.000 A 
ATOM     16  C   UNL     1       2.505   6.883  19.030  0.00  0.00    +0.000 A 
ATOM     17  C   UNL     1       2.323   7.729  17.929  0.00  0.00    +0.000 A 
ATOM     18  C   UNL     1       1.660   8.949  18.075  0.00  0.00    +0.000 A 
ATOM     19  C   UNL     1       1.163   9.337  19.323  0.00  0.00    +0.000 A 
ATOM     20 BR   UNL     1       0.257  11.002  19.427  0.00  0.00    +0.000 Br
ENDBRANCH  12  16
ENDBRANCH   1  12
TORSDOF 5
ENDMDL
