MODEL 1
REMARK VINA RESULT:      -7.4      0.000      0.000
REMARK  Name = 
REMARK  1 active torsions:
REMARK  status: ('A' for Active; 'I' for Inactive)
REMARK    1  A    between atoms: N_11  and  C_12
REMARK                            x       y       z     vdW  Elec       q    Type
REMARK                         _______ _______ _______ _____ _____    ______ ____
ROOT
ATOM      1  O   UNL     1       4.098   2.167  18.072  0.00  0.00    +0.000 OA
ATOM      2  C   UNL     1       3.665   3.287  18.339  0.00  0.00    +0.000 A 
ATOM      3  C   UNL     1       2.665   3.401  19.407  0.00  0.00    +0.000 A 
ATOM      4  C   UNL     1       2.106   4.551  19.740  0.00  0.00    +0.000 A 
ATOM      5  C   UNL     1       2.466   5.788  19.083  0.00  0.00    +0.000 A 
ATOM      6  C   UNL     1       1.849   7.005  19.386  0.00  0.00    +0.000 A 
ATOM      7  C   UNL     1       2.237   8.156  18.712  0.00  0.00    +0.000 A 
ATOM      8  C   UNL     1       3.227   8.047  17.756  0.00  0.00    +0.000 A 
ATOM      9  N   UNL     1       3.839   6.887  17.444  0.00  0.00    +0.000 NA
ATOM     10  C   UNL     1       3.472   5.756  18.106  0.00  0.00    +0.000 A 
ATOM     11  N   UNL     1       4.072   4.494  17.763  0.00  0.00    +0.000 N 
ATOM     12  O   UNL     1       1.193   4.512  20.777  0.00  0.00    +0.000 OA
ATOM     13  C   UNL     1       1.150   3.107  21.130  0.00  0.00    +0.000 C 
ATOM     14  C   UNL     1       2.172   2.333  20.288  0.00  0.00    +0.000 C 
ENDROOT
BRANCH  11  15
ATOM     15  C   UNL     1       5.069   4.503  16.740  0.00  0.00    +0.000 A 
ATOM     16  C   UNL     1       4.713   4.323  15.397  0.00  0.00    +0.000 A 
ATOM     17  C   UNL     1       5.683   4.388  14.393  0.00  0.00    +0.000 A 
ATOM     18  C   UNL     1       7.022   4.588  14.723  0.00  0.00    +0.000 A 
ATOM     19  C   UNL     1       7.395   4.723  16.059  0.00  0.00    +0.000 A 
ATOM     20  C   UNL     1       6.423   4.686  17.060  0.00  0.00    +0.000 A 
ENDBRANCH  11  15
TORSDOF 1
ENDMDL
MODEL 2
REMARK VINA RESULT:      -7.4      1.724      3.497
REMARK  Name = 
REMARK  1 active torsions:
REMARK  status: ('A' for Active; 'I' for Inactive)
REMARK    1  A    between atoms: N_11  and  C_12
REMARK                            x       y       z     vdW  Elec       q    Type
REMARK                         _______ _______ _______ _____ _____    ______ ____
ROOT
ATOM      1  O   UNL     1       3.940   7.656  17.514  0.00  0.00    +0.000 OA
ATOM      2  C   UNL     1       3.561   6.799  18.310  0.00  0.00    +0.000 A 
ATOM      3  C   UNL     1       2.531   7.175  19.286  0.00  0.00    +0.000 A 
ATOM      4  C   UNL     1       2.087   6.341  20.210  0.00  0.00    +0.000 A 
ATOM      5  C   UNL     1       2.576   4.984  20.306  0.00  0.00    +0.000 A 
ATOM      6  C   UNL     1       2.157   4.104  21.307  0.00  0.00    +0.000 A 
ATOM      7  C   UNL     1       2.671   2.815  21.347  0.00  0.00    +0.000 A 
ATOM      8  C   UNL     1       3.589   2.452  20.382  0.00  0.00    +0.000 A 
ATOM      9  N   UNL     1       4.011   3.279  19.404  0.00  0.00    +0.000 NA
ATOM     10  C   UNL     1       3.505   4.541  19.353  0.00  0.00    +0.000 A 
ATOM     11  N   UNL     1       3.970   5.463  18.350  0.00  0.00    +0.000 N 
ATOM     12  O   UNL     1       1.103   6.826  21.052  0.00  0.00    +0.000 OA
ATOM     13  C   UNL     1       0.922   8.192  20.602  0.00  0.00    +0.000 C 
ATOM     14  C   UNL     1       1.806   8.450  19.374  0.00  0.00    +0.000 C 
ENDROOT
BRANCH  11  15
ATOM     15  C   UNL     1       4.940   4.980  17.420  0.00  0.00    +0.000 A 
ATOM     16  C   UNL     1       4.543   4.458  16.182  0.00  0.00    +0.000 A 
ATOM     17  C   UNL     1       5.498   4.038  15.252  0.00  0.00    +0.000 A 
ATOM     18  C   UNL     1       6.855   4.095  15.565  0.00  0.00    +0.000 A 
ATOM     19  C   UNL     1       7.260   4.570  16.810  0.00  0.00    +0.000 A 
ATOM     20  C   UNL     1       6.309   5.014  17.729  0.00  0.00    +0.000 A 
ENDBRANCH  11  15
TORSDOF 1
ENDMDL
MODEL 3
REMARK VINA RESULT:      -7.4      0.065      1.081
REMARK  Name = 
REMARK  1 active torsions:
REMARK  status: ('A' for Active; 'I' for Inactive)
REMARK    1  A    between atoms: N_11  and  C_12
REMARK                            x       y       z     vdW  Elec       q    Type
REMARK                         _______ _______ _______ _____ _____    ______ ____
ROOT
ATOM      1  O   UNL     1       4.131   2.218  18.111  0.00  0.00    +0.000 OA
ATOM      2  C   UNL     1       3.686   3.333  18.379  0.00  0.00    +0.000 A 
ATOM      3  C   UNL     1       2.695   3.437  19.457  0.00  0.00    +0.000 A 
ATOM      4  C   UNL     1       2.125   4.581  19.792  0.00  0.00    +0.000 A 
ATOM      5  C   UNL     1       2.462   5.820  19.128  0.00  0.00    +0.000 A 
ATOM      6  C   UNL     1       1.833   7.030  19.434  0.00  0.00    +0.000 A 
ATOM      7  C   UNL     1       2.199   8.184  18.753  0.00  0.00    +0.000 A 
ATOM      8  C   UNL     1       3.181   8.085  17.788  0.00  0.00    +0.000 A 
ATOM      9  N   UNL     1       3.805   6.932  17.473  0.00  0.00    +0.000 NA
ATOM     10  C   UNL     1       3.459   5.799  18.142  0.00  0.00    +0.000 A 
ATOM     11  N   UNL     1       4.072   4.543  17.796  0.00  0.00    +0.000 N 
ATOM     12  O   UNL     1       1.222   4.533  20.838  0.00  0.00    +0.000 OA
ATOM     13  C   UNL     1       1.201   3.128  21.196  0.00  0.00    +0.000 C 
ATOM     14  C   UNL     1       2.225   2.365  20.346  0.00  0.00    +0.000 C 
ENDROOT
BRANCH  11  15
ATOM     15  C   UNL     1       5.059   4.561  16.764  0.00  0.00    +0.000 A 
ATOM     16  C   UNL     1       6.409   4.772  17.072  0.00  0.00    +0.000 A 
ATOM     17  C   UNL     1       7.379   4.734  16.066  0.00  0.00    +0.000 A 
ATOM     18  C   UNL     1       7.006   4.529  14.739  0.00  0.00    +0.000 A 
ATOM     19  C   UNL     1       5.661   4.364  14.414  0.00  0.00    +0.000 A 
ATOM     20  C   UNL     1       4.695   4.375  15.421  0.00  0.00    +0.000 A 
ENDBRANCH  11  15
TORSDOF 1
ENDMDL
MODEL 4
REMARK VINA RESULT:      -7.3      1.737      3.664
REMARK  Name = 
REMARK  1 active torsions:
REMARK  status: ('A' for Active; 'I' for Inactive)
REMARK    1  A    between atoms: N_11  and  C_12
REMARK                            x       y       z     vdW  Elec       q    Type
REMARK                         _______ _______ _______ _____ _____    ______ ____
ROOT
ATOM      1  O   UNL     1       3.900   7.717  17.570  0.00  0.00    +0.000 OA
ATOM      2  C   UNL     1       3.528   6.842  18.350  0.00  0.00    +0.000 A 
ATOM      3  C   UNL     1       2.497   7.193  19.334  0.00  0.00    +0.000 A 
ATOM      4  C   UNL     1       2.061   6.339  20.244  0.00  0.00    +0.000 A 
ATOM      5  C   UNL     1       2.559   4.984  20.314  0.00  0.00    +0.000 A 
ATOM      6  C   UNL     1       2.147   4.083  21.300  0.00  0.00    +0.000 A 
ATOM      7  C   UNL     1       2.670   2.796  21.314  0.00  0.00    +0.000 A 
ATOM      8  C   UNL     1       3.589   2.458  20.341  0.00  0.00    +0.000 A 
ATOM      9  N   UNL     1       4.004   3.306  19.378  0.00  0.00    +0.000 NA
ATOM     10  C   UNL     1       3.489   4.565  19.351  0.00  0.00    +0.000 A 
ATOM     11  N   UNL     1       3.947   5.509  18.365  0.00  0.00    +0.000 N 
ATOM     12  O   UNL     1       1.075   6.801  21.096  0.00  0.00    +0.000 OA
ATOM     13  C   UNL     1       0.884   8.174  20.671  0.00  0.00    +0.000 C 
ATOM     14  C   UNL     1       1.764   8.461  19.448  0.00  0.00    +0.000 C 
ENDROOT
BRANCH  11  15
ATOM     15  C   UNL     1       4.919   5.050  17.425  0.00  0.00    +0.000 A 
ATOM     16  C   UNL     1       6.285   5.107  17.728  0.00  0.00    +0.000 A 
ATOM     17  C   UNL     1       7.231   4.606  16.829  0.00  0.00    +0.000 A 
ATOM     18  C   UNL     1       6.825   4.083  15.602  0.00  0.00    +0.000 A 
ATOM     19  C   UNL     1       5.472   4.063  15.270  0.00  0.00    +0.000 A 
ATOM     20  C   UNL     1       4.525   4.538  16.179  0.00  0.00    +0.000 A 
ENDBRANCH  11  15
TORSDOF 1
ENDMDL
MODEL 5
REMARK VINA RESULT:      -7.3      1.548      5.084
REMARK  Name = 
REMARK  1 active torsions:
REMARK  status: ('A' for Active; 'I' for Inactive)
REMARK    1  A    between atoms: N_11  and  C_12
REMARK                            x       y       z     vdW  Elec       q    Type
REMARK                         _______ _______ _______ _____ _____    ______ ____
ROOT
ATOM      1  O   UNL     1       4.550   2.424  17.691  0.00  0.00    +0.000 OA
ATOM      2  C   UNL     1       4.317   3.627  17.577  0.00  0.00    +0.000 A 
ATOM      3  C   UNL     1       5.014   4.364  16.516  0.00  0.00    +0.000 A 
ATOM      4  C   UNL     1       4.866   5.665  16.338  0.00  0.00    +0.000 A 
ATOM      5  C   UNL     1       3.981   6.449  17.170  0.00  0.00    +0.000 A 
ATOM      6  C   UNL     1       3.850   7.834  17.031  0.00  0.00    +0.000 A 
ATOM      7  C   UNL     1       2.987   8.529  17.867  0.00  0.00    +0.000 A 
ATOM      8  C   UNL     1       2.287   7.813  18.817  0.00  0.00    +0.000 A 
ATOM      9  N   UNL     1       2.392   6.478  18.974  0.00  0.00    +0.000 NA
ATOM     10  C   UNL     1       3.229   5.788  18.152  0.00  0.00    +0.000 A 
ATOM     11  N   UNL     1       3.399   4.369  18.325  0.00  0.00    +0.000 N 
ATOM     12  O   UNL     1       5.571   6.225  15.289  0.00  0.00    +0.000 OA
ATOM     13  C   UNL     1       6.301   5.099  14.740  0.00  0.00    +0.000 C 
ATOM     14  C   UNL     1       5.905   3.817  15.484  0.00  0.00    +0.000 C 
ENDROOT
BRANCH  11  15
ATOM     15  C   UNL     1       2.639   3.742  19.358  0.00  0.00    +0.000 A 
ATOM     16  C   UNL     1       3.209   3.498  20.614  0.00  0.00    +0.000 A 
ATOM     17  C   UNL     1       2.444   2.935  21.641  0.00  0.00    +0.000 A 
ATOM     18  C   UNL     1       1.119   2.570  21.410  0.00  0.00    +0.000 A 
ATOM     19  C   UNL     1       0.555   2.767  20.151  0.00  0.00    +0.000 A 
ATOM     20  C   UNL     1       1.309   3.354  19.134  0.00  0.00    +0.000 A 
ENDBRANCH  11  15
TORSDOF 1
ENDMDL
MODEL 6
REMARK VINA RESULT:      -7.2      1.961      5.682
REMARK  Name = 
REMARK  1 active torsions:
REMARK  status: ('A' for Active; 'I' for Inactive)
REMARK    1  A    between atoms: N_11  and  C_12
REMARK                            x       y       z     vdW  Elec       q    Type
REMARK                         _______ _______ _______ _____ _____    ______ ____
ROOT
ATOM      1  O   UNL     1       3.176   3.341  16.388  0.00  0.00    +0.000 OA
ATOM      2  C   UNL     1       4.220   3.859  16.783  0.00  0.00    +0.000 A 
ATOM      3  C   UNL     1       5.261   4.147  15.789  0.00  0.00    +0.000 A 
ATOM      4  C   UNL     1       6.434   4.661  16.117  0.00  0.00    +0.000 A 
ATOM      5  C   UNL     1       6.761   4.998  17.484  0.00  0.00    +0.000 A 
ATOM      6  C   UNL     1       8.013   5.495  17.856  0.00  0.00    +0.000 A 
ATOM      7  C   UNL     1       8.264   5.792  19.189  0.00  0.00    +0.000 A 
ATOM      8  C   UNL     1       7.252   5.579  20.104  0.00  0.00    +0.000 A 
ATOM      9  N   UNL     1       6.035   5.102  19.774  0.00  0.00    +0.000 NA
ATOM     10  C   UNL     1       5.778   4.817  18.468  0.00  0.00    +0.000 A 
ATOM     11  N   UNL     1       4.504   4.262  18.090  0.00  0.00    +0.000 N 
ATOM     12  O   UNL     1       7.313   4.897  15.075  0.00  0.00    +0.000 OA
ATOM     13  C   UNL     1       6.585   4.427  13.913  0.00  0.00    +0.000 C 
ATOM     14  C   UNL     1       5.178   3.981  14.332  0.00  0.00    +0.000 C 
ENDROOT
BRANCH  11  15
ATOM     15  C   UNL     1       3.545   4.064  19.129  0.00  0.00    +0.000 A 
ATOM     16  C   UNL     1       3.534   2.876  19.871  0.00  0.00    +0.000 A 
ATOM     17  C   UNL     1       2.630   2.708  20.925  0.00  0.00    +0.000 A 
ATOM     18  C   UNL     1       1.701   3.704  21.217  0.00  0.00    +0.000 A 
ATOM     19  C   UNL     1       1.672   4.871  20.457  0.00  0.00    +0.000 A 
ATOM     20  C   UNL     1       2.592   5.051  19.422  0.00  0.00    +0.000 A 
ENDBRANCH  11  15
TORSDOF 1
ENDMDL
MODEL 7
REMARK VINA RESULT:      -7.2      1.952      5.655
REMARK  Name = 
REMARK  1 active torsions:
REMARK  status: ('A' for Active; 'I' for Inactive)
REMARK    1  A    between atoms: N_11  and  C_12
REMARK                            x       y       z     vdW  Elec       q    Type
REMARK                         _______ _______ _______ _____ _____    ______ ____
ROOT
ATOM      1  O   UNL     1       3.167   3.365  16.410  0.00  0.00    +0.000 OA
ATOM      2  C   UNL     1       4.215   3.876  16.802  0.00  0.00    +0.000 A 
ATOM      3  C   UNL     1       5.256   4.159  15.807  0.00  0.00    +0.000 A 
ATOM      4  C   UNL     1       6.433   4.666  16.132  0.00  0.00    +0.000 A 
ATOM      5  C   UNL     1       6.764   5.000  17.499  0.00  0.00    +0.000 A 
ATOM      6  C   UNL     1       8.020   5.489  17.869  0.00  0.00    +0.000 A 
ATOM      7  C   UNL     1       8.276   5.784  19.201  0.00  0.00    +0.000 A 
ATOM      8  C   UNL     1       7.265   5.577  20.118  0.00  0.00    +0.000 A 
ATOM      9  N   UNL     1       6.044   5.107  19.790  0.00  0.00    +0.000 NA
ATOM     10  C   UNL     1       5.782   4.824  18.485  0.00  0.00    +0.000 A 
ATOM     11  N   UNL     1       4.505   4.277  18.109  0.00  0.00    +0.000 N 
ATOM     12  O   UNL     1       7.311   4.897  15.089  0.00  0.00    +0.000 OA
ATOM     13  C   UNL     1       6.578   4.432  13.928  0.00  0.00    +0.000 C 
ATOM     14  C   UNL     1       5.169   3.994  14.349  0.00  0.00    +0.000 C 
ENDROOT
BRANCH  11  15
ATOM     15  C   UNL     1       3.547   4.084  19.150  0.00  0.00    +0.000 A 
ATOM     16  C   UNL     1       2.611   5.083  19.451  0.00  0.00    +0.000 A 
ATOM     17  C   UNL     1       1.638   4.869  20.432  0.00  0.00    +0.000 A 
ATOM     18  C   UNL     1       1.618   3.675  21.151  0.00  0.00    +0.000 A 
ATOM     19  C   UNL     1       2.571   2.693  20.892  0.00  0.00    +0.000 A 
ATOM     20  C   UNL     1       3.526   2.895  19.894  0.00  0.00    +0.000 A 
ENDBRANCH  11  15
TORSDOF 1
ENDMDL
MODEL 8
REMARK VINA RESULT:      -7.2      1.555      4.971
REMARK  Name = 
REMARK  1 active torsions:
REMARK  status: ('A' for Active; 'I' for Inactive)
REMARK    1  A    between atoms: N_11  and  C_12
REMARK                            x       y       z     vdW  Elec       q    Type
REMARK                         _______ _______ _______ _____ _____    ______ ____
ROOT
ATOM      1  O   UNL     1       4.511   2.489  17.765  0.00  0.00    +0.000 OA
ATOM      2  C   UNL     1       4.283   3.690  17.630  0.00  0.00    +0.000 A 
ATOM      3  C   UNL     1       4.992   4.409  16.565  0.00  0.00    +0.000 A 
ATOM      4  C   UNL     1       4.850   5.708  16.366  0.00  0.00    +0.000 A 
ATOM      5  C   UNL     1       3.959   6.507  17.177  0.00  0.00    +0.000 A 
ATOM      6  C   UNL     1       3.834   7.890  17.015  0.00  0.00    +0.000 A 
ATOM      7  C   UNL     1       2.965   8.600  17.833  0.00  0.00    +0.000 A 
ATOM      8  C   UNL     1       2.253   7.901  18.787  0.00  0.00    +0.000 A 
ATOM      9  N   UNL     1       2.353   6.568  18.965  0.00  0.00    +0.000 NA
ATOM     10  C   UNL     1       3.195   5.863  18.162  0.00  0.00    +0.000 A 
ATOM     11  N   UNL     1       3.360   4.447  18.358  0.00  0.00    +0.000 N 
ATOM     12  O   UNL     1       5.566   6.249  15.315  0.00  0.00    +0.000 OA
ATOM     13  C   UNL     1       6.298   5.113  14.790  0.00  0.00    +0.000 C 
ATOM     14  C   UNL     1       5.891   3.844  15.550  0.00  0.00    +0.000 C 
ENDROOT
BRANCH  11  15
ATOM     15  C   UNL     1       2.588   3.838  19.393  0.00  0.00    +0.000 A 
ATOM     16  C   UNL     1       1.311   3.327  19.122  0.00  0.00    +0.000 A 
ATOM     17  C   UNL     1       0.580   2.681  20.124  0.00  0.00    +0.000 A 
ATOM     18  C   UNL     1       1.097   2.578  21.414  0.00  0.00    +0.000 A 
ATOM     19  C   UNL     1       2.346   3.122  21.707  0.00  0.00    +0.000 A 
ATOM     20  C   UNL     1       3.088   3.743  20.700  0.00  0.00    +0.000 A 
ENDBRANCH  11  15
TORSDOF 1
ENDMDL
MODEL 9
REMARK VINA RESULT:      -7.1      2.019      5.698
REMARK  Name = 
REMARK  1 active torsions:
REMARK  status: ('A' for Active; 'I' for Inactive)
REMARK    1  A    between atoms: N_11  and  C_12
REMARK                            x       y       z     vdW  Elec       q    Type
REMARK                         _______ _______ _______ _____ _____    ______ ____
ROOT
ATOM      1  O   UNL     1       4.852   7.731  17.061  0.00  0.00    +0.000 OA
ATOM      2  C   UNL     1       4.408   6.596  17.223  0.00  0.00    +0.000 A 
ATOM      3  C   UNL     1       5.157   5.475  16.641  0.00  0.00    +0.000 A 
ATOM      4  C   UNL     1       4.741   4.223  16.722  0.00  0.00    +0.000 A 
ATOM      5  C   UNL     1       3.522   3.870  17.415  0.00  0.00    +0.000 A 
ATOM      6  C   UNL     1       3.040   2.560  17.467  0.00  0.00    +0.000 A 
ATOM      7  C   UNL     1       1.859   2.290  18.145  0.00  0.00    +0.000 A 
ATOM      8  C   UNL     1       1.199   3.343  18.745  0.00  0.00    +0.000 A 
ATOM      9  N   UNL     1       1.640   4.617  18.712  0.00  0.00    +0.000 NA
ATOM     10  C   UNL     1       2.803   4.889  18.058  0.00  0.00    +0.000 A 
ATOM     11  N   UNL     1       3.276   6.245  17.964  0.00  0.00    +0.000 N 
ATOM     12  O   UNL     1       5.555   3.268  16.143  0.00  0.00    +0.000 OA
ATOM     13  C   UNL     1       6.641   4.050  15.584  0.00  0.00    +0.000 C 
ATOM     14  C   UNL     1       6.454   5.527  15.954  0.00  0.00    +0.000 C 
ENDROOT
BRANCH  11  15
ATOM     15  C   UNL     1       2.495   7.254  18.606  0.00  0.00    +0.000 A 
ATOM     16  C   UNL     1       2.251   7.197  19.984  0.00  0.00    +0.000 A 
ATOM     17  C   UNL     1       1.534   8.216  20.619  0.00  0.00    +0.000 A 
ATOM     18  C   UNL     1       1.017   9.276  19.877  0.00  0.00    +0.000 A 
ATOM     19  C   UNL     1       1.214   9.320  18.498  0.00  0.00    +0.000 A 
ATOM     20  C   UNL     1       1.953   8.317  17.869  0.00  0.00    +0.000 A 
ENDBRANCH  11  15
TORSDOF 1
ENDMDL
