MODEL 1
REMARK VINA RESULT:      -7.7      0.000      0.000
REMARK  Name = 
REMARK  8 active torsions:
REMARK  status: ('A' for Active; 'I' for Inactive)
REMARK    1  A    between atoms: C_2  and  C_3
REMARK    2  A    between atoms: C_3  and  C_4
REMARK    3  A    between atoms: C_3  and  N_8
REMARK    4  A    between atoms: C_4  and  C_5
REMARK    5  A    between atoms: C_9  and  C_11
REMARK    6  A    between atoms: N_15  and  S_16
REMARK    7  A    between atoms: S_16  and  C_19
REMARK    8  A    between atoms: C_22  and  C_23
REMARK                            x       y       z     vdW  Elec       q    Type
REMARK                         _______ _______ _______ _____ _____    ______ ____
ROOT
ATOM      1  C   UNL     1       4.315   3.933  19.597  0.00  0.00    +0.000 C 
ATOM      2  C   UNL     1       4.188   2.463  19.176  0.00  0.00    +0.000 C 
ATOM      3  C   UNL     1       2.760   2.094  19.514  0.00  0.00    +0.000 C 
ATOM      4  C   UNL     1       1.969   3.379  19.371  0.00  0.00    +0.000 C 
ATOM      5  N   UNL     1       2.933   4.506  19.379  0.00  0.00    +0.000 NA
ENDROOT
BRANCH   1   7
ATOM      6  N   UNL     1       5.997   4.221  17.757  0.00  0.00    +0.000 N 
ATOM      7  C   UNL     1       5.610   4.556  19.041  0.00  0.00    +0.000 C 
ATOM      8  O   UNL     1       6.330   5.258  19.753  0.00  0.00    +0.000 OA
ATOM      9  H   UNL     1       5.219   4.076  17.116  0.00  0.00    +0.000 HD
BRANCH   6  10
ATOM     10  C   UNL     1       7.231   4.780  17.133  0.00  0.00    +0.000 C 
BRANCH  10  12
ATOM     11  N   UNL     1       7.176   7.407  17.376  0.00  0.00    +0.000 NA
ATOM     12  C   UNL     1       7.292   6.235  17.347  0.00  0.00    +0.000 C 
ENDBRANCH  10  12
BRANCH  10  13
ATOM     13  C   UNL     1       7.296   4.659  15.588  0.00  0.00    +0.000 C 
BRANCH  13  14
ATOM     14  C   UNL     1       5.922   4.890  14.963  0.00  0.00    +0.000 C 
ATOM     15  N   UNL     1       5.459   6.174  14.898  0.00  0.00    +0.000 N 
ATOM     16  O   UNL     1       5.214   3.982  14.531  0.00  0.00    +0.000 OA
ATOM     17  H   UNL     1       5.832   6.947  15.428  0.00  0.00    +0.000 HD
ATOM     18  H   UNL     1       4.492   6.258  14.610  0.00  0.00    +0.000 HD
ENDBRANCH  13  14
ENDBRANCH  10  13
ENDBRANCH   6  10
ENDBRANCH   1   7
BRANCH   5  19
ATOM     19  S   UNL     1       2.666   5.700  18.199  0.00  0.00    +0.000 S 
ATOM     20  O   UNL     1       3.913   5.904  17.496  0.00  0.00    +0.000 OA
ATOM     21  O   UNL     1       1.474   5.281  17.482  0.00  0.00    +0.000 OA
BRANCH  19  22
ATOM     22  C   UNL     1       2.257   7.201  19.117  0.00  0.00    +0.000 A 
ATOM     23  C   UNL     1       1.934   7.093  20.468  0.00  0.00    +0.000 A 
ATOM     24  C   UNL     1       1.251   8.136  21.107  0.00  0.00    +0.000 A 
ATOM     25  C   UNL     1       0.855   9.276  20.391  0.00  0.00    +0.000 A 
ATOM     26  C   UNL     1       1.314   9.431  19.073  0.00  0.00    +0.000 A 
ATOM     27  C   UNL     1       2.058   8.420  18.451  0.00  0.00    +0.000 A 
BRANCH  25  28
ATOM     28  C   UNL     1      -0.134  10.268  20.970  0.00  0.00    +0.000 C 
ATOM     29  F   UNL     1      -1.125  10.616  20.105  0.00  0.00    +0.000 F 
ATOM     30  F   UNL     1      -0.750   9.816  22.095  0.00  0.00    +0.000 F 
ATOM     31  F   UNL     1       0.472  11.440  21.322  0.00  0.00    +0.000 F 
ENDBRANCH  25  28
ENDBRANCH  19  22
ENDBRANCH   5  19
TORSDOF 8
ENDMDL
MODEL 2
REMARK VINA RESULT:      -7.6      2.106      4.673
REMARK  Name = 
REMARK  8 active torsions:
REMARK  status: ('A' for Active; 'I' for Inactive)
REMARK    1  A    between atoms: C_2  and  C_3
REMARK    2  A    between atoms: C_3  and  C_4
REMARK    3  A    between atoms: C_3  and  N_8
REMARK    4  A    between atoms: C_4  and  C_5
REMARK    5  A    between atoms: C_9  and  C_11
REMARK    6  A    between atoms: N_15  and  S_16
REMARK    7  A    between atoms: S_16  and  C_19
REMARK    8  A    between atoms: C_22  and  C_23
REMARK                            x       y       z     vdW  Elec       q    Type
REMARK                         _______ _______ _______ _____ _____    ______ ____
ROOT
ATOM      1  C   UNL     1       4.416   4.113  16.355  0.00  0.00    +0.000 C 
ATOM      2  C   UNL     1       5.515   3.117  15.964  0.00  0.00    +0.000 C 
ATOM      3  C   UNL     1       6.318   3.836  14.900  0.00  0.00    +0.000 C 
ATOM      4  C   UNL     1       6.200   5.308  15.237  0.00  0.00    +0.000 C 
ATOM      5  N   UNL     1       5.055   5.470  16.166  0.00  0.00    +0.000 NA
ENDROOT
BRANCH   1   7
ATOM      6  N   UNL     1       4.467   3.205  18.693  0.00  0.00    +0.000 N 
ATOM      7  C   UNL     1       3.697   3.664  17.641  0.00  0.00    +0.000 C 
ATOM      8  O   UNL     1       2.466   3.625  17.697  0.00  0.00    +0.000 OA
ATOM      9  H   UNL     1       5.365   3.676  18.783  0.00  0.00    +0.000 HD
BRANCH   6  10
ATOM     10  C   UNL     1       3.860   2.757  19.980  0.00  0.00    +0.000 C 
BRANCH  10  12
ATOM     11  N   UNL     1       5.530   0.962  20.956  0.00  0.00    +0.000 NA
ATOM     12  C   UNL     1       4.718   1.747  20.620  0.00  0.00    +0.000 C 
ENDBRANCH  10  12
BRANCH  10  13
ATOM     13  C   UNL     1       2.505   2.016  19.841  0.00  0.00    +0.000 C 
BRANCH  13  14
ATOM     14  C   UNL     1       1.472   2.579  20.816  0.00  0.00    +0.000 C 
ATOM     15  N   UNL     1       0.401   3.247  20.295  0.00  0.00    +0.000 N 
ATOM     16  O   UNL     1       1.566   2.471  22.037  0.00  0.00    +0.000 OA
ATOM     17  H   UNL     1       0.348   3.602  19.353  0.00  0.00    +0.000 HD
ATOM     18  H   UNL     1      -0.173   3.722  20.981  0.00  0.00    +0.000 HD
ENDBRANCH  13  14
ENDBRANCH  10  13
ENDBRANCH   6  10
ENDBRANCH   1   7
BRANCH   5  19
ATOM     19  S   UNL     1       5.337   6.487  17.498  0.00  0.00    +0.000 S 
ATOM     20  O   UNL     1       5.931   5.682  18.543  0.00  0.00    +0.000 OA
ATOM     21  O   UNL     1       6.040   7.642  16.966  0.00  0.00    +0.000 OA
BRANCH  19  22
ATOM     22  C   UNL     1       3.704   7.037  18.037  0.00  0.00    +0.000 A 
ATOM     23  C   UNL     1       3.065   8.045  17.319  0.00  0.00    +0.000 A 
ATOM     24  C   UNL     1       2.009   8.758  17.904  0.00  0.00    +0.000 A 
ATOM     25  C   UNL     1       1.612   8.491  19.223  0.00  0.00    +0.000 A 
ATOM     26  C   UNL     1       2.166   7.380  19.878  0.00  0.00    +0.000 A 
ATOM     27  C   UNL     1       3.174   6.621  19.269  0.00  0.00    +0.000 A 
BRANCH  25  28
ATOM     28  C   UNL     1       0.693   9.433  19.976  0.00  0.00    +0.000 C 
ATOM     29  F   UNL     1       0.160   8.887  21.104  0.00  0.00    +0.000 F 
ATOM     30  F   UNL     1       1.305  10.585  20.361  0.00  0.00    +0.000 F 
ATOM     31  F   UNL     1      -0.375   9.815  19.215  0.00  0.00    +0.000 F 
ENDBRANCH  25  28
ENDBRANCH  19  22
ENDBRANCH   5  19
TORSDOF 8
ENDMDL
MODEL 3
REMARK VINA RESULT:      -7.5      1.949      4.541
REMARK  Name = 
REMARK  8 active torsions:
REMARK  status: ('A' for Active; 'I' for Inactive)
REMARK    1  A    between atoms: C_2  and  C_3
REMARK    2  A    between atoms: C_3  and  C_4
REMARK    3  A    between atoms: C_3  and  N_8
REMARK    4  A    between atoms: C_4  and  C_5
REMARK    5  A    between atoms: C_9  and  C_11
REMARK    6  A    between atoms: N_15  and  S_16
REMARK    7  A    between atoms: S_16  and  C_19
REMARK    8  A    between atoms: C_22  and  C_23
REMARK                            x       y       z     vdW  Elec       q    Type
REMARK                         _______ _______ _______ _____ _____    ______ ____
ROOT
ATOM      1  C   UNL     1       4.550   4.376  16.032  0.00  0.00    +0.000 C 
ATOM      2  C   UNL     1       5.614   3.346  15.633  0.00  0.00    +0.000 C 
ATOM      3  C   UNL     1       6.550   4.104  14.714  0.00  0.00    +0.000 C 
ATOM      4  C   UNL     1       6.496   5.543  15.187  0.00  0.00    +0.000 C 
ATOM      5  N   UNL     1       5.287   5.696  16.033  0.00  0.00    +0.000 NA
ENDROOT
BRANCH   1   7
ATOM      6  N   UNL     1       4.338   3.223  18.250  0.00  0.00    +0.000 N 
ATOM      7  C   UNL     1       3.695   3.859  17.205  0.00  0.00    +0.000 C 
ATOM      8  O   UNL     1       2.465   3.926  17.168  0.00  0.00    +0.000 OA
ATOM      9  H   UNL     1       5.261   3.598  18.457  0.00  0.00    +0.000 HD
BRANCH   6  10
ATOM     10  C   UNL     1       3.594   2.696  19.431  0.00  0.00    +0.000 C 
BRANCH  10  12
ATOM     11  N   UNL     1       5.287   1.554  21.101  0.00  0.00    +0.000 NA
ATOM     12  C   UNL     1       4.507   1.953  20.315  0.00  0.00    +0.000 C 
ENDBRANCH  10  12
BRANCH  10  13
ATOM     13  C   UNL     1       2.503   1.644  19.103  0.00  0.00    +0.000 C 
BRANCH  13  14
ATOM     14  C   UNL     1       1.105   2.216  19.334  0.00  0.00    +0.000 C 
ATOM     15  N   UNL     1       0.870   2.866  20.513  0.00  0.00    +0.000 N 
ATOM     16  O   UNL     1       0.188   2.109  18.523  0.00  0.00    +0.000 OA
ATOM     17  H   UNL     1       1.454   2.801  21.331  0.00  0.00    +0.000 HD
ATOM     18  H   UNL     1      -0.103   3.097  20.677  0.00  0.00    +0.000 HD
ENDBRANCH  13  14
ENDBRANCH  10  13
ENDBRANCH   6  10
ENDBRANCH   1   7
BRANCH   5  19
ATOM     19  S   UNL     1       5.516   6.560  17.479  0.00  0.00    +0.000 S 
ATOM     20  O   UNL     1       6.026   5.632  18.464  0.00  0.00    +0.000 OA
ATOM     21  O   UNL     1       6.278   7.741  17.112  0.00  0.00    +0.000 OA
BRANCH  19  22
ATOM     22  C   UNL     1       3.868   7.103  17.980  0.00  0.00    +0.000 A 
ATOM     23  C   UNL     1       3.269   8.154  17.290  0.00  0.00    +0.000 A 
ATOM     24  C   UNL     1       2.198   8.849  17.869  0.00  0.00    +0.000 A 
ATOM     25  C   UNL     1       1.745   8.520  19.155  0.00  0.00    +0.000 A 
ATOM     26  C   UNL     1       2.261   7.370  19.774  0.00  0.00    +0.000 A 
ATOM     27  C   UNL     1       3.285   6.630  19.167  0.00  0.00    +0.000 A 
BRANCH  25  28
ATOM     28  C   UNL     1       0.807   9.434  19.919  0.00  0.00    +0.000 C 
ATOM     29  F   UNL     1       0.448  10.548  19.223  0.00  0.00    +0.000 F 
ATOM     30  F   UNL     1      -0.351   8.825  20.289  0.00  0.00    +0.000 F 
ATOM     31  F   UNL     1       1.374   9.891  21.074  0.00  0.00    +0.000 F 
ENDBRANCH  25  28
ENDBRANCH  19  22
ENDBRANCH   5  19
TORSDOF 8
ENDMDL
MODEL 4
REMARK VINA RESULT:      -7.4      4.648      7.306
REMARK  Name = 
REMARK  8 active torsions:
REMARK  status: ('A' for Active; 'I' for Inactive)
REMARK    1  A    between atoms: C_2  and  C_3
REMARK    2  A    between atoms: C_3  and  C_4
REMARK    3  A    between atoms: C_3  and  N_8
REMARK    4  A    between atoms: C_4  and  C_5
REMARK    5  A    between atoms: C_9  and  C_11
REMARK    6  A    between atoms: N_15  and  S_16
REMARK    7  A    between atoms: S_16  and  C_19
REMARK    8  A    between atoms: C_22  and  C_23
REMARK                            x       y       z     vdW  Elec       q    Type
REMARK                         _______ _______ _______ _____ _____    ______ ____
ROOT
ATOM      1  C   UNL     1       3.150   6.585  19.103  0.00  0.00    +0.000 C 
ATOM      2  C   UNL     1       2.560   6.811  17.706  0.00  0.00    +0.000 C 
ATOM      3  C   UNL     1       3.641   7.559  16.954  0.00  0.00    +0.000 C 
ATOM      4  C   UNL     1       4.947   7.091  17.562  0.00  0.00    +0.000 C 
ATOM      5  N   UNL     1       4.637   6.454  18.865  0.00  0.00    +0.000 NA
ENDROOT
BRANCH   1   7
ATOM      6  N   UNL     1       1.736   4.515  19.215  0.00  0.00    +0.000 N 
ATOM      7  C   UNL     1       2.307   5.571  19.900  0.00  0.00    +0.000 C 
ATOM      8  O   UNL     1       2.069   5.749  21.097  0.00  0.00    +0.000 OA
ATOM      9  H   UNL     1       2.304   4.168  18.445  0.00  0.00    +0.000 HD
BRANCH   6  10
ATOM     10  C   UNL     1       0.911   3.481  19.904  0.00  0.00    +0.000 C 
BRANCH  10  12
ATOM     11  N   UNL     1       1.920   2.645  22.194  0.00  0.00    +0.000 NA
ATOM     12  C   UNL     1       1.519   3.126  21.197  0.00  0.00    +0.000 C 
ENDBRANCH  10  12
BRANCH  10  13
ATOM     13  C   UNL     1       0.832   2.114  19.176  0.00  0.00    +0.000 C 
BRANCH  13  14
ATOM     14  C   UNL     1       1.999   1.944  18.205  0.00  0.00    +0.000 C 
ATOM     15  N   UNL     1       3.089   1.242  18.635  0.00  0.00    +0.000 N 
ATOM     16  O   UNL     1       2.007   2.415  17.069  0.00  0.00    +0.000 OA
ATOM     17  H   UNL     1       3.291   1.029  19.599  0.00  0.00    +0.000 HD
ATOM     18  H   UNL     1       3.886   1.281  18.011  0.00  0.00    +0.000 HD
ENDBRANCH  13  14
ENDBRANCH  10  13
ENDBRANCH   6  10
ENDBRANCH   1   7
BRANCH   5  19
ATOM     19  S   UNL     1       5.437   4.984  19.164  0.00  0.00    +0.000 S 
ATOM     20  O   UNL     1       6.663   5.291  19.869  0.00  0.00    +0.000 OA
ATOM     21  O   UNL     1       4.442   4.112  19.762  0.00  0.00    +0.000 OA
BRANCH  19  22
ATOM     22  C   UNL     1       5.846   4.319  17.536  0.00  0.00    +0.000 A 
ATOM     23  C   UNL     1       7.094   4.608  16.988  0.00  0.00    +0.000 A 
ATOM     24  C   UNL     1       7.304   4.453  15.611  0.00  0.00    +0.000 A 
ATOM     25  C   UNL     1       6.258   4.043  14.770  0.00  0.00    +0.000 A 
ATOM     26  C   UNL     1       5.055   3.618  15.356  0.00  0.00    +0.000 A 
ATOM     27  C   UNL     1       4.864   3.706  16.741  0.00  0.00    +0.000 A 
BRANCH  25  28
ATOM     28  C   UNL     1       6.367   4.156  13.262  0.00  0.00    +0.000 C 
ATOM     29  F   UNL     1       5.190   4.468  12.654  0.00  0.00    +0.000 F 
ATOM     30  F   UNL     1       7.266   5.093  12.858  0.00  0.00    +0.000 F 
ATOM     31  F   UNL     1       6.772   2.982  12.694  0.00  0.00    +0.000 F 
ENDBRANCH  25  28
ENDBRANCH  19  22
ENDBRANCH   5  19
TORSDOF 8
ENDMDL
MODEL 5
REMARK VINA RESULT:      -7.4      5.144      7.757
REMARK  Name = 
REMARK  8 active torsions:
REMARK  status: ('A' for Active; 'I' for Inactive)
REMARK    1  A    between atoms: C_2  and  C_3
REMARK    2  A    between atoms: C_3  and  C_4
REMARK    3  A    between atoms: C_3  and  N_8
REMARK    4  A    between atoms: C_4  and  C_5
REMARK    5  A    between atoms: C_9  and  C_11
REMARK    6  A    between atoms: N_15  and  S_16
REMARK    7  A    between atoms: S_16  and  C_19
REMARK    8  A    between atoms: C_22  and  C_23
REMARK                            x       y       z     vdW  Elec       q    Type
REMARK                         _______ _______ _______ _____ _____    ______ ____
ROOT
ATOM      1  C   UNL     1       5.769   6.962  18.220  0.00  0.00    +0.000 C 
ATOM      2  C   UNL     1       6.262   8.067  17.276  0.00  0.00    +0.000 C 
ATOM      3  C   UNL     1       7.704   8.293  17.678  0.00  0.00    +0.000 C 
ATOM      4  C   UNL     1       8.190   6.954  18.197  0.00  0.00    +0.000 C 
ATOM      5  N   UNL     1       6.996   6.122  18.489  0.00  0.00    +0.000 NA
ENDROOT
BRANCH   1   7
ATOM      6  N   UNL     1       3.769   5.485  18.560  0.00  0.00    +0.000 N 
ATOM      7  C   UNL     1       4.417   6.395  17.746  0.00  0.00    +0.000 C 
ATOM      8  O   UNL     1       3.971   6.672  16.630  0.00  0.00    +0.000 OA
ATOM      9  H   UNL     1       3.896   5.658  19.555  0.00  0.00    +0.000 HD
BRANCH   6  10
ATOM     10  C   UNL     1       2.453   4.889  18.187  0.00  0.00    +0.000 C 
BRANCH  10  12
ATOM     11  N   UNL     1       1.187   4.502  20.469  0.00  0.00    +0.000 NA
ATOM     12  C   UNL     1       1.655   4.628  19.396  0.00  0.00    +0.000 C 
ENDBRANCH  10  12
BRANCH  10  13
ATOM     13  C   UNL     1       2.533   3.491  17.521  0.00  0.00    +0.000 C 
BRANCH  13  14
ATOM     14  C   UNL     1       2.710   2.395  18.570  0.00  0.00    +0.000 C 
ATOM     15  N   UNL     1       1.661   1.549  18.791  0.00  0.00    +0.000 N 
ATOM     16  O   UNL     1       3.739   2.248  19.226  0.00  0.00    +0.000 OA
ATOM     17  H   UNL     1       0.712   1.721  18.500  0.00  0.00    +0.000 HD
ATOM     18  H   UNL     1       1.777   0.937  19.591  0.00  0.00    +0.000 HD
ENDBRANCH  13  14
ENDBRANCH  10  13
ENDBRANCH   6  10
ENDBRANCH   1   7
BRANCH   5  19
ATOM     19  S   UNL     1       7.082   4.513  17.947  0.00  0.00    +0.000 S 
ATOM     20  O   UNL     1       8.471   4.113  17.989  0.00  0.00    +0.000 OA
ATOM     21  O   UNL     1       6.081   3.790  18.712  0.00  0.00    +0.000 OA
BRANCH  19  22
ATOM     22  C   UNL     1       6.534   4.556  16.227  0.00  0.00    +0.000 A 
ATOM     23  C   UNL     1       5.463   3.752  15.844  0.00  0.00    +0.000 A 
ATOM     24  C   UNL     1       5.259   3.460  14.489  0.00  0.00    +0.000 A 
ATOM     25  C   UNL     1       6.145   3.940  13.513  0.00  0.00    +0.000 A 
ATOM     26  C   UNL     1       7.129   4.864  13.899  0.00  0.00    +0.000 A 
ATOM     27  C   UNL     1       7.293   5.213  15.246  0.00  0.00    +0.000 A 
BRANCH  25  28
ATOM     28  C   UNL     1       6.126   3.402  12.096  0.00  0.00    +0.000 C 
ATOM     29  F   UNL     1       4.994   3.716  11.409  0.00  0.00    +0.000 F 
ATOM     30  F   UNL     1       7.167   3.845  11.340  0.00  0.00    +0.000 F 
ATOM     31  F   UNL     1       6.202   2.039  12.071  0.00  0.00    +0.000 F 
ENDBRANCH  25  28
ENDBRANCH  19  22
ENDBRANCH   5  19
TORSDOF 8
ENDMDL
MODEL 6
REMARK VINA RESULT:      -7.4      4.866      7.540
REMARK  Name = 
REMARK  8 active torsions:
REMARK  status: ('A' for Active; 'I' for Inactive)
REMARK    1  A    between atoms: C_2  and  C_3
REMARK    2  A    between atoms: C_3  and  C_4
REMARK    3  A    between atoms: C_3  and  N_8
REMARK    4  A    between atoms: C_4  and  C_5
REMARK    5  A    between atoms: C_9  and  C_11
REMARK    6  A    between atoms: N_15  and  S_16
REMARK    7  A    between atoms: S_16  and  C_19
REMARK    8  A    between atoms: C_22  and  C_23
REMARK                            x       y       z     vdW  Elec       q    Type
REMARK                         _______ _______ _______ _____ _____    ______ ____
ROOT
ATOM      1  C   UNL     1       1.860   4.843  18.959  0.00  0.00    +0.000 C 
ATOM      2  C   UNL     1       1.696   3.486  19.655  0.00  0.00    +0.000 C 
ATOM      3  C   UNL     1       2.038   2.469  18.587  0.00  0.00    +0.000 C 
ATOM      4  C   UNL     1       3.042   3.157  17.685  0.00  0.00    +0.000 C 
ATOM      5  N   UNL     1       2.960   4.615  17.947  0.00  0.00    +0.000 NA
ENDROOT
BRANCH   1   7
ATOM      6  N   UNL     1       1.562   7.268  19.532  0.00  0.00    +0.000 N 
ATOM      7  C   UNL     1       1.850   5.994  19.984  0.00  0.00    +0.000 C 
ATOM      8  O   UNL     1       2.183   5.800  21.155  0.00  0.00    +0.000 OA
ATOM      9  H   UNL     1       0.883   7.293  18.774  0.00  0.00    +0.000 HD
BRANCH   6  10
ATOM     10  C   UNL     1       1.522   8.441  20.453  0.00  0.00    +0.000 C 
BRANCH  10  12
ATOM     11  N   UNL     1      -0.649   8.194  21.932  0.00  0.00    +0.000 NA
ATOM     12  C   UNL     1       0.284   8.418  21.250  0.00  0.00    +0.000 C 
ENDBRANCH  10  12
BRANCH  10  13
ATOM     13  C   UNL     1       1.450   9.822  19.751  0.00  0.00    +0.000 C 
BRANCH  13  14
ATOM     14  C   UNL     1       1.190   9.661  18.254  0.00  0.00    +0.000 C 
ATOM     15  N   UNL     1      -0.063   9.948  17.790  0.00  0.00    +0.000 N 
ATOM     16  O   UNL     1       2.044   9.277  17.457  0.00  0.00    +0.000 OA
ATOM     17  H   UNL     1      -0.885  10.030  18.368  0.00  0.00    +0.000 HD
ATOM     18  H   UNL     1      -0.222   9.689  16.824  0.00  0.00    +0.000 HD
ENDBRANCH  13  14
ENDBRANCH  10  13
ENDBRANCH   6  10
ENDBRANCH   1   7
BRANCH   5  19
ATOM     19  S   UNL     1       4.454   5.412  18.096  0.00  0.00    +0.000 S 
ATOM     20  O   UNL     1       4.185   6.831  18.167  0.00  0.00    +0.000 OA
ATOM     21  O   UNL     1       5.151   4.738  19.177  0.00  0.00    +0.000 OA
BRANCH  19  22
ATOM     22  C   UNL     1       5.342   5.059  16.564  0.00  0.00    +0.000 A 
ATOM     23  C   UNL     1       5.199   5.933  15.489  0.00  0.00    +0.000 A 
ATOM     24  C   UNL     1       5.539   5.511  14.196  0.00  0.00    +0.000 A 
ATOM     25  C   UNL     1       5.989   4.202  13.967  0.00  0.00    +0.000 A 
ATOM     26  C   UNL     1       6.265   3.385  15.075  0.00  0.00    +0.000 A 
ATOM     27  C   UNL     1       5.992   3.828  16.376  0.00  0.00    +0.000 A 
BRANCH  25  28
ATOM     28  C   UNL     1       6.074   3.631  12.565  0.00  0.00    +0.000 C 
ATOM     29  F   UNL     1       7.007   4.242  11.785  0.00  0.00    +0.000 F 
ATOM     30  F   UNL     1       6.369   2.303  12.544  0.00  0.00    +0.000 F 
ATOM     31  F   UNL     1       4.893   3.761  11.893  0.00  0.00    +0.000 F 
ENDBRANCH  25  28
ENDBRANCH  19  22
ENDBRANCH   5  19
TORSDOF 8
ENDMDL
MODEL 7
REMARK VINA RESULT:      -7.4      2.337      3.588
REMARK  Name = 
REMARK  8 active torsions:
REMARK  status: ('A' for Active; 'I' for Inactive)
REMARK    1  A    between atoms: C_2  and  C_3
REMARK    2  A    between atoms: C_3  and  C_4
REMARK    3  A    between atoms: C_3  and  N_8
REMARK    4  A    between atoms: C_4  and  C_5
REMARK    5  A    between atoms: C_9  and  C_11
REMARK    6  A    between atoms: N_15  and  S_16
REMARK    7  A    between atoms: S_16  and  C_19
REMARK    8  A    between atoms: C_22  and  C_23
REMARK                            x       y       z     vdW  Elec       q    Type
REMARK                         _______ _______ _______ _____ _____    ______ ____
ROOT
ATOM      1  C   UNL     1       2.716   2.705  17.766  0.00  0.00    +0.000 C 
ATOM      2  C   UNL     1       1.256   3.170  17.692  0.00  0.00    +0.000 C 
ATOM      3  C   UNL     1       0.511   2.231  18.617  0.00  0.00    +0.000 C 
ATOM      4  C   UNL     1       1.515   1.838  19.682  0.00  0.00    +0.000 C 
ATOM      5  N   UNL     1       2.868   2.170  19.172  0.00  0.00    +0.000 NA
ENDROOT
BRANCH   1   7
ATOM      6  N   UNL     1       5.003   3.434  17.036  0.00  0.00    +0.000 N 
ATOM      7  C   UNL     1       3.658   3.742  17.125  0.00  0.00    +0.000 C 
ATOM      8  O   UNL     1       3.241   4.852  16.788  0.00  0.00    +0.000 OA
ATOM      9  H   UNL     1       5.191   2.447  16.872  0.00  0.00    +0.000 HD
BRANCH   6  10
ATOM     10  C   UNL     1       5.988   4.373  16.425  0.00  0.00    +0.000 C 
BRANCH  10  12
ATOM     11  N   UNL     1       6.449   3.858  13.879  0.00  0.00    +0.000 NA
ATOM     12  C   UNL     1       6.275   3.973  15.038  0.00  0.00    +0.000 C 
ENDBRANCH  10  12
BRANCH  10  13
ATOM     13  C   UNL     1       7.393   4.366  17.081  0.00  0.00    +0.000 C 
BRANCH  13  14
ATOM     14  C   UNL     1       7.560   5.553  18.029  0.00  0.00    +0.000 C 
ATOM     15  N   UNL     1       7.919   5.291  19.320  0.00  0.00    +0.000 N 
ATOM     16  O   UNL     1       7.375   6.720  17.689  0.00  0.00    +0.000 OA
ATOM     17  H   UNL     1       7.858   4.387  19.762  0.00  0.00    +0.000 HD
ATOM     18  H   UNL     1       7.875   6.092  19.939  0.00  0.00    +0.000 HD
ENDBRANCH  13  14
ENDBRANCH  10  13
ENDBRANCH   6  10
ENDBRANCH   1   7
BRANCH   5  19
ATOM     19  S   UNL     1       3.896   2.941  20.285  0.00  0.00    +0.000 S 
ATOM     20  O   UNL     1       3.563   2.442  21.601  0.00  0.00    +0.000 OA
ATOM     21  O   UNL     1       5.238   2.783  19.753  0.00  0.00    +0.000 OA
BRANCH  19  22
ATOM     22  C   UNL     1       3.471   4.694  20.197  0.00  0.00    +0.000 A 
ATOM     23  C   UNL     1       2.183   5.091  20.550  0.00  0.00    +0.000 A 
ATOM     24  C   UNL     1       1.701   6.340  20.137  0.00  0.00    +0.000 A 
ATOM     25  C   UNL     1       2.489   7.184  19.340  0.00  0.00    +0.000 A 
ATOM     26  C   UNL     1       3.831   6.833  19.118  0.00  0.00    +0.000 A 
ATOM     27  C   UNL     1       4.339   5.615  19.588  0.00  0.00    +0.000 A 
BRANCH  25  28
ATOM     28  C   UNL     1       1.895   8.387  18.636  0.00  0.00    +0.000 C 
ATOM     29  F   UNL     1       1.064   9.122  19.425  0.00  0.00    +0.000 F 
ATOM     30  F   UNL     1       2.834   9.249  18.163  0.00  0.00    +0.000 F 
ATOM     31  F   UNL     1       1.145   8.023  17.555  0.00  0.00    +0.000 F 
ENDBRANCH  25  28
ENDBRANCH  19  22
ENDBRANCH   5  19
TORSDOF 8
ENDMDL
MODEL 8
REMARK VINA RESULT:      -7.4      1.365      1.654
REMARK  Name = 
REMARK  8 active torsions:
REMARK  status: ('A' for Active; 'I' for Inactive)
REMARK    1  A    between atoms: C_2  and  C_3
REMARK    2  A    between atoms: C_3  and  C_4
REMARK    3  A    between atoms: C_3  and  N_8
REMARK    4  A    between atoms: C_4  and  C_5
REMARK    5  A    between atoms: C_9  and  C_11
REMARK    6  A    between atoms: N_15  and  S_16
REMARK    7  A    between atoms: S_16  and  C_19
REMARK    8  A    between atoms: C_22  and  C_23
REMARK                            x       y       z     vdW  Elec       q    Type
REMARK                         _______ _______ _______ _____ _____    ______ ____
ROOT
ATOM      1  C   UNL     1       3.964   3.446  19.557  0.00  0.00    +0.000 C 
ATOM      2  C   UNL     1       4.251   1.987  19.180  0.00  0.00    +0.000 C 
ATOM      3  C   UNL     1       2.899   1.308  19.231  0.00  0.00    +0.000 C 
ATOM      4  C   UNL     1       1.896   2.387  18.874  0.00  0.00    +0.000 C 
ATOM      5  N   UNL     1       2.568   3.700  19.034  0.00  0.00    +0.000 NA
ENDROOT
BRANCH   1   7
ATOM      6  N   UNL     1       6.080   3.921  18.295  0.00  0.00    +0.000 N 
ATOM      7  C   UNL     1       5.180   4.343  19.255  0.00  0.00    +0.000 C 
ATOM      8  O   UNL     1       5.394   5.360  19.917  0.00  0.00    +0.000 OA
ATOM      9  H   UNL     1       5.652   3.415  17.522  0.00  0.00    +0.000 HD
BRANCH   6  10
ATOM     10  C   UNL     1       7.282   4.727  17.931  0.00  0.00    +0.000 C 
BRANCH  10  12
ATOM     11  N   UNL     1       8.725   5.336  20.054  0.00  0.00    +0.000 NA
ATOM     12  C   UNL     1       7.999   5.144  19.147  0.00  0.00    +0.000 C 
ENDBRANCH  10  12
BRANCH  10  13
ATOM     13  C   UNL     1       6.978   6.077  17.233  0.00  0.00    +0.000 C 
BRANCH  13  14
ATOM     14  C   UNL     1       6.649   5.867  15.756  0.00  0.00    +0.000 C 
ATOM     15  N   UNL     1       7.525   5.136  15.005  0.00  0.00    +0.000 N 
ATOM     16  O   UNL     1       5.647   6.331  15.214  0.00  0.00    +0.000 OA
ATOM     17  H   UNL     1       8.473   4.923  15.274  0.00  0.00    +0.000 HD
ATOM     18  H   UNL     1       7.337   5.148  14.010  0.00  0.00    +0.000 HD
ENDBRANCH  13  14
ENDBRANCH  10  13
ENDBRANCH   6  10
ENDBRANCH   1   7
BRANCH   5  19
ATOM     19  S   UNL     1       2.303   4.811  17.776  0.00  0.00    +0.000 S 
ATOM     20  O   UNL     1       3.434   4.731  16.878  0.00  0.00    +0.000 OA
ATOM     21  O   UNL     1       0.959   4.543  17.294  0.00  0.00    +0.000 OA
BRANCH  19  22
ATOM     22  C   UNL     1       2.292   6.436  18.563  0.00  0.00    +0.000 A 
ATOM     23  C   UNL     1       2.058   6.515  19.934  0.00  0.00    +0.000 A 
ATOM     24  C   UNL     1       1.661   7.732  20.506  0.00  0.00    +0.000 A 
ATOM     25  C   UNL     1       1.460   8.866  19.704  0.00  0.00    +0.000 A 
ATOM     26  C   UNL     1       1.839   8.807  18.353  0.00  0.00    +0.000 A 
ATOM     27  C   UNL     1       2.303   7.610  17.793  0.00  0.00    +0.000 A 
BRANCH  25  28
ATOM     28  C   UNL     1       0.750  10.094  20.238  0.00  0.00    +0.000 C 
ATOM     29  F   UNL     1       0.897  10.266  21.581  0.00  0.00    +0.000 F 
ATOM     30  F   UNL     1       1.169  11.250  19.657  0.00  0.00    +0.000 F 
ATOM     31  F   UNL     1      -0.596  10.035  20.022  0.00  0.00    +0.000 F 
ENDBRANCH  25  28
ENDBRANCH  19  22
ENDBRANCH   5  19
TORSDOF 8
ENDMDL
MODEL 9
REMARK VINA RESULT:      -7.3      1.232      1.443
REMARK  Name = 
REMARK  8 active torsions:
REMARK  status: ('A' for Active; 'I' for Inactive)
REMARK    1  A    between atoms: C_2  and  C_3
REMARK    2  A    between atoms: C_3  and  C_4
REMARK    3  A    between atoms: C_3  and  N_8
REMARK    4  A    between atoms: C_4  and  C_5
REMARK    5  A    between atoms: C_9  and  C_11
REMARK    6  A    between atoms: N_15  and  S_16
REMARK    7  A    between atoms: S_16  and  C_19
REMARK    8  A    between atoms: C_22  and  C_23
REMARK                            x       y       z     vdW  Elec       q    Type
REMARK                         _______ _______ _______ _____ _____    ______ ____
ROOT
ATOM      1  C   UNL     1       4.653   4.205  19.659  0.00  0.00    +0.000 C 
ATOM      2  C   UNL     1       4.485   2.686  19.797  0.00  0.00    +0.000 C 
ATOM      3  C   UNL     1       3.244   2.518  20.648  0.00  0.00    +0.000 C 
ATOM      4  C   UNL     1       2.380   3.723  20.338  0.00  0.00    +0.000 C 
ATOM      5  N   UNL     1       3.241   4.743  19.691  0.00  0.00    +0.000 NA
ENDROOT
BRANCH   1   7
ATOM      6  N   UNL     1       6.119   5.858  18.469  0.00  0.00    +0.000 N 
ATOM      7  C   UNL     1       5.688   4.548  18.570  0.00  0.00    +0.000 C 
ATOM      8  O   UNL     1       6.049   3.700  17.751  0.00  0.00    +0.000 OA
ATOM      9  H   UNL     1       6.182   6.341  19.362  0.00  0.00    +0.000 HD
BRANCH   6  10
ATOM     10  C   UNL     1       7.123   6.282  17.451  0.00  0.00    +0.000 C 
BRANCH  10  12
ATOM     11  N   UNL     1       8.188   8.631  18.007  0.00  0.00    +0.000 NA
ATOM     12  C   UNL     1       7.761   7.543  17.863  0.00  0.00    +0.000 C 
ENDBRANCH  10  12
BRANCH  10  13
ATOM     13  C   UNL     1       6.537   6.633  16.059  0.00  0.00    +0.000 C 
BRANCH  13  14
ATOM     14  C   UNL     1       6.656   5.448  15.101  0.00  0.00    +0.000 C 
ATOM     15  N   UNL     1       5.556   4.658  14.926  0.00  0.00    +0.000 N 
ATOM     16  O   UNL     1       7.689   5.169  14.496  0.00  0.00    +0.000 OA
ATOM     17  H   UNL     1       4.755   4.643  15.539  0.00  0.00    +0.000 HD
ATOM     18  H   UNL     1       5.728   3.810  14.399  0.00  0.00    +0.000 HD
ENDBRANCH  13  14
ENDBRANCH  10  13
ENDBRANCH   6  10
ENDBRANCH   1   7
BRANCH   5  19
ATOM     19  S   UNL     1       2.570   5.499  18.324  0.00  0.00    +0.000 S 
ATOM     20  O   UNL     1       3.583   5.510  17.292  0.00  0.00    +0.000 OA
ATOM     21  O   UNL     1       1.295   4.841  18.099  0.00  0.00    +0.000 OA
BRANCH  19  22
ATOM     22  C   UNL     1       2.231   7.198  18.832  0.00  0.00    +0.000 A 
ATOM     23  C   UNL     1       1.904   7.447  20.163  0.00  0.00    +0.000 A 
ATOM     24  C   UNL     1       1.269   8.647  20.513  0.00  0.00    +0.000 A 
ATOM     25  C   UNL     1       0.925   9.587  19.529  0.00  0.00    +0.000 A 
ATOM     26  C   UNL     1       1.391   9.386  18.220  0.00  0.00    +0.000 A 
ATOM     27  C   UNL     1       2.088   8.220  17.879  0.00  0.00    +0.000 A 
BRANCH  25  28
ATOM     28  C   UNL     1      -0.016  10.736  19.831  0.00  0.00    +0.000 C 
ATOM     29  F   UNL     1       0.542  11.962  19.638  0.00  0.00    +0.000 F 
ATOM     30  F   UNL     1      -1.150  10.710  19.080  0.00  0.00    +0.000 F 
ATOM     31  F   UNL     1      -0.430  10.723  21.131  0.00  0.00    +0.000 F 
ENDBRANCH  25  28
ENDBRANCH  19  22
ENDBRANCH   5  19
TORSDOF 8
ENDMDL
