MODEL 1
REMARK VINA RESULT:      -8.8      0.000      0.000
REMARK  Name = 
REMARK  10 active torsions:
REMARK  status: ('A' for Active; 'I' for Inactive)
REMARK    1  A    between atoms: C_1  and  N_2
REMARK    2  A    between atoms: N_5  and  C_6
REMARK    3  A    between atoms: C_9  and  C_10
REMARK    4  A    between atoms: N_12  and  C_13
REMARK    5  A    between atoms: C_13  and  C_14
REMARK    6  A    between atoms: C_13  and  C_21
REMARK    7  A    between atoms: C_14  and  C_15
REMARK    8  A    between atoms: C_21  and  C_24
REMARK    9  A    between atoms: C_24  and  N_25
REMARK   10  A    between atoms: N_25  and  C_26
REMARK                            x       y       z     vdW  Elec       q    Type
REMARK                         _______ _______ _______ _____ _____    ______ ____
ROOT
ATOM      1  C   UNL     1       4.931   5.294  17.166  0.00  0.00    +0.000 C 
ENDROOT
BRANCH   1   4
ATOM      2  C   UNL     1       2.798   6.345  18.023  0.00  0.00    +0.000 C 
ATOM      3  O   UNL     1       2.092   5.376  17.785  0.00  0.00    +0.000 OA
ATOM      4  N   UNL     1       4.152   6.400  17.775  0.00  0.00    +0.000 N 
ATOM      5  H   UNL     1       4.571   7.325  17.745  0.00  0.00    +0.000 HD
BRANCH   2   9
ATOM      6  C   UNL     1       0.957   9.946  19.550  0.00  0.00    +0.000 A 
ATOM      7  C   UNL     1       1.403   9.855  18.223  0.00  0.00    +0.000 A 
ATOM      8  C   UNL     1       2.025   8.702  17.726  0.00  0.00    +0.000 A 
ATOM      9  C   UNL     1       2.222   7.607  18.560  0.00  0.00    +0.000 A 
ATOM     10  C   UNL     1       1.858   7.687  19.899  0.00  0.00    +0.000 A 
ATOM     11  C   UNL     1       1.227   8.845  20.382  0.00  0.00    +0.000 A 
BRANCH   6  16
ATOM     12  C   UNL     1      -3.293  12.771  21.609  0.00  0.00    +0.000 C 
ATOM     13  N   UNL     1      -1.940  12.617  21.081  0.00  0.00    +0.000 NA
ATOM     14  C   UNL     1      -1.972  12.084  19.702  0.00  0.00    +0.000 C 
ATOM     15  C   UNL     1      -0.560  11.880  19.101  0.00  0.00    +0.000 C 
ATOM     16  N   UNL     1       0.263  11.049  19.999  0.00  0.00    +0.000 N 
ATOM     17  C   UNL     1       0.296  11.525  21.391  0.00  0.00    +0.000 C 
ATOM     18  C   UNL     1      -1.141  11.703  21.930  0.00  0.00    +0.000 C 
ENDBRANCH   6  16
ENDBRANCH   2   9
ENDBRANCH   1   4
BRANCH   1  19
ATOM     19  C   UNL     1       5.584   4.434  18.276  0.00  0.00    +0.000 C 
ATOM     20  F   UNL     1       6.890   4.183  18.011  0.00  0.00    +0.000 F 
ATOM     21  F   UNL     1       5.546   5.157  19.433  0.00  0.00    +0.000 F 
BRANCH  19  22
ATOM     22  C   UNL     1       4.869   3.075  18.498  0.00  0.00    +0.000 C 
BRANCH  22  23
ATOM     23  N   UNL     1       4.694   2.616  19.897  0.00  0.00    +0.000 NA
ATOM     24  H   UNL     1       5.208   3.255  20.509  0.00  0.00    +0.000 HD
BRANCH  23  25
ATOM     25  C   UNL     1       3.301   2.588  20.341  0.00  0.00    +0.000 C 
ATOM     26  C   UNL     1       2.728   3.931  20.795  0.00  0.00    +0.000 C 
ATOM     27  C   UNL     1       1.224   3.686  20.789  0.00  0.00    +0.000 C 
ATOM     28  C   UNL     1       0.977   2.666  19.678  0.00  0.00    +0.000 C 
ATOM     29  C   UNL     1       2.356   2.215  19.198  0.00  0.00    +0.000 C 
ENDBRANCH  23  25
ENDBRANCH  22  23
ENDBRANCH  19  22
ENDBRANCH   1  19
BRANCH   1  30
ATOM     30  C   UNL     1       6.001   5.881  16.214  0.00  0.00    +0.000 C 
BRANCH  30  31
ATOM     31  C   UNL     1       6.184   5.207  14.874  0.00  0.00    +0.000 A 
ATOM     32  C   UNL     1       7.349   5.396  14.118  0.00  0.00    +0.000 A 
ATOM     33  C   UNL     1       7.546   4.681  12.934  0.00  0.00    +0.000 A 
ATOM     34  C   UNL     1       6.585   3.773  12.493  0.00  0.00    +0.000 A 
ATOM     35  C   UNL     1       5.414   3.594  13.225  0.00  0.00    +0.000 A 
ATOM     36  C   UNL     1       5.213   4.308  14.407  0.00  0.00    +0.000 A 
ENDBRANCH  30  31
ENDBRANCH   1  30
TORSDOF 9
ENDMDL
MODEL 2
REMARK VINA RESULT:      -8.5      1.544      4.877
REMARK  Name = 
REMARK  10 active torsions:
REMARK  status: ('A' for Active; 'I' for Inactive)
REMARK    1  A    between atoms: C_1  and  N_2
REMARK    2  A    between atoms: N_5  and  C_6
REMARK    3  A    between atoms: C_9  and  C_10
REMARK    4  A    between atoms: N_12  and  C_13
REMARK    5  A    between atoms: C_13  and  C_14
REMARK    6  A    between atoms: C_13  and  C_21
REMARK    7  A    between atoms: C_14  and  C_15
REMARK    8  A    between atoms: C_21  and  C_24
REMARK    9  A    between atoms: C_24  and  N_25
REMARK   10  A    between atoms: N_25  and  C_26
REMARK                            x       y       z     vdW  Elec       q    Type
REMARK                         _______ _______ _______ _____ _____    ______ ____
ROOT
ATOM      1  C   UNL     1       5.351   4.901  18.428  0.00  0.00    +0.000 C 
ENDROOT
BRANCH   1   4
ATOM      2  C   UNL     1       3.432   6.201  19.436  0.00  0.00    +0.000 C 
ATOM      3  O   UNL     1       3.244   5.425  20.360  0.00  0.00    +0.000 OA
ATOM      4  N   UNL     1       4.408   6.047  18.477  0.00  0.00    +0.000 N 
ATOM      5  H   UNL     1       4.292   6.579  17.620  0.00  0.00    +0.000 HD
BRANCH   2   9
ATOM      6  C   UNL     1       1.020   9.746  18.880  0.00  0.00    +0.000 A 
ATOM      7  C   UNL     1       1.007   9.030  20.086  0.00  0.00    +0.000 A 
ATOM      8  C   UNL     1       1.764   7.866  20.268  0.00  0.00    +0.000 A 
ATOM      9  C   UNL     1       2.553   7.384  19.229  0.00  0.00    +0.000 A 
ATOM     10  C   UNL     1       2.536   8.027  17.997  0.00  0.00    +0.000 A 
ATOM     11  C   UNL     1       1.781   9.199  17.832  0.00  0.00    +0.000 A 
BRANCH   6  16
ATOM     12  C   UNL     1      -1.613  14.292  20.518  0.00  0.00    +0.000 C 
ATOM     13  N   UNL     1      -1.061  13.368  19.532  0.00  0.00    +0.000 NA
ATOM     14  C   UNL     1      -1.690  12.035  19.651  0.00  0.00    +0.000 C 
ATOM     15  C   UNL     1      -1.124  11.007  18.641  0.00  0.00    +0.000 C 
ATOM     16  N   UNL     1       0.345  10.941  18.748  0.00  0.00    +0.000 N 
ATOM     17  C   UNL     1       1.011  12.251  18.666  0.00  0.00    +0.000 C 
ATOM     18  C   UNL     1       0.403  13.225  19.701  0.00  0.00    +0.000 C 
ENDBRANCH   6  16
ENDBRANCH   2   9
ENDBRANCH   1   4
BRANCH   1  19
ATOM     19  C   UNL     1       6.719   5.366  17.871  0.00  0.00    +0.000 C 
ATOM     20  F   UNL     1       7.305   6.281  18.683  0.00  0.00    +0.000 F 
ATOM     21  F   UNL     1       7.543   4.278  17.842  0.00  0.00    +0.000 F 
BRANCH  19  22
ATOM     22  C   UNL     1       6.626   5.976  16.447  0.00  0.00    +0.000 C 
BRANCH  22  23
ATOM     23  N   UNL     1       7.576   5.474  15.426  0.00  0.00    +0.000 NA
ATOM     24  H   UNL     1       7.995   4.609  15.778  0.00  0.00    +0.000 HD
BRANCH  23  25
ATOM     25  C   UNL     1       6.957   5.183  14.133  0.00  0.00    +0.000 C 
ATOM     26  C   UNL     1       7.925   5.022  12.961  0.00  0.00    +0.000 C 
ATOM     27  C   UNL     1       7.073   4.338  11.899  0.00  0.00    +0.000 C 
ATOM     28  C   UNL     1       6.070   3.477  12.667  0.00  0.00    +0.000 C 
ATOM     29  C   UNL     1       6.250   3.827  14.144  0.00  0.00    +0.000 C 
ENDBRANCH  23  25
ENDBRANCH  22  23
ENDBRANCH  19  22
ENDBRANCH   1  19
BRANCH   1  30
ATOM     30  C   UNL     1       4.748   3.774  17.554  0.00  0.00    +0.000 C 
BRANCH  30  31
ATOM     31  C   UNL     1       3.393   3.237  17.952  0.00  0.00    +0.000 A 
ATOM     32  C   UNL     1       3.266   2.214  18.902  0.00  0.00    +0.000 A 
ATOM     33  C   UNL     1       2.003   1.805  19.335  0.00  0.00    +0.000 A 
ATOM     34  C   UNL     1       0.855   2.410  18.825  0.00  0.00    +0.000 A 
ATOM     35  C   UNL     1       0.969   3.412  17.865  0.00  0.00    +0.000 A 
ATOM     36  C   UNL     1       2.230   3.821  17.428  0.00  0.00    +0.000 A 
ENDBRANCH  30  31
ENDBRANCH   1  30
TORSDOF 9
ENDMDL
MODEL 3
REMARK VINA RESULT:      -8.5      1.785      5.074
REMARK  Name = 
REMARK  10 active torsions:
REMARK  status: ('A' for Active; 'I' for Inactive)
REMARK    1  A    between atoms: C_1  and  N_2
REMARK    2  A    between atoms: N_5  and  C_6
REMARK    3  A    between atoms: C_9  and  C_10
REMARK    4  A    between atoms: N_12  and  C_13
REMARK    5  A    between atoms: C_13  and  C_14
REMARK    6  A    between atoms: C_13  and  C_21
REMARK    7  A    between atoms: C_14  and  C_15
REMARK    8  A    between atoms: C_21  and  C_24
REMARK    9  A    between atoms: C_24  and  N_25
REMARK   10  A    between atoms: N_25  and  C_26
REMARK                            x       y       z     vdW  Elec       q    Type
REMARK                         _______ _______ _______ _____ _____    ______ ____
ROOT
ATOM      1  C   UNL     1       4.919   5.169  17.113  0.00  0.00    +0.000 C 
ENDROOT
BRANCH   1   4
ATOM      2  C   UNL     1       3.531   6.406  18.825  0.00  0.00    +0.000 C 
ATOM      3  O   UNL     1       3.872   5.711  19.770  0.00  0.00    +0.000 OA
ATOM      4  N   UNL     1       3.978   6.237  17.533  0.00  0.00    +0.000 N 
ATOM      5  H   UNL     1       3.427   6.674  16.801  0.00  0.00    +0.000 HD
BRANCH   2   9
ATOM      6  C   UNL     1       0.748   9.675  19.334  0.00  0.00    +0.000 A 
ATOM      7  C   UNL     1       1.032   8.782  20.379  0.00  0.00    +0.000 A 
ATOM      8  C   UNL     1       1.912   7.704  20.216  0.00  0.00    +0.000 A 
ATOM      9  C   UNL     1       2.526   7.491  18.987  0.00  0.00    +0.000 A 
ATOM     10  C   UNL     1       2.215   8.313  17.910  0.00  0.00    +0.000 A 
ATOM     11  C   UNL     1       1.339   9.396  18.090  0.00  0.00    +0.000 A 
BRANCH   6  16
ATOM     12  C   UNL     1      -0.562  15.019  19.445  0.00  0.00    +0.000 C 
ATOM     13  N   UNL     1      -0.816  13.592  19.625  0.00  0.00    +0.000 NA
ATOM     14  C   UNL     1       0.119  13.013  20.614  0.00  0.00    +0.000 C 
ATOM     15  C   UNL     1      -0.091  11.495  20.827  0.00  0.00    +0.000 C 
ATOM     16  N   UNL     1      -0.044  10.785  19.535  0.00  0.00    +0.000 N 
ATOM     17  C   UNL     1      -0.937  11.349  18.510  0.00  0.00    +0.000 C 
ATOM     18  C   UNL     1      -0.672  12.862  18.344  0.00  0.00    +0.000 C 
ENDBRANCH   6  16
ENDBRANCH   2   9
ENDBRANCH   1   4
BRANCH   1  19
ATOM     19  C   UNL     1       5.896   5.716  16.043  0.00  0.00    +0.000 C 
ATOM     20  F   UNL     1       5.254   6.475  15.121  0.00  0.00    +0.000 F 
ATOM     21  F   UNL     1       6.786   6.534  16.678  0.00  0.00    +0.000 F 
BRANCH  19  22
ATOM     22  C   UNL     1       6.671   4.601  15.293  0.00  0.00    +0.000 C 
BRANCH  22  23
ATOM     23  N   UNL     1       6.706   4.670  13.812  0.00  0.00    +0.000 NA
ATOM     24  H   UNL     1       7.685   4.642  13.516  0.00  0.00    +0.000 HD
BRANCH  23  25
ATOM     25  C   UNL     1       6.001   3.574  13.151  0.00  0.00    +0.000 C 
ATOM     26  C   UNL     1       4.784   3.980  12.321  0.00  0.00    +0.000 C 
ATOM     27  C   UNL     1       4.528   2.752  11.455  0.00  0.00    +0.000 C 
ATOM     28  C   UNL     1       5.901   2.120  11.222  0.00  0.00    +0.000 C 
ATOM     29  C   UNL     1       6.882   2.892  12.104  0.00  0.00    +0.000 C 
ENDBRANCH  23  25
ENDBRANCH  22  23
ENDBRANCH  19  22
ENDBRANCH   1  19
BRANCH   1  30
ATOM     30  C   UNL     1       4.118   3.960  16.570  0.00  0.00    +0.000 C 
BRANCH  30  31
ATOM     31  C   UNL     1       3.143   3.294  17.512  0.00  0.00    +0.000 A 
ATOM     32  C   UNL     1       3.564   2.313  18.420  0.00  0.00    +0.000 A 
ATOM     33  C   UNL     1       2.670   1.785  19.355  0.00  0.00    +0.000 A 
ATOM     34  C   UNL     1       1.349   2.230  19.392  0.00  0.00    +0.000 A 
ATOM     35  C   UNL     1       0.914   3.188  18.480  0.00  0.00    +0.000 A 
ATOM     36  C   UNL     1       1.805   3.714  17.543  0.00  0.00    +0.000 A 
ENDBRANCH  30  31
ENDBRANCH   1  30
TORSDOF 9
ENDMDL
MODEL 4
REMARK VINA RESULT:      -8.4      2.025      4.937
REMARK  Name = 
REMARK  10 active torsions:
REMARK  status: ('A' for Active; 'I' for Inactive)
REMARK    1  A    between atoms: C_1  and  N_2
REMARK    2  A    between atoms: N_5  and  C_6
REMARK    3  A    between atoms: C_9  and  C_10
REMARK    4  A    between atoms: N_12  and  C_13
REMARK    5  A    between atoms: C_13  and  C_14
REMARK    6  A    between atoms: C_13  and  C_21
REMARK    7  A    between atoms: C_14  and  C_15
REMARK    8  A    between atoms: C_21  and  C_24
REMARK    9  A    between atoms: C_24  and  N_25
REMARK   10  A    between atoms: N_25  and  C_26
REMARK                            x       y       z     vdW  Elec       q    Type
REMARK                         _______ _______ _______ _____ _____    ______ ____
ROOT
ATOM      1  C   UNL     1       4.331   4.317  17.145  0.00  0.00    +0.000 C 
ENDROOT
BRANCH   1   4
ATOM      2  C   UNL     1       3.663   6.185  18.710  0.00  0.00    +0.000 C 
ATOM      3  O   UNL     1       4.437   5.868  19.601  0.00  0.00    +0.000 OA
ATOM      4  N   UNL     1       3.545   5.522  17.509  0.00  0.00    +0.000 N 
ATOM      5  H   UNL     1       2.697   5.691  16.978  0.00  0.00    +0.000 HD
BRANCH   2   9
ATOM      6  C   UNL     1       1.034   9.573  19.261  0.00  0.00    +0.000 A 
ATOM      7  C   UNL     1       1.204   8.605  20.262  0.00  0.00    +0.000 A 
ATOM      8  C   UNL     1       2.033   7.489  20.083  0.00  0.00    +0.000 A 
ATOM      9  C   UNL     1       2.710   7.314  18.881  0.00  0.00    +0.000 A 
ATOM     10  C   UNL     1       2.510   8.215  17.842  0.00  0.00    +0.000 A 
ATOM     11  C   UNL     1       1.684   9.334  18.038  0.00  0.00    +0.000 A 
BRANCH   6  16
ATOM     12  C   UNL     1      -0.245  14.920  19.025  0.00  0.00    +0.000 C 
ATOM     13  N   UNL     1      -0.456  13.526  19.408  0.00  0.00    +0.000 NA
ATOM     14  C   UNL     1       0.652  13.042  20.258  0.00  0.00    +0.000 C 
ATOM     15  C   UNL     1       0.490  11.560  20.675  0.00  0.00    +0.000 C 
ATOM     16  N   UNL     1       0.292  10.712  19.485  0.00  0.00    +0.000 N 
ATOM     17  C   UNL     1      -0.782  11.177  18.592  0.00  0.00    +0.000 C 
ATOM     18  C   UNL     1      -0.558  12.658  18.212  0.00  0.00    +0.000 C 
ENDBRANCH   6  16
ENDBRANCH   2   9
ENDBRANCH   1   4
BRANCH   1  19
ATOM     19  C   UNL     1       4.836   4.436  15.686  0.00  0.00    +0.000 C 
ATOM     20  F   UNL     1       4.011   3.802  14.817  0.00  0.00    +0.000 F 
ATOM     21  F   UNL     1       4.819   5.760  15.351  0.00  0.00    +0.000 F 
BRANCH  19  22
ATOM     22  C   UNL     1       6.269   3.876  15.485  0.00  0.00    +0.000 C 
BRANCH  22  23
ATOM     23  N   UNL     1       7.404   4.744  15.885  0.00  0.00    +0.000 NA
ATOM     24  H   UNL     1       7.513   5.472  15.174  0.00  0.00    +0.000 HD
BRANCH  23  25
ATOM     25  C   UNL     1       7.220   5.399  17.179  0.00  0.00    +0.000 C 
ATOM     26  C   UNL     1       8.015   4.798  18.339  0.00  0.00    +0.000 C 
ATOM     27  C   UNL     1       7.959   5.890  19.401  0.00  0.00    +0.000 C 
ATOM     28  C   UNL     1       7.899   7.209  18.631  0.00  0.00    +0.000 C 
ATOM     29  C   UNL     1       7.738   6.838  17.157  0.00  0.00    +0.000 C 
ENDBRANCH  23  25
ENDBRANCH  22  23
ENDBRANCH  19  22
ENDBRANCH   1  19
BRANCH   1  30
ATOM     30  C   UNL     1       3.455   3.054  17.329  0.00  0.00    +0.000 C 
BRANCH  30  31
ATOM     31  C   UNL     1       2.712   2.909  18.637  0.00  0.00    +0.000 A 
ATOM     32  C   UNL     1       3.390   2.631  19.831  0.00  0.00    +0.000 A 
ATOM     33  C   UNL     1       2.700   2.607  21.046  0.00  0.00    +0.000 A 
ATOM     34  C   UNL     1       1.329   2.859  21.081  0.00  0.00    +0.000 A 
ATOM     35  C   UNL     1       0.642   3.115  19.897  0.00  0.00    +0.000 A 
ATOM     36  C   UNL     1       1.328   3.137  18.682  0.00  0.00    +0.000 A 
ENDBRANCH  30  31
ENDBRANCH   1  30
TORSDOF 9
ENDMDL
MODEL 5
REMARK VINA RESULT:      -8.3      1.781      4.977
REMARK  Name = 
REMARK  10 active torsions:
REMARK  status: ('A' for Active; 'I' for Inactive)
REMARK    1  A    between atoms: C_1  and  N_2
REMARK    2  A    between atoms: N_5  and  C_6
REMARK    3  A    between atoms: C_9  and  C_10
REMARK    4  A    between atoms: N_12  and  C_13
REMARK    5  A    between atoms: C_13  and  C_14
REMARK    6  A    between atoms: C_13  and  C_21
REMARK    7  A    between atoms: C_14  and  C_15
REMARK    8  A    between atoms: C_21  and  C_24
REMARK    9  A    between atoms: C_24  and  N_25
REMARK   10  A    between atoms: N_25  and  C_26
REMARK                            x       y       z     vdW  Elec       q    Type
REMARK                         _______ _______ _______ _____ _____    ______ ____
ROOT
ATOM      1  C   UNL     1       4.675   5.914  17.575  0.00  0.00    +0.000 C 
ENDROOT
BRANCH   1   4
ATOM      2  C   UNL     1       2.947   7.024  19.048  0.00  0.00    +0.000 C 
ATOM      3  O   UNL     1       3.019   6.200  19.947  0.00  0.00    +0.000 OA
ATOM      4  N   UNL     1       3.695   6.982  17.892  0.00  0.00    +0.000 N 
ATOM      5  H   UNL     1       3.357   7.538  17.112  0.00  0.00    +0.000 HD
BRANCH   2   9
ATOM      6  C   UNL     1       0.246  10.394  19.242  0.00  0.00    +0.000 A 
ATOM      7  C   UNL     1       0.483   9.578  20.358  0.00  0.00    +0.000 A 
ATOM      8  C   UNL     1       1.336   8.468  20.298  0.00  0.00    +0.000 A 
ATOM      9  C   UNL     1       1.969   8.144  19.103  0.00  0.00    +0.000 A 
ATOM     10  C   UNL     1       1.703   8.888  17.960  0.00  0.00    +0.000 A 
ATOM     11  C   UNL     1       0.854  10.004  18.036  0.00  0.00    +0.000 A 
BRANCH   6  16
ATOM     12  C   UNL     1      -0.899  15.648  20.416  0.00  0.00    +0.000 C 
ATOM     13  N   UNL     1      -1.207  14.304  19.935  0.00  0.00    +0.000 NA
ATOM     14  C   UNL     1      -1.014  13.305  21.008  0.00  0.00    +0.000 C 
ATOM     15  C   UNL     1      -1.306  11.857  20.545  0.00  0.00    +0.000 C 
ATOM     16  N   UNL     1      -0.519  11.536  19.339  0.00  0.00    +0.000 N 
ATOM     17  C   UNL     1      -0.657  12.523  18.256  0.00  0.00    +0.000 C 
ATOM     18  C   UNL     1      -0.348  13.943  18.783  0.00  0.00    +0.000 C 
ENDBRANCH   6  16
ENDBRANCH   2   9
ENDBRANCH   1   4
BRANCH   1  19
ATOM     19  C   UNL     1       5.821   6.490  16.707  0.00  0.00    +0.000 C 
ATOM     20  F   UNL     1       5.344   7.198  15.654  0.00  0.00    +0.000 F 
ATOM     21  F   UNL     1       6.528   7.363  17.483  0.00  0.00    +0.000 F 
BRANCH  19  22
ATOM     22  C   UNL     1       6.781   5.400  16.158  0.00  0.00    +0.000 C 
BRANCH  22  23
ATOM     23  N   UNL     1       7.254   5.548  14.760  0.00  0.00    +0.000 NA
ATOM     24  H   UNL     1       8.269   5.672  14.780  0.00  0.00    +0.000 HD
BRANCH  23  25
ATOM     25  C   UNL     1       6.954   4.397  13.910  0.00  0.00    +0.000 C 
ATOM     26  C   UNL     1       5.470   4.134  13.657  0.00  0.00    +0.000 C 
ATOM     27  C   UNL     1       5.483   3.191  12.460  0.00  0.00    +0.000 C 
ATOM     28  C   UNL     1       6.721   3.573  11.649  0.00  0.00    +0.000 C 
ATOM     29  C   UNL     1       7.483   4.597  12.490  0.00  0.00    +0.000 C 
ENDBRANCH  23  25
ENDBRANCH  22  23
ENDBRANCH  19  22
ENDBRANCH   1  19
BRANCH   1  30
ATOM     30  C   UNL     1       3.955   4.752  16.848  0.00  0.00    +0.000 C 
BRANCH  30  31
ATOM     31  C   UNL     1       3.159   3.790  17.697  0.00  0.00    +0.000 A 
ATOM     32  C   UNL     1       1.760   3.859  17.759  0.00  0.00    +0.000 A 
ATOM     33  C   UNL     1       1.035   2.895  18.464  0.00  0.00    +0.000 A 
ATOM     34  C   UNL     1       1.697   1.854  19.113  0.00  0.00    +0.000 A 
ATOM     35  C   UNL     1       3.087   1.788  19.077  0.00  0.00    +0.000 A 
ATOM     36  C   UNL     1       3.814   2.751  18.376  0.00  0.00    +0.000 A 
ENDBRANCH  30  31
ENDBRANCH   1  30
TORSDOF 9
ENDMDL
MODEL 6
REMARK VINA RESULT:      -8.3      0.857      1.342
REMARK  Name = 
REMARK  10 active torsions:
REMARK  status: ('A' for Active; 'I' for Inactive)
REMARK    1  A    between atoms: C_1  and  N_2
REMARK    2  A    between atoms: N_5  and  C_6
REMARK    3  A    between atoms: C_9  and  C_10
REMARK    4  A    between atoms: N_12  and  C_13
REMARK    5  A    between atoms: C_13  and  C_14
REMARK    6  A    between atoms: C_13  and  C_21
REMARK    7  A    between atoms: C_14  and  C_15
REMARK    8  A    between atoms: C_21  and  C_24
REMARK    9  A    between atoms: C_24  and  N_25
REMARK   10  A    between atoms: N_25  and  C_26
REMARK                            x       y       z     vdW  Elec       q    Type
REMARK                         _______ _______ _______ _____ _____    ______ ____
ROOT
ATOM      1  C   UNL     1       5.048   5.286  17.144  0.00  0.00    +0.000 C 
ENDROOT
BRANCH   1   4
ATOM      2  C   UNL     1       2.905   6.327  17.988  0.00  0.00    +0.000 C 
ATOM      3  O   UNL     1       2.211   5.345  17.772  0.00  0.00    +0.000 OA
ATOM      4  N   UNL     1       4.257   6.394  17.735  0.00  0.00    +0.000 N 
ATOM      5  H   UNL     1       4.664   7.323  17.684  0.00  0.00    +0.000 HD
BRANCH   2   9
ATOM      6  C   UNL     1       1.026   9.939  19.443  0.00  0.00    +0.000 A 
ATOM      7  C   UNL     1       1.535   9.849  18.138  0.00  0.00    +0.000 A 
ATOM      8  C   UNL     1       2.169   8.693  17.666  0.00  0.00    +0.000 A 
ATOM      9  C   UNL     1       2.316   7.592  18.503  0.00  0.00    +0.000 A 
ATOM     10  C   UNL     1       1.888   7.670  19.823  0.00  0.00    +0.000 A 
ATOM     11  C   UNL     1       1.245   8.832  20.281  0.00  0.00    +0.000 A 
BRANCH   6  16
ATOM     12  C   UNL     1      -0.001  14.491  22.359  0.00  0.00    +0.000 C 
ATOM     13  N   UNL     1      -0.299  13.462  21.367  0.00  0.00    +0.000 NA
ATOM     14  C   UNL     1      -0.346  12.124  21.995  0.00  0.00    +0.000 C 
ATOM     15  C   UNL     1      -0.637  10.991  20.983  0.00  0.00    +0.000 C 
ATOM     16  N   UNL     1       0.321  11.046  19.863  0.00  0.00    +0.000 N 
ATOM     17  C   UNL     1       0.424  12.370  19.228  0.00  0.00    +0.000 C 
ATOM     18  C   UNL     1       0.719  13.452  20.291  0.00  0.00    +0.000 C 
ENDBRANCH   6  16
ENDBRANCH   2   9
ENDBRANCH   1   4
BRANCH   1  19
ATOM     19  C   UNL     1       5.719   4.458  18.267  0.00  0.00    +0.000 C 
ATOM     20  F   UNL     1       7.048   4.302  18.047  0.00  0.00    +0.000 F 
ATOM     21  F   UNL     1       5.591   5.162  19.430  0.00  0.00    +0.000 F 
BRANCH  19  22
ATOM     22  C   UNL     1       5.093   3.050  18.449  0.00  0.00    +0.000 C 
BRANCH  22  23
ATOM     23  N   UNL     1       4.619   2.684  19.806  0.00  0.00    +0.000 NA
ATOM     24  H   UNL     1       5.228   3.140  20.490  0.00  0.00    +0.000 HD
BRANCH  23  25
ATOM     25  C   UNL     1       3.243   3.093  20.083  0.00  0.00    +0.000 C 
ATOM     26  C   UNL     1       2.169   2.403  19.241  0.00  0.00    +0.000 C 
ATOM     27  C   UNL     1       0.885   2.697  20.008  0.00  0.00    +0.000 C 
ATOM     28  C   UNL     1       1.293   2.780  21.478  0.00  0.00    +0.000 C 
ATOM     29  C   UNL     1       2.820   2.714  21.503  0.00  0.00    +0.000 C 
ENDBRANCH  23  25
ENDBRANCH  22  23
ENDBRANCH  19  22
ENDBRANCH   1  19
BRANCH   1  30
ATOM     30  C   UNL     1       6.104   5.867  16.172  0.00  0.00    +0.000 C 
BRANCH  30  31
ATOM     31  C   UNL     1       6.254   5.196  14.827  0.00  0.00    +0.000 A 
ATOM     32  C   UNL     1       7.393   5.398  14.037  0.00  0.00    +0.000 A 
ATOM     33  C   UNL     1       7.563   4.687  12.846  0.00  0.00    +0.000 A 
ATOM     34  C   UNL     1       6.598   3.769  12.433  0.00  0.00    +0.000 A 
ATOM     35  C   UNL     1       5.451   3.577  13.199  0.00  0.00    +0.000 A 
ATOM     36  C   UNL     1       5.279   4.288  14.388  0.00  0.00    +0.000 A 
ENDBRANCH  30  31
ENDBRANCH   1  30
TORSDOF 9
ENDMDL
MODEL 7
REMARK VINA RESULT:      -8.2      1.984      4.900
REMARK  Name = 
REMARK  10 active torsions:
REMARK  status: ('A' for Active; 'I' for Inactive)
REMARK    1  A    between atoms: C_1  and  N_2
REMARK    2  A    between atoms: N_5  and  C_6
REMARK    3  A    between atoms: C_9  and  C_10
REMARK    4  A    between atoms: N_12  and  C_13
REMARK    5  A    between atoms: C_13  and  C_14
REMARK    6  A    between atoms: C_13  and  C_21
REMARK    7  A    between atoms: C_14  and  C_15
REMARK    8  A    between atoms: C_21  and  C_24
REMARK    9  A    between atoms: C_24  and  N_25
REMARK   10  A    between atoms: N_25  and  C_26
REMARK                            x       y       z     vdW  Elec       q    Type
REMARK                         _______ _______ _______ _____ _____    ______ ____
ROOT
ATOM      1  C   UNL     1       4.338   4.393  17.424  0.00  0.00    +0.000 C 
ENDROOT
BRANCH   1   4
ATOM      2  C   UNL     1       3.436   6.243  18.890  0.00  0.00    +0.000 C 
ATOM      3  O   UNL     1       3.952   5.833  19.919  0.00  0.00    +0.000 OA
ATOM      4  N   UNL     1       3.567   5.639  17.660  0.00  0.00    +0.000 N 
ATOM      5  H   UNL     1       2.883   5.893  16.954  0.00  0.00    +0.000 HD
BRANCH   2   9
ATOM      6  C   UNL     1       0.990   9.808  18.946  0.00  0.00    +0.000 A 
ATOM      7  C   UNL     1       1.092   8.969  20.066  0.00  0.00    +0.000 A 
ATOM      8  C   UNL     1       1.860   7.798  20.050  0.00  0.00    +0.000 A 
ATOM      9  C   UNL     1       2.544   7.434  18.895  0.00  0.00    +0.000 A 
ATOM     10  C   UNL     1       2.410   8.203  17.745  0.00  0.00    +0.000 A 
ATOM     11  C   UNL     1       1.644   9.380  17.778  0.00  0.00    +0.000 A 
BRANCH   6  16
ATOM     12  C   UNL     1      -1.187  14.294  21.275  0.00  0.00    +0.000 C 
ATOM     13  N   UNL     1      -0.874  13.402  20.162  0.00  0.00    +0.000 NA
ATOM     14  C   UNL     1      -1.466  12.065  20.377  0.00  0.00    +0.000 C 
ATOM     15  C   UNL     1      -1.147  11.071  19.234  0.00  0.00    +0.000 C 
ATOM     16  N   UNL     1       0.309  11.005  19.006  0.00  0.00    +0.000 N 
ATOM     17  C   UNL     1       0.946  12.318  18.819  0.00  0.00    +0.000 C 
ATOM     18  C   UNL     1       0.590  13.258  19.993  0.00  0.00    +0.000 C 
ENDBRANCH   6  16
ENDBRANCH   2   9
ENDBRANCH   1   4
BRANCH   1  19
ATOM     19  C   UNL     1       5.040   4.459  16.046  0.00  0.00    +0.000 C 
ATOM     20  F   UNL     1       4.539   3.540  15.184  0.00  0.00    +0.000 F 
ATOM     21  F   UNL     1       4.779   5.687  15.509  0.00  0.00    +0.000 F 
BRANCH  19  22
ATOM     22  C   UNL     1       6.576   4.253  16.130  0.00  0.00    +0.000 C 
BRANCH  22  23
ATOM     23  N   UNL     1       7.216   4.423  17.457  0.00  0.00    +0.000 NA
ATOM     24  H   UNL     1       8.192   4.126  17.380  0.00  0.00    +0.000 HD
BRANCH  23  25
ATOM     25  C   UNL     1       7.199   5.799  17.950  0.00  0.00    +0.000 C 
ATOM     26  C   UNL     1       8.302   6.154  18.947  0.00  0.00    +0.000 C 
ATOM     27  C   UNL     1       8.290   7.679  18.950  0.00  0.00    +0.000 C 
ATOM     28  C   UNL     1       7.859   8.090  17.543  0.00  0.00    +0.000 C 
ATOM     29  C   UNL     1       7.460   6.801  16.824  0.00  0.00    +0.000 C 
ENDBRANCH  23  25
ENDBRANCH  22  23
ENDBRANCH  19  22
ENDBRANCH   1  19
BRANCH   1  30
ATOM     30  C   UNL     1       3.387   3.174  17.507  0.00  0.00    +0.000 C 
BRANCH  30  31
ATOM     31  C   UNL     1       2.670   2.940  18.816  0.00  0.00    +0.000 A 
ATOM     32  C   UNL     1       3.372   2.588  19.977  0.00  0.00    +0.000 A 
ATOM     33  C   UNL     1       2.706   2.480  21.200  0.00  0.00    +0.000 A 
ATOM     34  C   UNL     1       1.335   2.723  21.278  0.00  0.00    +0.000 A 
ATOM     35  C   UNL     1       0.624   3.052  20.127  0.00  0.00    +0.000 A 
ATOM     36  C   UNL     1       1.286   3.157  18.903  0.00  0.00    +0.000 A 
ENDBRANCH  30  31
ENDBRANCH   1  30
TORSDOF 9
ENDMDL
MODEL 8
REMARK VINA RESULT:      -8.2      2.017      4.966
REMARK  Name = 
REMARK  10 active torsions:
REMARK  status: ('A' for Active; 'I' for Inactive)
REMARK    1  A    between atoms: C_1  and  N_2
REMARK    2  A    between atoms: N_5  and  C_6
REMARK    3  A    between atoms: C_9  and  C_10
REMARK    4  A    between atoms: N_12  and  C_13
REMARK    5  A    between atoms: C_13  and  C_14
REMARK    6  A    between atoms: C_13  and  C_21
REMARK    7  A    between atoms: C_14  and  C_15
REMARK    8  A    between atoms: C_21  and  C_24
REMARK    9  A    between atoms: C_24  and  N_25
REMARK   10  A    between atoms: N_25  and  C_26
REMARK                            x       y       z     vdW  Elec       q    Type
REMARK                         _______ _______ _______ _____ _____    ______ ____
ROOT
ATOM      1  C   UNL     1       4.578   3.753  17.568  0.00  0.00    +0.000 C 
ENDROOT
BRANCH   1   4
ATOM      2  C   UNL     1       3.955   5.839  18.851  0.00  0.00    +0.000 C 
ATOM      3  O   UNL     1       4.602   5.555  19.848  0.00  0.00    +0.000 OA
ATOM      4  N   UNL     1       3.888   5.058  17.719  0.00  0.00    +0.000 N 
ATOM      5  H   UNL     1       3.117   5.243  17.085  0.00  0.00    +0.000 HD
BRANCH   2   9
ATOM      6  C   UNL     1       1.365   9.294  18.633  0.00  0.00    +0.000 A 
ATOM      7  C   UNL     1       2.295   9.008  17.622  0.00  0.00    +0.000 A 
ATOM      8  C   UNL     1       3.157   7.906  17.696  0.00  0.00    +0.000 A 
ATOM      9  C   UNL     1       3.110   7.063  18.801  0.00  0.00    +0.000 A 
ATOM     10  C   UNL     1       2.252   7.356  19.854  0.00  0.00    +0.000 A 
ATOM     11  C   UNL     1       1.386   8.458  19.763  0.00  0.00    +0.000 A 
BRANCH   6  16
ATOM     12  C   UNL     1      -2.752  12.643  20.090  0.00  0.00    +0.000 C 
ATOM     13  N   UNL     1      -1.713  12.136  19.197  0.00  0.00    +0.000 NA
ATOM     14  C   UNL     1      -1.965  10.722  18.847  0.00  0.00    +0.000 C 
ATOM     15  C   UNL     1      -0.880  10.127  17.918  0.00  0.00    +0.000 C 
ATOM     16  N   UNL     1       0.460  10.325  18.503  0.00  0.00    +0.000 N 
ATOM     17  C   UNL     1       0.741  11.715  18.896  0.00  0.00    +0.000 C 
ATOM     18  C   UNL     1      -0.376  12.245  19.824  0.00  0.00    +0.000 C 
ENDBRANCH   6  16
ENDBRANCH   2   9
ENDBRANCH   1   4
BRANCH   1  19
ATOM     19  C   UNL     1       5.253   3.670  16.177  0.00  0.00    +0.000 C 
ATOM     20  F   UNL     1       5.243   2.405  15.690  0.00  0.00    +0.000 F 
ATOM     21  F   UNL     1       4.515   4.432  15.315  0.00  0.00    +0.000 F 
BRANCH  19  22
ATOM     22  C   UNL     1       6.720   4.175  16.176  0.00  0.00    +0.000 C 
BRANCH  22  23
ATOM     23  N   UNL     1       7.293   4.610  17.474  0.00  0.00    +0.000 NA
ATOM     24  H   UNL     1       8.061   3.976  17.711  0.00  0.00    +0.000 HD
BRANCH  23  25
ATOM     25  C   UNL     1       7.819   5.974  17.461  0.00  0.00    +0.000 C 
ATOM     26  C   UNL     1       6.837   7.053  17.007  0.00  0.00    +0.000 C 
ATOM     27  C   UNL     1       7.494   8.343  17.482  0.00  0.00    +0.000 C 
ATOM     28  C   UNL     1       8.263   7.970  18.750  0.00  0.00    +0.000 C 
ATOM     29  C   UNL     1       8.178   6.449  18.869  0.00  0.00    +0.000 C 
ENDBRANCH  23  25
ENDBRANCH  22  23
ENDBRANCH  19  22
ENDBRANCH   1  19
BRANCH   1  30
ATOM     30  C   UNL     1       3.558   2.605  17.762  0.00  0.00    +0.000 C 
BRANCH  30  31
ATOM     31  C   UNL     1       2.734   2.614  19.028  0.00  0.00    +0.000 A 
ATOM     32  C   UNL     1       3.329   2.438  20.284  0.00  0.00    +0.000 A 
ATOM     33  C   UNL     1       2.568   2.556  21.450  0.00  0.00    +0.000 A 
ATOM     34  C   UNL     1       1.207   2.850  21.373  0.00  0.00    +0.000 A 
ATOM     35  C   UNL     1       0.601   3.004  20.129  0.00  0.00    +0.000 A 
ATOM     36  C   UNL     1       1.359   2.884  18.963  0.00  0.00    +0.000 A 
ENDBRANCH  30  31
ENDBRANCH   1  30
TORSDOF 9
ENDMDL
MODEL 9
REMARK VINA RESULT:      -8.2      1.579      4.915
REMARK  Name = 
REMARK  10 active torsions:
REMARK  status: ('A' for Active; 'I' for Inactive)
REMARK    1  A    between atoms: C_1  and  N_2
REMARK    2  A    between atoms: N_5  and  C_6
REMARK    3  A    between atoms: C_9  and  C_10
REMARK    4  A    between atoms: N_12  and  C_13
REMARK    5  A    between atoms: C_13  and  C_14
REMARK    6  A    between atoms: C_13  and  C_21
REMARK    7  A    between atoms: C_14  and  C_15
REMARK    8  A    between atoms: C_21  and  C_24
REMARK    9  A    between atoms: C_24  and  N_25
REMARK   10  A    between atoms: N_25  and  C_26
REMARK                            x       y       z     vdW  Elec       q    Type
REMARK                         _______ _______ _______ _____ _____    ______ ____
ROOT
ATOM      1  C   UNL     1       4.954   5.537  17.550  0.00  0.00    +0.000 C 
ENDROOT
BRANCH   1   4
ATOM      2  C   UNL     1       3.270   6.663  19.061  0.00  0.00    +0.000 C 
ATOM      3  O   UNL     1       3.414   5.884  19.991  0.00  0.00    +0.000 OA
ATOM      4  N   UNL     1       3.958   6.590  17.871  0.00  0.00    +0.000 N 
ATOM      5  H   UNL     1       3.564   7.099  17.086  0.00  0.00    +0.000 HD
BRANCH   2   9
ATOM      6  C   UNL     1       0.477   9.958  19.254  0.00  0.00    +0.000 A 
ATOM      7  C   UNL     1       0.768   9.175  20.381  0.00  0.00    +0.000 A 
ATOM      8  C   UNL     1       1.651   8.089  20.323  0.00  0.00    +0.000 A 
ATOM      9  C   UNL     1       2.262   7.756  19.118  0.00  0.00    +0.000 A 
ATOM     10  C   UNL     1       1.942   8.465  17.966  0.00  0.00    +0.000 A 
ATOM     11  C   UNL     1       1.063   9.558  18.041  0.00  0.00    +0.000 A 
BRANCH   6  16
ATOM     12  C   UNL     1      -3.999  12.914  20.483  0.00  0.00    +0.000 C 
ATOM     13  N   UNL     1      -2.649  12.714  19.963  0.00  0.00    +0.000 NA
ATOM     14  C   UNL     1      -2.655  11.747  18.845  0.00  0.00    +0.000 C 
ATOM     15  C   UNL     1      -1.243  11.480  18.269  0.00  0.00    +0.000 C 
ATOM     16  N   UNL     1      -0.319  11.080  19.347  0.00  0.00    +0.000 N 
ATOM     17  C   UNL     1      -0.305  11.999  20.496  0.00  0.00    +0.000 C 
ATOM     18  C   UNL     1      -1.741  12.218  21.023  0.00  0.00    +0.000 C 
ENDBRANCH   6  16
ENDBRANCH   2   9
ENDBRANCH   1   4
BRANCH   1  19
ATOM     19  C   UNL     1       6.063   6.119  16.640  0.00  0.00    +0.000 C 
ATOM     20  F   UNL     1       5.606   7.155  15.893  0.00  0.00    +0.000 F 
ATOM     21  F   UNL     1       7.042   6.619  17.451  0.00  0.00    +0.000 F 
BRANCH  19  22
ATOM     22  C   UNL     1       6.682   5.069  15.680  0.00  0.00    +0.000 C 
BRANCH  22  23
ATOM     23  N   UNL     1       6.423   5.234  14.229  0.00  0.00    +0.000 NA
ATOM     24  H   UNL     1       7.172   5.809  13.835  0.00  0.00    +0.000 HD
BRANCH  23  25
ATOM     25  C   UNL     1       6.382   3.974  13.488  0.00  0.00    +0.000 C 
ATOM     26  C   UNL     1       5.054   3.657  12.801  0.00  0.00    +0.000 C 
ATOM     27  C   UNL     1       5.428   2.562  11.810  0.00  0.00    +0.000 C 
ATOM     28  C   UNL     1       6.873   2.850  11.404  0.00  0.00    +0.000 C 
ATOM     29  C   UNL     1       7.351   3.989  12.305  0.00  0.00    +0.000 C 
ENDBRANCH  23  25
ENDBRANCH  22  23
ENDBRANCH  19  22
ENDBRANCH   1  19
BRANCH   1  30
ATOM     30  C   UNL     1       4.242   4.344  16.867  0.00  0.00    +0.000 C 
BRANCH  30  31
ATOM     31  C   UNL     1       3.249   3.562  17.695  0.00  0.00    +0.000 A 
ATOM     32  C   UNL     1       1.874   3.821  17.616  0.00  0.00    +0.000 A 
ATOM     33  C   UNL     1       0.963   3.017  18.307  0.00  0.00    +0.000 A 
ATOM     34  C   UNL     1       1.415   1.950  19.081  0.00  0.00    +0.000 A 
ATOM     35  C   UNL     1       2.780   1.698  19.184  0.00  0.00    +0.000 A 
ATOM     36  C   UNL     1       3.692   2.501  18.498  0.00  0.00    +0.000 A 
ENDBRANCH  30  31
ENDBRANCH   1  30
TORSDOF 9
ENDMDL
