MODEL 1
REMARK VINA RESULT:      -7.1      0.000      0.000
REMARK  Name = 
REMARK  6 active torsions:
REMARK  status: ('A' for Active; 'I' for Inactive)
REMARK    1  A    between atoms: C_1  and  C_2
REMARK    2  A    between atoms: C_12  and  C_13
REMARK    3  A    between atoms: C_17  and  C_18
REMARK    4  A    between atoms: C_21  and  C_22
REMARK    5  A    between atoms: C_22  and  C_23
REMARK    6  A    between atoms: C_22  and  C_24
REMARK                            x       y       z     vdW  Elec       q    Type
REMARK                         _______ _______ _______ _____ _____    ______ ____
ROOT
ATOM      1  C   UNL     1       0.749   8.370  21.704  0.00  0.00    +0.000 C 
ATOM      2  C   UNL     1       1.321   8.369  20.330  0.00  0.00    +0.000 A 
ATOM      3  N   UNL     1       2.148   7.306  19.973  0.00  0.00    +0.000 NA
ATOM      4  C   UNL     1       2.591   7.474  18.750  0.00  0.00    +0.000 A 
ATOM      5  N   UNL     1       3.444   6.563  18.185  0.00  0.00    +0.000 N 
ATOM      6  C   UNL     1       4.206   6.735  17.058  0.00  0.00    +0.000 C 
ATOM      7  O   UNL     1       4.296   7.773  16.409  0.00  0.00    +0.000 OA
ATOM      8  N   UNL     1       4.941   5.617  16.695  0.00  0.00    +0.000 N 
ATOM      9  C   UNL     1       5.771   5.611  15.500  0.00  0.00    +0.000 C 
ATOM     10  C   UNL     1       5.649   4.194  14.974  0.00  0.00    +0.000 C 
ATOM     11  C   UNL     1       5.520   3.349  16.235  0.00  0.00    +0.000 C 
ATOM     12  C   UNL     1       4.820   4.261  17.250  0.00  0.00    +0.000 C 
ATOM     13  S   UNL     1       1.982   8.820  17.919  0.00  0.00    +0.000 S 
ATOM     14  C   UNL     1       1.133   9.308  19.327  0.00  0.00    +0.000 A 
ATOM     15  H   UNL     1       3.659   5.817  18.825  0.00  0.00    +0.000 HD
ENDROOT
BRANCH  12  16
ATOM     16  C   UNL     1       5.515   4.137  18.616  0.00  0.00    +0.000 C 
ATOM     17  N   UNL     1       5.142   3.073  19.388  0.00  0.00    +0.000 N 
ATOM     18  O   UNL     1       6.284   4.987  19.051  0.00  0.00    +0.000 OA
ATOM     19  H   UNL     1       4.622   2.299  18.990  0.00  0.00    +0.000 HD
ATOM     20  H   UNL     1       5.603   2.944  20.278  0.00  0.00    +0.000 HD
ENDBRANCH  12  16
BRANCH  14  21
ATOM     21  C   UNL     1       0.330  10.570  19.442  0.00  0.00    +0.000 A 
ATOM     22  C   UNL     1       0.785  11.708  20.079  0.00  0.00    +0.000 A 
ATOM     23  S   UNL     1      -0.423  12.919  20.062  0.00  0.00    +0.000 S 
ATOM     24  C   UNL     1      -1.477  11.841  19.234  0.00  0.00    +0.000 A 
ATOM     25  N   UNL     1      -0.957  10.667  18.936  0.00  0.00    +0.000 NA
BRANCH  24  26
ATOM     26  C   UNL     1      -2.897  12.255  18.936  0.00  0.00    +0.000 C 
ATOM     27  C   UNL     1      -3.634  11.170  18.151  0.00  0.00    +0.000 C 
ATOM     28  C   UNL     1      -3.637  12.581  20.233  0.00  0.00    +0.000 C 
ENDBRANCH  24  26
ENDBRANCH  14  21
TORSDOF 3
ENDMDL
MODEL 2
REMARK VINA RESULT:      -7.0      3.060      8.842
REMARK  Name = 
REMARK  6 active torsions:
REMARK  status: ('A' for Active; 'I' for Inactive)
REMARK    1  A    between atoms: C_1  and  C_2
REMARK    2  A    between atoms: C_12  and  C_13
REMARK    3  A    between atoms: C_17  and  C_18
REMARK    4  A    between atoms: C_21  and  C_22
REMARK    5  A    between atoms: C_22  and  C_23
REMARK    6  A    between atoms: C_22  and  C_24
REMARK                            x       y       z     vdW  Elec       q    Type
REMARK                         _______ _______ _______ _____ _____    ______ ____
ROOT
ATOM      1  C   UNL     1       2.268   5.129  21.048  0.00  0.00    +0.000 C 
ATOM      2  C   UNL     1       2.106   6.409  20.307  0.00  0.00    +0.000 A 
ATOM      3  N   UNL     1       1.480   7.464  20.966  0.00  0.00    +0.000 NA
ATOM      4  C   UNL     1       1.389   8.501  20.168  0.00  0.00    +0.000 A 
ATOM      5  N   UNL     1       0.787   9.657  20.589  0.00  0.00    +0.000 N 
ATOM      6  C   UNL     1       0.363  10.700  19.805  0.00  0.00    +0.000 C 
ATOM      7  O   UNL     1       0.397  10.730  18.579  0.00  0.00    +0.000 OA
ATOM      8  N   UNL     1      -0.169  11.764  20.518  0.00  0.00    +0.000 N 
ATOM      9  C   UNL     1      -0.628  12.971  19.847  0.00  0.00    +0.000 C 
ATOM     10  C   UNL     1      -0.276  14.085  20.814  0.00  0.00    +0.000 C 
ATOM     11  C   UNL     1      -0.455  13.446  22.185  0.00  0.00    +0.000 C 
ATOM     12  C   UNL     1      -0.127  11.963  21.974  0.00  0.00    +0.000 C 
ATOM     13  S   UNL     1       2.124   8.333  18.649  0.00  0.00    +0.000 S 
ATOM     14  C   UNL     1       2.511   6.703  19.014  0.00  0.00    +0.000 A 
ATOM     15  H   UNL     1       0.447   9.569  21.532  0.00  0.00    +0.000 HD
ENDROOT
BRANCH  12  16
ATOM     16  C   UNL     1      -1.168  11.098  22.702  0.00  0.00    +0.000 C 
ATOM     17  N   UNL     1      -2.312  11.733  23.094  0.00  0.00    +0.000 N 
ATOM     18  O   UNL     1      -0.962   9.930  23.015  0.00  0.00    +0.000 OA
ATOM     19  H   UNL     1      -2.553  12.645  22.724  0.00  0.00    +0.000 HD
ATOM     20  H   UNL     1      -3.031  11.185  23.547  0.00  0.00    +0.000 HD
ENDBRANCH  12  16
BRANCH  14  21
ATOM     21  C   UNL     1       3.170   5.751  18.059  0.00  0.00    +0.000 A 
ATOM     22  C   UNL     1       2.727   4.462  17.840  0.00  0.00    +0.000 A 
ATOM     23  S   UNL     1       3.759   3.661  16.735  0.00  0.00    +0.000 S 
ATOM     24  C   UNL     1       4.740   5.072  16.645  0.00  0.00    +0.000 A 
ATOM     25  N   UNL     1       4.308   6.100  17.348  0.00  0.00    +0.000 NA
BRANCH  24  26
ATOM     26  C   UNL     1       6.012   5.054  15.836  0.00  0.00    +0.000 C 
ATOM     27  C   UNL     1       7.189   4.548  16.670  0.00  0.00    +0.000 C 
ATOM     28  C   UNL     1       5.831   4.199  14.582  0.00  0.00    +0.000 C 
ENDBRANCH  24  26
ENDBRANCH  14  21
TORSDOF 3
ENDMDL
MODEL 3
REMARK VINA RESULT:      -7.0      1.314      2.001
REMARK  Name = 
REMARK  6 active torsions:
REMARK  status: ('A' for Active; 'I' for Inactive)
REMARK    1  A    between atoms: C_1  and  C_2
REMARK    2  A    between atoms: C_12  and  C_13
REMARK    3  A    between atoms: C_17  and  C_18
REMARK    4  A    between atoms: C_21  and  C_22
REMARK    5  A    between atoms: C_22  and  C_23
REMARK    6  A    between atoms: C_22  and  C_24
REMARK                            x       y       z     vdW  Elec       q    Type
REMARK                         _______ _______ _______ _____ _____    ______ ____
ROOT
ATOM      1  C   UNL     1       0.701   8.502  21.627  0.00  0.00    +0.000 C 
ATOM      2  C   UNL     1       1.319   8.481  20.274  0.00  0.00    +0.000 A 
ATOM      3  N   UNL     1       2.104   7.381  19.937  0.00  0.00    +0.000 NA
ATOM      4  C   UNL     1       2.596   7.534  18.730  0.00  0.00    +0.000 A 
ATOM      5  N   UNL     1       3.422   6.585  18.187  0.00  0.00    +0.000 N 
ATOM      6  C   UNL     1       4.230   6.727  17.088  0.00  0.00    +0.000 C 
ATOM      7  O   UNL     1       4.392   7.763  16.451  0.00  0.00    +0.000 OA
ATOM      8  N   UNL     1       4.919   5.575  16.741  0.00  0.00    +0.000 N 
ATOM      9  C   UNL     1       5.789   5.536  15.574  0.00  0.00    +0.000 C 
ATOM     10  C   UNL     1       5.615   4.129  15.033  0.00  0.00    +0.000 C 
ATOM     11  C   UNL     1       5.400   3.285  16.282  0.00  0.00    +0.000 C 
ATOM     12  C   UNL     1       4.713   4.223  17.280  0.00  0.00    +0.000 C 
ATOM     13  S   UNL     1       2.083   8.915  17.890  0.00  0.00    +0.000 S 
ATOM     14  C   UNL     1       1.212   9.435  19.273  0.00  0.00    +0.000 A 
ATOM     15  H   UNL     1       3.577   5.825  18.828  0.00  0.00    +0.000 HD
ENDROOT
BRANCH  12  16
ATOM     16  C   UNL     1       5.353   4.056  18.667  0.00  0.00    +0.000 C 
ATOM     17  N   UNL     1       5.069   2.894  19.327  0.00  0.00    +0.000 N 
ATOM     18  O   UNL     1       6.000   4.943  19.214  0.00  0.00    +0.000 OA
ATOM     19  H   UNL     1       4.660   2.106  18.838  0.00  0.00    +0.000 HD
ATOM     20  H   UNL     1       5.500   2.738  20.228  0.00  0.00    +0.000 HD
ENDBRANCH  12  16
BRANCH  14  21
ATOM     21  C   UNL     1       0.470  10.735  19.370  0.00  0.00    +0.000 A 
ATOM     22  C   UNL     1      -0.891  10.853  19.170  0.00  0.00    +0.000 A 
ATOM     23  S   UNL     1      -1.370  12.491  19.303  0.00  0.00    +0.000 S 
ATOM     24  C   UNL     1       0.268  12.934  19.590  0.00  0.00    +0.000 A 
ATOM     25  N   UNL     1       1.120  11.930  19.639  0.00  0.00    +0.000 NA
BRANCH  24  26
ATOM     26  C   UNL     1       0.642  14.389  19.727  0.00  0.00    +0.000 C 
ATOM     27  C   UNL     1       2.062  14.643  19.221  0.00  0.00    +0.000 C 
ATOM     28  C   UNL     1      -0.363  15.267  18.980  0.00  0.00    +0.000 C 
ENDBRANCH  24  26
ENDBRANCH  14  21
TORSDOF 3
ENDMDL
MODEL 4
REMARK VINA RESULT:      -6.9      1.059      1.315
REMARK  Name = 
REMARK  6 active torsions:
REMARK  status: ('A' for Active; 'I' for Inactive)
REMARK    1  A    between atoms: C_1  and  C_2
REMARK    2  A    between atoms: C_12  and  C_13
REMARK    3  A    between atoms: C_17  and  C_18
REMARK    4  A    between atoms: C_21  and  C_22
REMARK    5  A    between atoms: C_22  and  C_23
REMARK    6  A    between atoms: C_22  and  C_24
REMARK                            x       y       z     vdW  Elec       q    Type
REMARK                         _______ _______ _______ _____ _____    ______ ____
ROOT
ATOM      1  C   UNL     1       0.453   8.753  22.008  0.00  0.00    +0.000 C 
ATOM      2  C   UNL     1       1.027   8.727  20.636  0.00  0.00    +0.000 A 
ATOM      3  N   UNL     1       1.824   7.639  20.287  0.00  0.00    +0.000 NA
ATOM      4  C   UNL     1       2.273   7.786  19.064  0.00  0.00    +0.000 A 
ATOM      5  N   UNL     1       3.102   6.847  18.506  0.00  0.00    +0.000 N 
ATOM      6  C   UNL     1       3.870   6.991  17.379  0.00  0.00    +0.000 C 
ATOM      7  O   UNL     1       3.989   8.022  16.724  0.00  0.00    +0.000 OA
ATOM      8  N   UNL     1       4.573   5.850  17.024  0.00  0.00    +0.000 N 
ATOM      9  C   UNL     1       5.405   5.813  15.831  0.00  0.00    +0.000 C 
ATOM     10  C   UNL     1       5.243   4.396  15.314  0.00  0.00    +0.000 C 
ATOM     11  C   UNL     1       5.088   3.564  16.580  0.00  0.00    +0.000 C 
ATOM     12  C   UNL     1       4.413   4.502  17.588  0.00  0.00    +0.000 C 
ATOM     13  S   UNL     1       1.704   9.144  18.223  0.00  0.00    +0.000 S 
ATOM     14  C   UNL     1       0.867   9.664  19.627  0.00  0.00    +0.000 A 
ATOM     15  H   UNL     1       3.294   6.100  19.151  0.00  0.00    +0.000 HD
ENDROOT
BRANCH  12  16
ATOM     16  C   UNL     1       5.102   4.367  18.956  0.00  0.00    +0.000 C 
ATOM     17  N   UNL     1       5.183   3.103  19.469  0.00  0.00    +0.000 N 
ATOM     18  O   UNL     1       5.471   5.334  19.613  0.00  0.00    +0.000 OA
ATOM     19  H   UNL     1       5.013   2.293  18.884  0.00  0.00    +0.000 HD
ATOM     20  H   UNL     1       5.659   2.976  20.351  0.00  0.00    +0.000 HD
ENDBRANCH  12  16
BRANCH  14  21
ATOM     21  C   UNL     1       0.100  10.949  19.731  0.00  0.00    +0.000 A 
ATOM     22  C   UNL     1       0.541  12.146  19.201  0.00  0.00    +0.000 A 
ATOM     23  S   UNL     1      -0.564  13.400  19.569  0.00  0.00    +0.000 S 
ATOM     24  C   UNL     1      -1.538  12.274  20.432  0.00  0.00    +0.000 A 
ATOM     25  N   UNL     1      -1.106  11.029  20.411  0.00  0.00    +0.000 NA
BRANCH  24  26
ATOM     26  C   UNL     1      -2.762  12.749  21.173  0.00  0.00    +0.000 C 
ATOM     27  C   UNL     1      -2.687  12.381  22.654  0.00  0.00    +0.000 C 
ATOM     28  C   UNL     1      -2.935  14.258  20.999  0.00  0.00    +0.000 C 
ENDBRANCH  24  26
ENDBRANCH  14  21
TORSDOF 3
ENDMDL
MODEL 5
REMARK VINA RESULT:      -6.9      1.496      1.908
REMARK  Name = 
REMARK  6 active torsions:
REMARK  status: ('A' for Active; 'I' for Inactive)
REMARK    1  A    between atoms: C_1  and  C_2
REMARK    2  A    between atoms: C_12  and  C_13
REMARK    3  A    between atoms: C_17  and  C_18
REMARK    4  A    between atoms: C_21  and  C_22
REMARK    5  A    between atoms: C_22  and  C_23
REMARK    6  A    between atoms: C_22  and  C_24
REMARK                            x       y       z     vdW  Elec       q    Type
REMARK                         _______ _______ _______ _____ _____    ______ ____
ROOT
ATOM      1  C   UNL     1       0.450   8.695  22.100  0.00  0.00    +0.000 C 
ATOM      2  C   UNL     1       1.006   8.678  20.720  0.00  0.00    +0.000 A 
ATOM      3  N   UNL     1       1.811   7.600  20.359  0.00  0.00    +0.000 NA
ATOM      4  C   UNL     1       2.243   7.755  19.130  0.00  0.00    +0.000 A 
ATOM      5  N   UNL     1       3.075   6.827  18.560  0.00  0.00    +0.000 N 
ATOM      6  C   UNL     1       3.827   6.982  17.424  0.00  0.00    +0.000 C 
ATOM      7  O   UNL     1       3.926   8.016  16.769  0.00  0.00    +0.000 OA
ATOM      8  N   UNL     1       4.538   5.850  17.058  0.00  0.00    +0.000 N 
ATOM      9  C   UNL     1       5.355   5.825  15.853  0.00  0.00    +0.000 C 
ATOM     10  C   UNL     1       5.203   4.408  15.335  0.00  0.00    +0.000 C 
ATOM     11  C   UNL     1       5.074   3.571  16.601  0.00  0.00    +0.000 C 
ATOM     12  C   UNL     1       4.401   4.499  17.620  0.00  0.00    +0.000 C 
ATOM     13  S   UNL     1       1.648   9.108  18.300  0.00  0.00    +0.000 S 
ATOM     14  C   UNL     1       0.822   9.616  19.716  0.00  0.00    +0.000 A 
ATOM     15  H   UNL     1       3.284   6.081  19.201  0.00  0.00    +0.000 HD
ENDROOT
BRANCH  12  16
ATOM     16  C   UNL     1       5.109   4.368  18.978  0.00  0.00    +0.000 C 
ATOM     17  N   UNL     1       5.204   3.106  19.491  0.00  0.00    +0.000 N 
ATOM     18  O   UNL     1       5.480   5.338  19.631  0.00  0.00    +0.000 OA
ATOM     19  H   UNL     1       5.032   2.294  18.908  0.00  0.00    +0.000 HD
ATOM     20  H   UNL     1       5.693   2.981  20.367  0.00  0.00    +0.000 HD
ENDBRANCH  12  16
BRANCH  14  21
ATOM     21  C   UNL     1       0.043  10.892  19.833  0.00  0.00    +0.000 A 
ATOM     22  C   UNL     1      -1.184  11.095  19.233  0.00  0.00    +0.000 A 
ATOM     23  S   UNL     1      -1.738  12.684  19.539  0.00  0.00    +0.000 S 
ATOM     24  C   UNL     1      -0.298  13.004  20.424  0.00  0.00    +0.000 A 
ATOM     25  N   UNL     1       0.528  11.984  20.537  0.00  0.00    +0.000 NA
BRANCH  24  26
ATOM     26  C   UNL     1      -0.040  14.386  20.969  0.00  0.00    +0.000 C 
ATOM     27  C   UNL     1      -0.918  15.426  20.274  0.00  0.00    +0.000 C 
ATOM     28  C   UNL     1      -0.268  14.411  22.481  0.00  0.00    +0.000 C 
ENDBRANCH  24  26
ENDBRANCH  14  21
TORSDOF 3
ENDMDL
MODEL 6
REMARK VINA RESULT:      -6.8      1.430      1.586
REMARK  Name = 
REMARK  6 active torsions:
REMARK  status: ('A' for Active; 'I' for Inactive)
REMARK    1  A    between atoms: C_1  and  C_2
REMARK    2  A    between atoms: C_12  and  C_13
REMARK    3  A    between atoms: C_17  and  C_18
REMARK    4  A    between atoms: C_21  and  C_22
REMARK    5  A    between atoms: C_22  and  C_23
REMARK    6  A    between atoms: C_22  and  C_24
REMARK                            x       y       z     vdW  Elec       q    Type
REMARK                         _______ _______ _______ _____ _____    ______ ____
ROOT
ATOM      1  C   UNL     1      -0.154   8.871  22.419  0.00  0.00    +0.000 C 
ATOM      2  C   UNL     1       0.585   8.847  21.128  0.00  0.00    +0.000 A 
ATOM      3  N   UNL     1       1.208   7.657  20.760  0.00  0.00    +0.000 NA
ATOM      4  C   UNL     1       1.837   7.814  19.620  0.00  0.00    +0.000 A 
ATOM      5  N   UNL     1       2.546   6.781  19.065  0.00  0.00    +0.000 N 
ATOM      6  C   UNL     1       3.473   6.865  18.057  0.00  0.00    +0.000 C 
ATOM      7  O   UNL     1       3.868   7.903  17.535  0.00  0.00    +0.000 OA
ATOM      8  N   UNL     1       3.995   5.641  17.666  0.00  0.00    +0.000 N 
ATOM      9  C   UNL     1       4.959   5.542  16.580  0.00  0.00    +0.000 C 
ATOM     10  C   UNL     1       4.611   4.232  15.899  0.00  0.00    +0.000 C 
ATOM     11  C   UNL     1       4.136   3.344  17.041  0.00  0.00    +0.000 C 
ATOM     12  C   UNL     1       3.516   4.309  18.059  0.00  0.00    +0.000 C 
ATOM     13  S   UNL     1       1.647   9.323  18.870  0.00  0.00    +0.000 S 
ATOM     14  C   UNL     1       0.738   9.879  20.214  0.00  0.00    +0.000 A 
ATOM     15  H   UNL     1       2.509   5.960  19.644  0.00  0.00    +0.000 HD
ENDROOT
BRANCH  12  16
ATOM     16  C   UNL     1       3.976   3.928  19.475  0.00  0.00    +0.000 C 
ATOM     17  N   UNL     1       5.056   3.094  19.554  0.00  0.00    +0.000 N 
ATOM     18  O   UNL     1       3.363   4.255  20.485  0.00  0.00    +0.000 OA
ATOM     19  H   UNL     1       5.648   2.933  18.747  0.00  0.00    +0.000 HD
ATOM     20  H   UNL     1       5.404   2.850  20.471  0.00  0.00    +0.000 HD
ENDBRANCH  12  16
BRANCH  14  21
ATOM     21  C   UNL     1       0.214  11.276  20.367  0.00  0.00    +0.000 A 
ATOM     22  C   UNL     1       1.018  12.368  20.627  0.00  0.00    +0.000 A 
ATOM     23  S   UNL     1       0.065  13.779  20.795  0.00  0.00    +0.000 S 
ATOM     24  C   UNL     1      -1.353  12.839  20.538  0.00  0.00    +0.000 A 
ATOM     25  N   UNL     1      -1.141  11.562  20.290  0.00  0.00    +0.000 NA
BRANCH  24  26
ATOM     26  C   UNL     1      -2.713  13.482  20.644  0.00  0.00    +0.000 C 
ATOM     27  C   UNL     1      -3.803  12.559  20.101  0.00  0.00    +0.000 C 
ATOM     28  C   UNL     1      -3.005  13.867  22.095  0.00  0.00    +0.000 C 
ENDBRANCH  24  26
ENDBRANCH  14  21
TORSDOF 3
ENDMDL
MODEL 7
REMARK VINA RESULT:      -6.8      1.371      1.702
REMARK  Name = 
REMARK  6 active torsions:
REMARK  status: ('A' for Active; 'I' for Inactive)
REMARK    1  A    between atoms: C_1  and  C_2
REMARK    2  A    between atoms: C_12  and  C_13
REMARK    3  A    between atoms: C_17  and  C_18
REMARK    4  A    between atoms: C_21  and  C_22
REMARK    5  A    between atoms: C_22  and  C_23
REMARK    6  A    between atoms: C_22  and  C_24
REMARK                            x       y       z     vdW  Elec       q    Type
REMARK                         _______ _______ _______ _____ _____    ______ ____
ROOT
ATOM      1  C   UNL     1       1.016   8.227  21.747  0.00  0.00    +0.000 C 
ATOM      2  C   UNL     1       1.474   8.236  20.332  0.00  0.00    +0.000 A 
ATOM      3  N   UNL     1       2.355   7.235  19.929  0.00  0.00    +0.000 NA
ATOM      4  C   UNL     1       2.683   7.405  18.670  0.00  0.00    +0.000 A 
ATOM      5  N   UNL     1       3.561   6.552  18.055  0.00  0.00    +0.000 N 
ATOM      6  C   UNL     1       4.212   6.756  16.866  0.00  0.00    +0.000 C 
ATOM      7  O   UNL     1       4.162   7.779  16.191  0.00  0.00    +0.000 OA
ATOM      8  N   UNL     1       5.005   5.691  16.466  0.00  0.00    +0.000 N 
ATOM      9  C   UNL     1       5.735   5.721  15.207  0.00  0.00    +0.000 C 
ATOM     10  C   UNL     1       5.689   4.285  14.721  0.00  0.00    +0.000 C 
ATOM     11  C   UNL     1       5.733   3.467  16.005  0.00  0.00    +0.000 C 
ATOM     12  C   UNL     1       5.044   4.345  17.056  0.00  0.00    +0.000 C 
ATOM     13  S   UNL     1       1.898   8.675  17.866  0.00  0.00    +0.000 S 
ATOM     14  C   UNL     1       1.128   9.129  19.329  0.00  0.00    +0.000 A 
ATOM     15  H   UNL     1       3.888   5.843  18.690  0.00  0.00    +0.000 HD
ENDROOT
BRANCH  12  16
ATOM     16  C   UNL     1       5.854   4.314  18.362  0.00  0.00    +0.000 C 
ATOM     17  N   UNL     1       7.213   4.289  18.228  0.00  0.00    +0.000 N 
ATOM     18  O   UNL     1       5.332   4.213  19.467  0.00  0.00    +0.000 OA
ATOM     19  H   UNL     1       7.653   4.512  17.343  0.00  0.00    +0.000 HD
ATOM     20  H   UNL     1       7.776   4.301  19.068  0.00  0.00    +0.000 HD
ENDBRANCH  12  16
BRANCH  14  21
ATOM     21  C   UNL     1       0.235  10.324  19.484  0.00  0.00    +0.000 A 
ATOM     22  C   UNL     1      -0.643  10.753  18.508  0.00  0.00    +0.000 A 
ATOM     23  S   UNL     1      -1.445  12.176  19.016  0.00  0.00    +0.000 S 
ATOM     24  C   UNL     1      -0.551  12.142  20.486  0.00  0.00    +0.000 A 
ATOM     25  N   UNL     1       0.259  11.112  20.625  0.00  0.00    +0.000 NA
BRANCH  24  26
ATOM     26  C   UNL     1      -0.699  13.264  21.483  0.00  0.00    +0.000 C 
ATOM     27  C   UNL     1      -1.738  14.283  21.017  0.00  0.00    +0.000 C 
ATOM     28  C   UNL     1      -1.070  12.705  22.858  0.00  0.00    +0.000 C 
ENDBRANCH  24  26
ENDBRANCH  14  21
TORSDOF 3
ENDMDL
MODEL 8
REMARK VINA RESULT:      -6.7      0.759      1.043
REMARK  Name = 
REMARK  6 active torsions:
REMARK  status: ('A' for Active; 'I' for Inactive)
REMARK    1  A    between atoms: C_1  and  C_2
REMARK    2  A    between atoms: C_12  and  C_13
REMARK    3  A    between atoms: C_17  and  C_18
REMARK    4  A    between atoms: C_21  and  C_22
REMARK    5  A    between atoms: C_22  and  C_23
REMARK    6  A    between atoms: C_22  and  C_24
REMARK                            x       y       z     vdW  Elec       q    Type
REMARK                         _______ _______ _______ _____ _____    ______ ____
ROOT
ATOM      1  C   UNL     1       0.852   8.434  21.704  0.00  0.00    +0.000 C 
ATOM      2  C   UNL     1       1.392   8.420  20.317  0.00  0.00    +0.000 A 
ATOM      3  N   UNL     1       2.206   7.352  19.949  0.00  0.00    +0.000 NA
ATOM      4  C   UNL     1       2.620   7.508  18.714  0.00  0.00    +0.000 A 
ATOM      5  N   UNL     1       3.456   6.589  18.136  0.00  0.00    +0.000 N 
ATOM      6  C   UNL     1       4.192   6.751  16.990  0.00  0.00    +0.000 C 
ATOM      7  O   UNL     1       4.269   7.783  16.331  0.00  0.00    +0.000 OA
ATOM      8  N   UNL     1       4.913   5.626  16.618  0.00  0.00    +0.000 N 
ATOM      9  C   UNL     1       5.715   5.608  15.403  0.00  0.00    +0.000 C 
ATOM     10  C   UNL     1       5.575   4.187  14.892  0.00  0.00    +0.000 C 
ATOM     11  C   UNL     1       5.473   3.353  16.162  0.00  0.00    +0.000 C 
ATOM     12  C   UNL     1       4.802   4.275  17.187  0.00  0.00    +0.000 C 
ATOM     13  S   UNL     1       1.996   8.850  17.887  0.00  0.00    +0.000 S 
ATOM     14  C   UNL     1       1.182   9.352  19.312  0.00  0.00    +0.000 A 
ATOM     15  H   UNL     1       3.684   5.848  18.777  0.00  0.00    +0.000 HD
ENDROOT
BRANCH  12  16
ATOM     16  C   UNL     1       5.528   4.159  18.536  0.00  0.00    +0.000 C 
ATOM     17  N   UNL     1       6.763   4.739  18.609  0.00  0.00    +0.000 N 
ATOM     18  O   UNL     1       5.090   3.500  19.473  0.00  0.00    +0.000 OA
ATOM     19  H   UNL     1       7.070   5.397  17.901  0.00  0.00    +0.000 HD
ATOM     20  H   UNL     1       7.254   4.709  19.492  0.00  0.00    +0.000 HD
ENDBRANCH  12  16
BRANCH  14  21
ATOM     21  C   UNL     1       0.387  10.618  19.436  0.00  0.00    +0.000 A 
ATOM     22  C   UNL     1       0.955  11.876  19.457  0.00  0.00    +0.000 A 
ATOM     23  S   UNL     1      -0.254  13.068  19.670  0.00  0.00    +0.000 S 
ATOM     24  C   UNL     1      -1.446  11.830  19.747  0.00  0.00    +0.000 A 
ATOM     25  N   UNL     1      -0.993  10.605  19.574  0.00  0.00    +0.000 NA
BRANCH  24  26
ATOM     26  C   UNL     1      -2.883  12.185  20.036  0.00  0.00    +0.000 C 
ATOM     27  C   UNL     1      -2.999  13.605  20.590  0.00  0.00    +0.000 C 
ATOM     28  C   UNL     1      -3.733  12.025  18.775  0.00  0.00    +0.000 C 
ENDBRANCH  24  26
ENDBRANCH  14  21
TORSDOF 3
ENDMDL
MODEL 9
REMARK VINA RESULT:      -6.7      2.015      2.392
REMARK  Name = 
REMARK  6 active torsions:
REMARK  status: ('A' for Active; 'I' for Inactive)
REMARK    1  A    between atoms: C_1  and  C_2
REMARK    2  A    between atoms: C_12  and  C_13
REMARK    3  A    between atoms: C_17  and  C_18
REMARK    4  A    between atoms: C_21  and  C_22
REMARK    5  A    between atoms: C_22  and  C_23
REMARK    6  A    between atoms: C_22  and  C_24
REMARK                            x       y       z     vdW  Elec       q    Type
REMARK                         _______ _______ _______ _____ _____    ______ ____
ROOT
ATOM      1  C   UNL     1      -0.162   8.860  22.378  0.00  0.00    +0.000 C 
ATOM      2  C   UNL     1       0.576   8.847  21.086  0.00  0.00    +0.000 A 
ATOM      3  N   UNL     1       1.221   7.667  20.720  0.00  0.00    +0.000 NA
ATOM      4  C   UNL     1       1.845   7.833  19.579  0.00  0.00    +0.000 A 
ATOM      5  N   UNL     1       2.573   6.812  19.025  0.00  0.00    +0.000 N 
ATOM      6  C   UNL     1       3.496   6.911  18.016  0.00  0.00    +0.000 C 
ATOM      7  O   UNL     1       3.871   7.955  17.491  0.00  0.00    +0.000 OA
ATOM      8  N   UNL     1       4.040   5.696  17.627  0.00  0.00    +0.000 N 
ATOM      9  C   UNL     1       5.005   5.611  16.541  0.00  0.00    +0.000 C 
ATOM     10  C   UNL     1       4.680   4.294  15.863  0.00  0.00    +0.000 C 
ATOM     11  C   UNL     1       4.223   3.400  17.008  0.00  0.00    +0.000 C 
ATOM     12  C   UNL     1       3.586   4.356  18.024  0.00  0.00    +0.000 C 
ATOM     13  S   UNL     1       1.625   9.336  18.825  0.00  0.00    +0.000 S 
ATOM     14  C   UNL     1       0.708   9.878  20.169  0.00  0.00    +0.000 A 
ATOM     15  H   UNL     1       2.552   5.992  19.607  0.00  0.00    +0.000 HD
ENDROOT
BRANCH  12  16
ATOM     16  C   UNL     1       4.056   3.987  19.440  0.00  0.00    +0.000 C 
ATOM     17  N   UNL     1       5.185   3.222  19.522  0.00  0.00    +0.000 N 
ATOM     18  O   UNL     1       3.414   4.263  20.448  0.00  0.00    +0.000 OA
ATOM     19  H   UNL     1       5.794   3.107  18.719  0.00  0.00    +0.000 HD
ATOM     20  H   UNL     1       5.539   2.989  20.439  0.00  0.00    +0.000 HD
ENDBRANCH  12  16
BRANCH  14  21
ATOM     21  C   UNL     1       0.159  11.266  20.319  0.00  0.00    +0.000 A 
ATOM     22  C   UNL     1      -0.434  11.967  19.288  0.00  0.00    +0.000 A 
ATOM     23  S   UNL     1      -0.882  13.532  19.816  0.00  0.00    +0.000 S 
ATOM     24  C   UNL     1      -0.233  13.181  21.370  0.00  0.00    +0.000 A 
ATOM     25  N   UNL     1       0.243  11.961  21.516  0.00  0.00    +0.000 NA
BRANCH  24  26
ATOM     26  C   UNL     1      -0.204  14.251  22.433  0.00  0.00    +0.000 C 
ATOM     27  C   UNL     1      -0.447  15.634  21.830  0.00  0.00    +0.000 C 
ATOM     28  C   UNL     1      -1.235  13.946  23.521  0.00  0.00    +0.000 C 
ENDBRANCH  24  26
ENDBRANCH  14  21
TORSDOF 3
ENDMDL
