MODEL 1
REMARK VINA RESULT:      -7.4      0.000      0.000
REMARK  Name = 
REMARK  5 active torsions:
REMARK  status: ('A' for Active; 'I' for Inactive)
REMARK    1  A    between atoms: C_1  and  O_2
REMARK    2  A    between atoms: O_2  and  C_3
REMARK    3  A    between atoms: C_7  and  C_8
REMARK    4  A    between atoms: C_14  and  O_15
REMARK    5  A    between atoms: O_15  and  C_16
REMARK                            x       y       z     vdW  Elec       q    Type
REMARK                         _______ _______ _______ _____ _____    ______ ____
ROOT
ATOM      1  C   UNL     1       7.385   5.013  15.797  0.00  0.00    +0.000 C 
ATOM      2  C   UNL     1       6.309   5.213  16.574  0.00  0.00    +0.000 C 
ATOM      3  C   UNL     1       4.913   5.555  16.137  0.00  0.00    +0.000 C 
ATOM      4  O   UNL     1       4.247   6.325  17.167  0.00  0.00    +0.000 OA
ATOM      5  C   UNL     1       4.064   5.474  18.236  0.00  0.00    +0.000 A 
ATOM      6  C   UNL     1       2.790   5.341  18.753  0.00  0.00    +0.000 A 
ATOM      7  C   UNL     1       2.474   4.224  19.526  0.00  0.00    +0.000 A 
ATOM      8  C   UNL     1       3.468   3.273  19.792  0.00  0.00    +0.000 A 
ATOM      9  C   UNL     1       4.794   3.495  19.389  0.00  0.00    +0.000 A 
ATOM     10  C   UNL     1       5.088   4.615  18.628  0.00  0.00    +0.000 A 
ATOM     11  C   UNL     1       6.415   4.827  18.011  0.00  0.00    +0.000 C 
ATOM     12  O   UNL     1       7.459   4.566  18.592  0.00  0.00    +0.000 OA
ENDROOT
BRANCH   1  17
ATOM     13  C   UNL     1       6.209   3.545  12.529  0.00  0.00    +0.000 A 
ATOM     14  C   UNL     1       6.932   4.330  11.626  0.00  0.00    +0.000 A 
ATOM     15  C   UNL     1       7.790   5.324  12.088  0.00  0.00    +0.000 A 
ATOM     16  C   UNL     1       7.926   5.524  13.456  0.00  0.00    +0.000 A 
ATOM     17  C   UNL     1       7.233   4.715  14.372  0.00  0.00    +0.000 A 
ATOM     18  C   UNL     1       6.375   3.722  13.906  0.00  0.00    +0.000 A 
BRANCH  13  20
ATOM     19  C   UNL     1       4.197   3.129  11.389  0.00  0.00    +0.000 C 
ATOM     20  O   UNL     1       5.391   2.605  11.962  0.00  0.00    +0.000 OA
ENDBRANCH  13  20
ENDBRANCH   1  17
BRANCH   7  21
ATOM     21  O   UNL     1       1.168   4.187  19.910  0.00  0.00    +0.000 OA
ATOM     22  C   UNL     1       0.419   2.994  19.764  0.00  0.00    +0.000 C 
ENDBRANCH   7  21
TORSDOF 3
ENDMDL
MODEL 2
REMARK VINA RESULT:      -7.1      5.013      8.245
REMARK  Name = 
REMARK  5 active torsions:
REMARK  status: ('A' for Active; 'I' for Inactive)
REMARK    1  A    between atoms: C_1  and  O_2
REMARK    2  A    between atoms: O_2  and  C_3
REMARK    3  A    between atoms: C_7  and  C_8
REMARK    4  A    between atoms: C_14  and  O_15
REMARK    5  A    between atoms: O_15  and  C_16
REMARK                            x       y       z     vdW  Elec       q    Type
REMARK                         _______ _______ _______ _____ _____    ______ ____
ROOT
ATOM      1  C   UNL     1       1.537   9.803  18.284  0.00  0.00    +0.000 C 
ATOM      2  C   UNL     1       1.777   8.627  18.888  0.00  0.00    +0.000 C 
ATOM      3  C   UNL     1       1.117   8.079  20.121  0.00  0.00    +0.000 C 
ATOM      4  O   UNL     1       2.034   7.204  20.824  0.00  0.00    +0.000 OA
ATOM      5  C   UNL     1       2.214   6.099  20.022  0.00  0.00    +0.000 A 
ATOM      6  C   UNL     1       1.997   4.851  20.571  0.00  0.00    +0.000 A 
ATOM      7  C   UNL     1       1.759   3.761  19.734  0.00  0.00    +0.000 A 
ATOM      8  C   UNL     1       1.779   3.948  18.346  0.00  0.00    +0.000 A 
ATOM      9  C   UNL     1       2.150   5.186  17.798  0.00  0.00    +0.000 A 
ATOM     10  C   UNL     1       2.390   6.254  18.648  0.00  0.00    +0.000 A 
ATOM     11  C   UNL     1       2.604   7.630  18.150  0.00  0.00    +0.000 C 
ATOM     12  O   UNL     1       3.273   7.871  17.155  0.00  0.00    +0.000 OA
ENDROOT
BRANCH   1  17
ATOM     13  C   UNL     1      -2.080  10.869  18.306  0.00  0.00    +0.000 A 
ATOM     14  C   UNL     1      -2.023  11.930  19.215  0.00  0.00    +0.000 A 
ATOM     15  C   UNL     1      -0.815  12.285  19.808  0.00  0.00    +0.000 A 
ATOM     16  C   UNL     1       0.336  11.579  19.482  0.00  0.00    +0.000 A 
ATOM     17  C   UNL     1       0.296  10.536  18.543  0.00  0.00    +0.000 A 
ATOM     18  C   UNL     1      -0.915  10.183  17.951  0.00  0.00    +0.000 A 
BRANCH  13  20
ATOM     19  C   UNL     1      -4.317  11.568  18.128  0.00  0.00    +0.000 C 
ATOM     20  O   UNL     1      -3.321  10.605  17.793  0.00  0.00    +0.000 OA
ENDBRANCH  13  20
ENDBRANCH   1  17
BRANCH   7  21
ATOM     21  O   UNL     1       1.491   2.610  20.411  0.00  0.00    +0.000 OA
ATOM     22  C   UNL     1       1.590   2.579  21.824  0.00  0.00    +0.000 C 
ENDBRANCH   7  21
TORSDOF 3
ENDMDL
MODEL 3
REMARK VINA RESULT:      -6.9      5.045      8.442
REMARK  Name = 
REMARK  5 active torsions:
REMARK  status: ('A' for Active; 'I' for Inactive)
REMARK    1  A    between atoms: C_1  and  O_2
REMARK    2  A    between atoms: O_2  and  C_3
REMARK    3  A    between atoms: C_7  and  C_8
REMARK    4  A    between atoms: C_14  and  O_15
REMARK    5  A    between atoms: O_15  and  C_16
REMARK                            x       y       z     vdW  Elec       q    Type
REMARK                         _______ _______ _______ _____ _____    ______ ____
ROOT
ATOM      1  C   UNL     1       1.638   9.726  18.229  0.00  0.00    +0.000 C 
ATOM      2  C   UNL     1       1.845   8.555  18.853  0.00  0.00    +0.000 C 
ATOM      3  C   UNL     1       1.143   8.030  20.073  0.00  0.00    +0.000 C 
ATOM      4  O   UNL     1       2.027   7.152  20.813  0.00  0.00    +0.000 OA
ATOM      5  C   UNL     1       2.217   6.035  20.029  0.00  0.00    +0.000 A 
ATOM      6  C   UNL     1       1.968   4.797  20.586  0.00  0.00    +0.000 A 
ATOM      7  C   UNL     1       1.741   3.700  19.754  0.00  0.00    +0.000 A 
ATOM      8  C   UNL     1       1.805   3.870  18.366  0.00  0.00    +0.000 A 
ATOM      9  C   UNL     1       2.207   5.097  17.815  0.00  0.00    +0.000 A 
ATOM     10  C   UNL     1       2.435   6.171  18.659  0.00  0.00    +0.000 A 
ATOM     11  C   UNL     1       2.681   7.539  18.151  0.00  0.00    +0.000 C 
ATOM     12  O   UNL     1       3.382   7.760  17.175  0.00  0.00    +0.000 OA
ENDROOT
BRANCH   1  17
ATOM     13  C   UNL     1      -0.836  12.372  19.276  0.00  0.00    +0.000 A 
ATOM     14  C   UNL     1      -1.997  11.885  18.667  0.00  0.00    +0.000 A 
ATOM     15  C   UNL     1      -1.962  10.708  17.926  0.00  0.00    +0.000 A 
ATOM     16  C   UNL     1      -0.763  10.016  17.803  0.00  0.00    +0.000 A 
ATOM     17  C   UNL     1       0.400  10.477  18.442  0.00  0.00    +0.000 A 
ATOM     18  C   UNL     1       0.361  11.656  19.183  0.00  0.00    +0.000 A 
BRANCH  13  20
ATOM     19  C   UNL     1      -2.252  13.690  20.610  0.00  0.00    +0.000 C 
ATOM     20  O   UNL     1      -0.987  13.541  19.972  0.00  0.00    +0.000 OA
ENDBRANCH  13  20
ENDBRANCH   1  17
BRANCH   7  21
ATOM     21  O   UNL     1       1.439   2.561  20.437  0.00  0.00    +0.000 OA
ATOM     22  C   UNL     1       1.524   2.537  21.851  0.00  0.00    +0.000 C 
ENDBRANCH   7  21
TORSDOF 3
ENDMDL
MODEL 4
REMARK VINA RESULT:      -6.8      2.794      7.415
REMARK  Name = 
REMARK  5 active torsions:
REMARK  status: ('A' for Active; 'I' for Inactive)
REMARK    1  A    between atoms: C_1  and  O_2
REMARK    2  A    between atoms: O_2  and  C_3
REMARK    3  A    between atoms: C_7  and  C_8
REMARK    4  A    between atoms: C_14  and  O_15
REMARK    5  A    between atoms: O_15  and  C_16
REMARK                            x       y       z     vdW  Elec       q    Type
REMARK                         _______ _______ _______ _____ _____    ______ ____
ROOT
ATOM      1  C   UNL     1       3.394   6.123  19.827  0.00  0.00    +0.000 C 
ATOM      2  C   UNL     1       3.821   5.436  18.755  0.00  0.00    +0.000 C 
ATOM      3  C   UNL     1       3.179   5.361  17.399  0.00  0.00    +0.000 C 
ATOM      4  O   UNL     1       3.485   4.089  16.776  0.00  0.00    +0.000 OA
ATOM      5  C   UNL     1       4.836   4.101  16.506  0.00  0.00    +0.000 A 
ATOM      6  C   UNL     1       5.247   3.826  15.217  0.00  0.00    +0.000 A 
ATOM      7  C   UNL     1       6.517   4.222  14.799  0.00  0.00    +0.000 A 
ATOM      8  C   UNL     1       7.367   4.863  15.708  0.00  0.00    +0.000 A 
ATOM      9  C   UNL     1       6.998   5.001  17.055  0.00  0.00    +0.000 A 
ATOM     10  C   UNL     1       5.734   4.593  17.451  0.00  0.00    +0.000 A 
ATOM     11  C   UNL     1       5.200   4.871  18.803  0.00  0.00    +0.000 C 
ATOM     12  O   UNL     1       5.885   4.776  19.811  0.00  0.00    +0.000 OA
ENDROOT
BRANCH   1  17
ATOM     13  C   UNL     1       0.744   8.712  20.529  0.00  0.00    +0.000 A 
ATOM     14  C   UNL     1       0.747   9.409  19.317  0.00  0.00    +0.000 A 
ATOM     15  C   UNL     1       1.607   9.031  18.290  0.00  0.00    +0.000 A 
ATOM     16  C   UNL     1       2.458   7.950  18.478  0.00  0.00    +0.000 A 
ATOM     17  C   UNL     1       2.437   7.220  19.678  0.00  0.00    +0.000 A 
ATOM     18  C   UNL     1       1.574   7.601  20.704  0.00  0.00    +0.000 A 
BRANCH  13  20
ATOM     19  C   UNL     1       0.431   9.387  22.758  0.00  0.00    +0.000 C 
ATOM     20  O   UNL     1      -0.136   9.177  21.468  0.00  0.00    +0.000 OA
ENDBRANCH  13  20
ENDBRANCH   1  17
BRANCH   7  21
ATOM     21  O   UNL     1       6.760   3.950  13.486  0.00  0.00    +0.000 OA
ATOM     22  C   UNL     1       5.728   3.433  12.666  0.00  0.00    +0.000 C 
ENDBRANCH   7  21
TORSDOF 3
ENDMDL
MODEL 5
REMARK VINA RESULT:      -6.7      0.922      1.052
REMARK  Name = 
REMARK  5 active torsions:
REMARK  status: ('A' for Active; 'I' for Inactive)
REMARK    1  A    between atoms: C_1  and  O_2
REMARK    2  A    between atoms: O_2  and  C_3
REMARK    3  A    between atoms: C_7  and  C_8
REMARK    4  A    between atoms: C_14  and  O_15
REMARK    5  A    between atoms: O_15  and  C_16
REMARK                            x       y       z     vdW  Elec       q    Type
REMARK                         _______ _______ _______ _____ _____    ______ ____
ROOT
ATOM      1  C   UNL     1       7.449   4.917  15.726  0.00  0.00    +0.000 C 
ATOM      2  C   UNL     1       6.483   5.368  16.542  0.00  0.00    +0.000 C 
ATOM      3  C   UNL     1       5.167   5.981  16.155  0.00  0.00    +0.000 C 
ATOM      4  O   UNL     1       4.735   6.912  17.178  0.00  0.00    +0.000 OA
ATOM      5  C   UNL     1       4.437   6.158  18.292  0.00  0.00    +0.000 A 
ATOM      6  C   UNL     1       3.195   6.316  18.874  0.00  0.00    +0.000 A 
ATOM      7  C   UNL     1       2.696   5.320  19.713  0.00  0.00    +0.000 A 
ATOM      8  C   UNL     1       3.481   4.191  19.976  0.00  0.00    +0.000 A 
ATOM      9  C   UNL     1       4.799   4.112  19.502  0.00  0.00    +0.000 A 
ATOM     10  C   UNL     1       5.279   5.117  18.677  0.00  0.00    +0.000 A 
ATOM     11  C   UNL     1       6.585   5.020  17.989  0.00  0.00    +0.000 C 
ATOM     12  O   UNL     1       7.581   4.566  18.533  0.00  0.00    +0.000 OA
ENDROOT
BRANCH   1  17
ATOM     13  C   UNL     1       5.905   3.484  12.598  0.00  0.00    +0.000 A 
ATOM     14  C   UNL     1       6.606   4.198  11.622  0.00  0.00    +0.000 A 
ATOM     15  C   UNL     1       7.568   5.133  11.990  0.00  0.00    +0.000 A 
ATOM     16  C   UNL     1       7.831   5.346  13.338  0.00  0.00    +0.000 A 
ATOM     17  C   UNL     1       7.158   4.607  14.325  0.00  0.00    +0.000 A 
ATOM     18  C   UNL     1       6.195   3.671  13.953  0.00  0.00    +0.000 A 
BRANCH  13  20
ATOM     19  C   UNL     1       4.160   3.105  11.071  0.00  0.00    +0.000 C 
ATOM     20  O   UNL     1       4.977   2.597  12.121  0.00  0.00    +0.000 OA
ENDBRANCH  13  20
ENDBRANCH   1  17
BRANCH   7  21
ATOM     21  O   UNL     1       1.434   5.574  20.158  0.00  0.00    +0.000 OA
ATOM     22  C   UNL     1       1.164   6.758  20.888  0.00  0.00    +0.000 C 
ENDBRANCH   7  21
TORSDOF 3
ENDMDL
MODEL 6
REMARK VINA RESULT:      -6.6      3.774      8.336
REMARK  Name = 
REMARK  5 active torsions:
REMARK  status: ('A' for Active; 'I' for Inactive)
REMARK    1  A    between atoms: C_1  and  O_2
REMARK    2  A    between atoms: O_2  and  C_3
REMARK    3  A    between atoms: C_7  and  C_8
REMARK    4  A    between atoms: C_14  and  O_15
REMARK    5  A    between atoms: O_15  and  C_16
REMARK                            x       y       z     vdW  Elec       q    Type
REMARK                         _______ _______ _______ _____ _____    ______ ____
ROOT
ATOM      1  C   UNL     1       1.717   6.698  20.602  0.00  0.00    +0.000 C 
ATOM      2  C   UNL     1       2.487   6.324  19.567  0.00  0.00    +0.000 C 
ATOM      3  C   UNL     1       2.670   7.036  18.256  0.00  0.00    +0.000 C 
ATOM      4  O   UNL     1       2.973   6.077  17.212  0.00  0.00    +0.000 OA
ATOM      5  C   UNL     1       4.223   5.573  17.496  0.00  0.00    +0.000 A 
ATOM      6  C   UNL     1       5.186   5.620  16.508  0.00  0.00    +0.000 A 
ATOM      7  C   UNL     1       6.534   5.518  16.853  0.00  0.00    +0.000 A 
ATOM      8  C   UNL     1       6.884   5.335  18.197  0.00  0.00    +0.000 A 
ATOM      9  C   UNL     1       5.893   5.137  19.171  0.00  0.00    +0.000 A 
ATOM     10  C   UNL     1       4.560   5.234  18.805  0.00  0.00    +0.000 A 
ATOM     11  C   UNL     1       3.464   5.222  19.798  0.00  0.00    +0.000 C 
ATOM     12  O   UNL     1       3.464   4.476  20.767  0.00  0.00    +0.000 OA
ENDROOT
BRANCH   1  17
ATOM     13  C   UNL     1       0.456   9.962  22.007  0.00  0.00    +0.000 A 
ATOM     14  C   UNL     1       0.522  10.769  20.867  0.00  0.00    +0.000 A 
ATOM     15  C   UNL     1       0.974  10.245  19.660  0.00  0.00    +0.000 A 
ATOM     16  C   UNL     1       1.353   8.910  19.597  0.00  0.00    +0.000 A 
ATOM     17  C   UNL     1       1.255   8.082  20.727  0.00  0.00    +0.000 A 
ATOM     18  C   UNL     1       0.802   8.610  21.934  0.00  0.00    +0.000 A 
BRANCH  13  20
ATOM     19  C   UNL     1      -1.292  11.163  23.019  0.00  0.00    +0.000 C 
ATOM     20  O   UNL     1       0.004  10.586  23.139  0.00  0.00    +0.000 OA
ENDBRANCH  13  20
ENDBRANCH   1  17
BRANCH   7  21
ATOM     21  O   UNL     1       7.374   5.652  15.789  0.00  0.00    +0.000 OA
ATOM     22  C   UNL     1       7.067   5.020  14.559  0.00  0.00    +0.000 C 
ENDBRANCH   7  21
TORSDOF 3
ENDMDL
MODEL 7
REMARK VINA RESULT:      -6.6      6.197      9.746
REMARK  Name = 
REMARK  5 active torsions:
REMARK  status: ('A' for Active; 'I' for Inactive)
REMARK    1  A    between atoms: C_1  and  O_2
REMARK    2  A    between atoms: O_2  and  C_3
REMARK    3  A    between atoms: C_7  and  C_8
REMARK    4  A    between atoms: C_14  and  O_15
REMARK    5  A    between atoms: O_15  and  C_16
REMARK                            x       y       z     vdW  Elec       q    Type
REMARK                         _______ _______ _______ _____ _____    ______ ____
ROOT
ATOM      1  C   UNL     1      -0.017  11.153  18.614  0.00  0.00    +0.000 C 
ATOM      2  C   UNL     1       0.572  10.080  19.168  0.00  0.00    +0.000 C 
ATOM      3  C   UNL     1       0.026   9.188  20.246  0.00  0.00    +0.000 C 
ATOM      4  O   UNL     1       1.113   8.626  21.021  0.00  0.00    +0.000 OA
ATOM      5  C   UNL     1       1.786   7.764  20.183  0.00  0.00    +0.000 A 
ATOM      6  C   UNL     1       1.988   6.466  20.608  0.00  0.00    +0.000 A 
ATOM      7  C   UNL     1       2.275   5.471  19.673  0.00  0.00    +0.000 A 
ATOM      8  C   UNL     1       2.386   5.816  18.320  0.00  0.00    +0.000 A 
ATOM      9  C   UNL     1       2.329   7.160  17.919  0.00  0.00    +0.000 A 
ATOM     10  C   UNL     1       2.051   8.134  18.866  0.00  0.00    +0.000 A 
ATOM     11  C   UNL     1       1.793   9.543  18.499  0.00  0.00    +0.000 C 
ATOM     12  O   UNL     1       2.435  10.126  17.637  0.00  0.00    +0.000 OA
ENDROOT
BRANCH   1  17
ATOM     13  C   UNL     1      -3.404  12.459  19.635  0.00  0.00    +0.000 A 
ATOM     14  C   UNL     1      -4.224  11.739  18.761  0.00  0.00    +0.000 A 
ATOM     15  C   UNL     1      -3.669  10.842  17.854  0.00  0.00    +0.000 A 
ATOM     16  C   UNL     1      -2.292  10.663  17.829  0.00  0.00    +0.000 A 
ATOM     17  C   UNL     1      -1.462  11.353  18.729  0.00  0.00    +0.000 A 
ATOM     18  C   UNL     1      -2.021  12.251  19.635  0.00  0.00    +0.000 A 
BRANCH  13  20
ATOM     19  C   UNL     1      -4.522  12.723  21.685  0.00  0.00    +0.000 C 
ATOM     20  O   UNL     1      -4.058  13.318  20.477  0.00  0.00    +0.000 OA
ENDBRANCH  13  20
ENDBRANCH   1  17
BRANCH   7  21
ATOM     21  O   UNL     1       2.379   4.229  20.223  0.00  0.00    +0.000 OA
ATOM     22  C   UNL     1       1.245   3.617  20.810  0.00  0.00    +0.000 C 
ENDBRANCH   7  21
TORSDOF 3
ENDMDL
MODEL 8
REMARK VINA RESULT:      -6.6      6.400      9.468
REMARK  Name = 
REMARK  5 active torsions:
REMARK  status: ('A' for Active; 'I' for Inactive)
REMARK    1  A    between atoms: C_1  and  O_2
REMARK    2  A    between atoms: O_2  and  C_3
REMARK    3  A    between atoms: C_7  and  C_8
REMARK    4  A    between atoms: C_14  and  O_15
REMARK    5  A    between atoms: O_15  and  C_16
REMARK                            x       y       z     vdW  Elec       q    Type
REMARK                         _______ _______ _______ _____ _____    ______ ____
ROOT
ATOM      1  C   UNL     1      -0.357  11.790  18.565  0.00  0.00    +0.000 C 
ATOM      2  C   UNL     1       0.260  10.723  19.097  0.00  0.00    +0.000 C 
ATOM      3  C   UNL     1      -0.352   9.629  19.925  0.00  0.00    +0.000 C 
ATOM      4  O   UNL     1       0.636   9.087  20.836  0.00  0.00    +0.000 OA
ATOM      5  C   UNL     1       1.570   8.437  20.059  0.00  0.00    +0.000 A 
ATOM      6  C   UNL     1       1.867   7.122  20.360  0.00  0.00    +0.000 A 
ATOM      7  C   UNL     1       2.462   6.312  19.393  0.00  0.00    +0.000 A 
ATOM      8  C   UNL     1       2.780   6.859  18.144  0.00  0.00    +0.000 A 
ATOM      9  C   UNL     1       2.613   8.232  17.902  0.00  0.00    +0.000 A 
ATOM     10  C   UNL     1       2.027   9.020  18.880  0.00  0.00    +0.000 A 
ATOM     11  C   UNL     1       1.648  10.430  18.637  0.00  0.00    +0.000 C 
ATOM     12  O   UNL     1       2.355  11.199  18.003  0.00  0.00    +0.000 OA
ENDROOT
BRANCH   1  17
ATOM     13  C   UNL     1      -3.833  11.296  17.188  0.00  0.00    +0.000 A 
ATOM     14  C   UNL     1      -4.597  11.773  18.258  0.00  0.00    +0.000 A 
ATOM     15  C   UNL     1      -3.976  12.247  19.409  0.00  0.00    +0.000 A 
ATOM     16  C   UNL     1      -2.588  12.249  19.483  0.00  0.00    +0.000 A 
ATOM     17  C   UNL     1      -1.812  11.807  18.400  0.00  0.00    +0.000 A 
ATOM     18  C   UNL     1      -2.437  11.332  17.248  0.00  0.00    +0.000 A 
BRANCH  13  20
ATOM     19  C   UNL     1      -3.758  10.459  14.994  0.00  0.00    +0.000 C 
ATOM     20  O   UNL     1      -4.550  10.847  16.112  0.00  0.00    +0.000 OA
ENDBRANCH  13  20
ENDBRANCH   1  17
BRANCH   7  21
ATOM     21  O   UNL     1       2.633   5.024  19.801  0.00  0.00    +0.000 OA
ATOM     22  C   UNL     1       1.784   4.476  20.795  0.00  0.00    +0.000 C 
ENDBRANCH   7  21
TORSDOF 3
ENDMDL
MODEL 9
REMARK VINA RESULT:      -6.5      4.515      7.426
REMARK  Name = 
REMARK  5 active torsions:
REMARK  status: ('A' for Active; 'I' for Inactive)
REMARK    1  A    between atoms: C_1  and  O_2
REMARK    2  A    between atoms: O_2  and  C_3
REMARK    3  A    between atoms: C_7  and  C_8
REMARK    4  A    between atoms: C_14  and  O_15
REMARK    5  A    between atoms: O_15  and  C_16
REMARK                            x       y       z     vdW  Elec       q    Type
REMARK                         _______ _______ _______ _____ _____    ______ ____
ROOT
ATOM      1  C   UNL     1       2.300   6.271  20.682  0.00  0.00    +0.000 C 
ATOM      2  C   UNL     1       1.953   7.423  20.085  0.00  0.00    +0.000 C 
ATOM      3  C   UNL     1       1.765   7.674  18.616  0.00  0.00    +0.000 C 
ATOM      4  O   UNL     1       2.066   9.058  18.308  0.00  0.00    +0.000 OA
ATOM      5  C   UNL     1       1.082   9.814  18.905  0.00  0.00    +0.000 A 
ATOM      6  C   UNL     1       0.387  10.716  18.123  0.00  0.00    +0.000 A 
ATOM      7  C   UNL     1      -0.853  11.187  18.552  0.00  0.00    +0.000 A 
ATOM      8  C   UNL     1      -1.357  10.762  19.787  0.00  0.00    +0.000 A 
ATOM      9  C   UNL     1      -0.576   9.966  20.640  0.00  0.00    +0.000 A 
ATOM     10  C   UNL     1       0.657   9.516  20.198  0.00  0.00    +0.000 A 
ATOM     11  C   UNL     1       1.457   8.528  20.955  0.00  0.00    +0.000 C 
ATOM     12  O   UNL     1       1.560   8.562  22.173  0.00  0.00    +0.000 OA
ENDROOT
BRANCH   1  17
ATOM     13  C   UNL     1       2.952   3.254  18.516  0.00  0.00    +0.000 A 
ATOM     14  C   UNL     1       1.822   2.485  18.811  0.00  0.00    +0.000 A 
ATOM     15  C   UNL     1       0.866   2.954  19.707  0.00  0.00    +0.000 A 
ATOM     16  C   UNL     1       1.041   4.197  20.300  0.00  0.00    +0.000 A 
ATOM     17  C   UNL     1       2.154   4.994  19.982  0.00  0.00    +0.000 A 
ATOM     18  C   UNL     1       3.109   4.521  19.086  0.00  0.00    +0.000 A 
BRANCH  13  20
ATOM     19  C   UNL     1       4.634   3.624  16.918  0.00  0.00    +0.000 C 
ATOM     20  O   UNL     1       3.828   2.690  17.629  0.00  0.00    +0.000 OA
ENDBRANCH  13  20
ENDBRANCH   1  17
BRANCH   7  21
ATOM     21  O   UNL     1      -1.456  12.013  17.651  0.00  0.00    +0.000 OA
ATOM     22  C   UNL     1      -2.537  11.540  16.868  0.00  0.00    +0.000 C 
ENDBRANCH   7  21
TORSDOF 3
ENDMDL
