MODEL 1
REMARK VINA RESULT:      -7.6      0.000      0.000
REMARK  Name = 
REMARK  8 active torsions:
REMARK  status: ('A' for Active; 'I' for Inactive)
REMARK    1  A    between atoms: C_2  and  C_3
REMARK    2  A    between atoms: C_3  and  C_4
REMARK    3  A    between atoms: C_4  and  N_5
REMARK    4  A    between atoms: C_9  and  C_10
REMARK    5  A    between atoms: N_18  and  C_19
REMARK    6  A    between atoms: C_22  and  O_23
REMARK    7  A    between atoms: C_24  and  C_25
REMARK    8  A    between atoms: C_25  and  O_27
REMARK                            x       y       z     vdW  Elec       q    Type
REMARK                         _______ _______ _______ _____ _____    ______ ____
ROOT
ATOM      1  O   UNL     1       2.234   8.903  17.174  0.00  0.00    +0.000 OA
ATOM      2  C   UNL     1       2.014   8.517  18.319  0.00  0.00    +0.000 C 
ATOM      3  N   UNL     1       2.418   7.300  18.850  0.00  0.00    +0.000 N 
ATOM      4  H   UNL     1       1.999   7.012  19.728  0.00  0.00    +0.000 HD
ENDROOT
BRANCH   3   5
ATOM      5  C   UNL     1       3.223   6.340  18.188  0.00  0.00    +0.000 A 
ATOM      6  C   UNL     1       2.765   5.060  17.864  0.00  0.00    +0.000 A 
ATOM      7  C   UNL     1       3.611   4.119  17.273  0.00  0.00    +0.000 A 
ATOM      8  C   UNL     1       4.929   4.457  16.986  0.00  0.00    +0.000 A 
ATOM      9  C   UNL     1       5.403   5.748  17.249  0.00  0.00    +0.000 A 
ATOM     10  C   UNL     1       4.535   6.688  17.843  0.00  0.00    +0.000 A 
BRANCH   8  11
ATOM     11  O   UNL     1       5.758   3.506  16.448  0.00  0.00    +0.000 OA
ATOM     12  H   UNL     1       6.671   3.687  16.745  0.00  0.00    +0.000 HD
ENDBRANCH   8  11
BRANCH   9  13
ATOM     13  C   UNL     1       6.796   6.194  16.949  0.00  0.00    +0.000 C 
ATOM     14  O   UNL     1       7.440   6.883  17.726  0.00  0.00    +0.000 OA
BRANCH  13  15
ATOM     15  O   UNL     1       7.297   5.785  15.766  0.00  0.00    +0.000 OA
ATOM     16  H   UNL     1       6.847   6.209  14.999  0.00  0.00    +0.000 HD
ENDBRANCH  13  15
ENDBRANCH   9  13
ENDBRANCH   3   5
BRANCH   2  17
ATOM     17  C   UNL     1       1.213   9.369  19.289  0.00  0.00    +0.000 C 
BRANCH  17  18
ATOM     18  C   UNL     1       0.898  10.730  18.655  0.00  0.00    +0.000 C 
BRANCH  18  19
ATOM     19  N   UNL     1      -0.490  11.152  18.869  0.00  0.00    +0.000 N 
ATOM     20  C   UNL     1      -1.486  10.611  18.071  0.00  0.00    +0.000 C 
ATOM     21  O   UNL     1      -1.319   9.814  17.158  0.00  0.00    +0.000 OA
ATOM     22  C   UNL     1      -2.815  11.152  18.460  0.00  0.00    +0.000 C 
ATOM     23  C   UNL     1      -3.935  10.788  17.822  0.00  0.00    +0.000 C 
ATOM     24  S   UNL     1      -2.641  12.262  19.760  0.00  0.00    +0.000 S 
ATOM     25  C   UNL     1      -0.895  12.062  19.824  0.00  0.00    +0.000 C 
ATOM     26  S   UNL     1       0.051  12.902  20.912  0.00  0.00    +0.000 S 
BRANCH  23  27
ATOM     27  C   UNL     1      -5.216  11.320  18.135  0.00  0.00    +0.000 A 
ATOM     28  C   UNL     1      -6.090  10.961  19.146  0.00  0.00    +0.000 A 
ATOM     29  C   UNL     1      -7.301  11.713  19.120  0.00  0.00    +0.000 A 
ATOM     30  C   UNL     1      -7.320  12.625  18.089  0.00  0.00    +0.000 A 
ATOM     31  S   UNL     1      -5.892  12.561  17.155  0.00  0.00    +0.000 S 
ENDBRANCH  23  27
ENDBRANCH  18  19
ENDBRANCH  17  18
ENDBRANCH   2  17
TORSDOF 8
ENDMDL
MODEL 2
REMARK VINA RESULT:      -7.6      0.941      1.150
REMARK  Name = 
REMARK  8 active torsions:
REMARK  status: ('A' for Active; 'I' for Inactive)
REMARK    1  A    between atoms: C_2  and  C_3
REMARK    2  A    between atoms: C_3  and  C_4
REMARK    3  A    between atoms: C_4  and  N_5
REMARK    4  A    between atoms: C_9  and  C_10
REMARK    5  A    between atoms: N_18  and  C_19
REMARK    6  A    between atoms: C_22  and  O_23
REMARK    7  A    between atoms: C_24  and  C_25
REMARK    8  A    between atoms: C_25  and  O_27
REMARK                            x       y       z     vdW  Elec       q    Type
REMARK                         _______ _______ _______ _____ _____    ______ ____
ROOT
ATOM      1  O   UNL     1       2.333   8.714  17.364  0.00  0.00    +0.000 OA
ATOM      2  C   UNL     1       1.934   8.457  18.496  0.00  0.00    +0.000 C 
ATOM      3  N   UNL     1       2.044   7.226  19.128  0.00  0.00    +0.000 N 
ATOM      4  H   UNL     1       1.496   7.084  19.970  0.00  0.00    +0.000 HD
ENDROOT
BRANCH   3   5
ATOM      5  C   UNL     1       2.709   6.089  18.606  0.00  0.00    +0.000 A 
ATOM      6  C   UNL     1       2.036   5.043  17.968  0.00  0.00    +0.000 A 
ATOM      7  C   UNL     1       2.719   3.908  17.527  0.00  0.00    +0.000 A 
ATOM      8  C   UNL     1       4.095   3.813  17.710  0.00  0.00    +0.000 A 
ATOM      9  C   UNL     1       4.806   4.868  18.296  0.00  0.00    +0.000 A 
ATOM     10  C   UNL     1       4.101   6.009  18.733  0.00  0.00    +0.000 A 
BRANCH   8  11
ATOM     11  O   UNL     1       4.743   2.672  17.311  0.00  0.00    +0.000 OA
ATOM     12  H   UNL     1       5.418   2.449  17.982  0.00  0.00    +0.000 HD
ENDBRANCH   8  11
BRANCH   9  13
ATOM     13  C   UNL     1       6.285   4.851  18.504  0.00  0.00    +0.000 C 
ATOM     14  O   UNL     1       7.066   4.603  17.597  0.00  0.00    +0.000 OA
BRANCH  13  15
ATOM     15  O   UNL     1       6.701   5.129  19.756  0.00  0.00    +0.000 OA
ATOM     16  H   UNL     1       7.259   5.939  19.797  0.00  0.00    +0.000 HD
ENDBRANCH  13  15
ENDBRANCH   9  13
ENDBRANCH   3   5
BRANCH   2  17
ATOM     17  C   UNL     1       1.224   9.509  19.331  0.00  0.00    +0.000 C 
BRANCH  17  18
ATOM     18  C   UNL     1       0.803  10.686  18.443  0.00  0.00    +0.000 C 
BRANCH  18  19
ATOM     19  N   UNL     1      -0.575  11.125  18.691  0.00  0.00    +0.000 N 
ATOM     20  C   UNL     1      -1.603  10.554  17.957  0.00  0.00    +0.000 C 
ATOM     21  O   UNL     1      -1.474   9.717  17.075  0.00  0.00    +0.000 OA
ATOM     22  C   UNL     1      -2.914  11.119  18.373  0.00  0.00    +0.000 C 
ATOM     23  C   UNL     1      -4.059  10.733  17.795  0.00  0.00    +0.000 C 
ATOM     24  S   UNL     1      -2.686  12.284  19.615  0.00  0.00    +0.000 S 
ATOM     25  C   UNL     1      -0.939  12.079  19.620  0.00  0.00    +0.000 C 
ATOM     26  S   UNL     1       0.051  12.960  20.632  0.00  0.00    +0.000 S 
BRANCH  23  27
ATOM     27  C   UNL     1      -5.325  11.285  18.134  0.00  0.00    +0.000 A 
ATOM     28  C   UNL     1      -6.221  10.888  19.111  0.00  0.00    +0.000 A 
ATOM     29  C   UNL     1      -7.406  11.680  19.127  0.00  0.00    +0.000 A 
ATOM     30  C   UNL     1      -7.385  12.660  18.160  0.00  0.00    +0.000 A 
ATOM     31  S   UNL     1      -5.950  12.612  17.236  0.00  0.00    +0.000 S 
ENDBRANCH  23  27
ENDBRANCH  18  19
ENDBRANCH  17  18
ENDBRANCH   2  17
TORSDOF 8
ENDMDL
MODEL 3
REMARK VINA RESULT:      -7.4      2.941      3.492
REMARK  Name = 
REMARK  8 active torsions:
REMARK  status: ('A' for Active; 'I' for Inactive)
REMARK    1  A    between atoms: C_2  and  C_3
REMARK    2  A    between atoms: C_3  and  C_4
REMARK    3  A    between atoms: C_4  and  N_5
REMARK    4  A    between atoms: C_9  and  C_10
REMARK    5  A    between atoms: N_18  and  C_19
REMARK    6  A    between atoms: C_22  and  O_23
REMARK    7  A    between atoms: C_24  and  C_25
REMARK    8  A    between atoms: C_25  and  O_27
REMARK                            x       y       z     vdW  Elec       q    Type
REMARK                         _______ _______ _______ _____ _____    ______ ____
ROOT
ATOM      1  O   UNL     1       1.948   8.344  19.218  0.00  0.00    +0.000 OA
ATOM      2  C   UNL     1       1.719   7.642  20.200  0.00  0.00    +0.000 C 
ATOM      3  N   UNL     1       2.073   6.306  20.334  0.00  0.00    +0.000 N 
ATOM      4  H   UNL     1       1.648   5.786  21.094  0.00  0.00    +0.000 HD
ENDROOT
BRANCH   3   5
ATOM      5  C   UNL     1       2.828   5.557  19.398  0.00  0.00    +0.000 A 
ATOM      6  C   UNL     1       2.242   4.719  18.446  0.00  0.00    +0.000 A 
ATOM      7  C   UNL     1       3.023   3.945  17.586  0.00  0.00    +0.000 A 
ATOM      8  C   UNL     1       4.411   4.012  17.663  0.00  0.00    +0.000 A 
ATOM      9  C   UNL     1       5.029   4.882  18.569  0.00  0.00    +0.000 A 
ATOM     10  C   UNL     1       4.225   5.660  19.429  0.00  0.00    +0.000 A 
BRANCH   8  11
ATOM     11  O   UNL     1       5.162   3.210  16.842  0.00  0.00    +0.000 OA
ATOM     12  H   UNL     1       4.942   3.424  15.914  0.00  0.00    +0.000 HD
ENDBRANCH   8  11
BRANCH   9  13
ATOM     13  C   UNL     1       6.510   5.028  18.695  0.00  0.00    +0.000 C 
ATOM     14  O   UNL     1       7.255   4.937  17.730  0.00  0.00    +0.000 OA
BRANCH  13  15
ATOM     15  O   UNL     1       6.969   5.267  19.939  0.00  0.00    +0.000 OA
ATOM     16  H   UNL     1       6.566   4.670  20.611  0.00  0.00    +0.000 HD
ENDBRANCH  13  15
ENDBRANCH   9  13
ENDBRANCH   3   5
BRANCH   2  17
ATOM     17  C   UNL     1       0.966   8.195  21.397  0.00  0.00    +0.000 C 
BRANCH  17  18
ATOM     18  C   UNL     1       1.451   9.616  21.711  0.00  0.00    +0.000 C 
BRANCH  18  19
ATOM     19  N   UNL     1       0.391  10.623  21.587  0.00  0.00    +0.000 N 
ATOM     20  C   UNL     1      -0.530  10.757  22.614  0.00  0.00    +0.000 C 
ATOM     21  O   UNL     1      -0.569  10.082  23.633  0.00  0.00    +0.000 OA
ATOM     22  C   UNL     1      -1.502  11.838  22.303  0.00  0.00    +0.000 C 
ATOM     23  C   UNL     1      -2.500  12.147  23.141  0.00  0.00    +0.000 C 
ATOM     24  S   UNL     1      -1.139  12.533  20.774  0.00  0.00    +0.000 S 
ATOM     25  C   UNL     1       0.235  11.468  20.507  0.00  0.00    +0.000 C 
ATOM     26  S   UNL     1       1.151  11.540  19.115  0.00  0.00    +0.000 S 
BRANCH  23  27
ATOM     27  C   UNL     1      -3.475  13.142  22.855  0.00  0.00    +0.000 A 
ATOM     28  C   UNL     1      -3.547  14.451  23.297  0.00  0.00    +0.000 A 
ATOM     29  C   UNL     1      -4.699  15.134  22.811  0.00  0.00    +0.000 A 
ATOM     30  C   UNL     1      -5.478  14.329  22.011  0.00  0.00    +0.000 A 
ATOM     31  S   UNL     1      -4.826  12.758  21.862  0.00  0.00    +0.000 S 
ENDBRANCH  23  27
ENDBRANCH  18  19
ENDBRANCH  17  18
ENDBRANCH   2  17
TORSDOF 8
ENDMDL
MODEL 4
REMARK VINA RESULT:      -7.3      2.462      3.376
REMARK  Name = 
REMARK  8 active torsions:
REMARK  status: ('A' for Active; 'I' for Inactive)
REMARK    1  A    between atoms: C_2  and  C_3
REMARK    2  A    between atoms: C_3  and  C_4
REMARK    3  A    between atoms: C_4  and  N_5
REMARK    4  A    between atoms: C_9  and  C_10
REMARK    5  A    between atoms: N_18  and  C_19
REMARK    6  A    between atoms: C_22  and  O_23
REMARK    7  A    between atoms: C_24  and  C_25
REMARK    8  A    between atoms: C_25  and  O_27
REMARK                            x       y       z     vdW  Elec       q    Type
REMARK                         _______ _______ _______ _____ _____    ______ ____
ROOT
ATOM      1  O   UNL     1       2.469   8.758  17.199  0.00  0.00    +0.000 OA
ATOM      2  C   UNL     1       2.185   8.267  18.288  0.00  0.00    +0.000 C 
ATOM      3  N   UNL     1       2.530   6.991  18.709  0.00  0.00    +0.000 N 
ATOM      4  H   UNL     1       2.063   6.630  19.535  0.00  0.00    +0.000 HD
ENDROOT
BRANCH   3   5
ATOM      5  C   UNL     1       3.337   6.075  17.989  0.00  0.00    +0.000 A 
ATOM      6  C   UNL     1       2.939   4.763  17.718  0.00  0.00    +0.000 A 
ATOM      7  C   UNL     1       3.791   3.871  17.063  0.00  0.00    +0.000 A 
ATOM      8  C   UNL     1       5.054   4.290  16.660  0.00  0.00    +0.000 A 
ATOM      9  C   UNL     1       5.462   5.613  16.868  0.00  0.00    +0.000 A 
ATOM     10  C   UNL     1       4.588   6.504  17.527  0.00  0.00    +0.000 A 
BRANCH   8  11
ATOM     11  O   UNL     1       5.895   3.388  16.059  0.00  0.00    +0.000 OA
ATOM     12  H   UNL     1       6.405   3.853  15.368  0.00  0.00    +0.000 HD
ENDBRANCH   8  11
BRANCH   9  13
ATOM     13  C   UNL     1       6.791   6.145  16.443  0.00  0.00    +0.000 C 
ATOM     14  O   UNL     1       7.354   7.046  17.047  0.00  0.00    +0.000 OA
BRANCH  13  15
ATOM     15  O   UNL     1       7.328   5.566  15.351  0.00  0.00    +0.000 OA
ATOM     16  H   UNL     1       7.145   4.600  15.307  0.00  0.00    +0.000 HD
ENDBRANCH  13  15
ENDBRANCH   9  13
ENDBRANCH   3   5
BRANCH   2  17
ATOM     17  C   UNL     1       1.366   9.043  19.304  0.00  0.00    +0.000 C 
BRANCH  17  18
ATOM     18  C   UNL     1       0.970  10.408  18.727  0.00  0.00    +0.000 C 
BRANCH  18  19
ATOM     19  N   UNL     1      -0.110  11.056  19.478  0.00  0.00    +0.000 N 
ATOM     20  C   UNL     1       0.103  11.388  20.807  0.00  0.00    +0.000 C 
ATOM     21  O   UNL     1       1.120  11.164  21.447  0.00  0.00    +0.000 OA
ATOM     22  C   UNL     1      -1.102  12.049  21.377  0.00  0.00    +0.000 C 
ATOM     23  C   UNL     1      -1.143  12.450  22.654  0.00  0.00    +0.000 C 
ATOM     24  S   UNL     1      -2.332  12.159  20.183  0.00  0.00    +0.000 S 
ATOM     25  C   UNL     1      -1.349  11.371  18.956  0.00  0.00    +0.000 C 
ATOM     26  S   UNL     1      -1.920  11.083  17.416  0.00  0.00    +0.000 S 
BRANCH  23  27
ATOM     27  C   UNL     1      -2.293  13.042  23.245  0.00  0.00    +0.000 A 
ATOM     28  C   UNL     1      -3.410  12.432  23.790  0.00  0.00    +0.000 A 
ATOM     29  C   UNL     1      -4.373  13.369  24.264  0.00  0.00    +0.000 A 
ATOM     30  C   UNL     1      -3.968  14.670  24.068  0.00  0.00    +0.000 A 
ATOM     31  S   UNL     1      -2.442  14.754  23.305  0.00  0.00    +0.000 S 
ENDBRANCH  23  27
ENDBRANCH  18  19
ENDBRANCH  17  18
ENDBRANCH   2  17
TORSDOF 8
ENDMDL
MODEL 5
REMARK VINA RESULT:      -7.3      3.259      4.342
REMARK  Name = 
REMARK  8 active torsions:
REMARK  status: ('A' for Active; 'I' for Inactive)
REMARK    1  A    between atoms: C_2  and  C_3
REMARK    2  A    between atoms: C_3  and  C_4
REMARK    3  A    between atoms: C_4  and  N_5
REMARK    4  A    between atoms: C_9  and  C_10
REMARK    5  A    between atoms: N_18  and  C_19
REMARK    6  A    between atoms: C_22  and  O_23
REMARK    7  A    between atoms: C_24  and  C_25
REMARK    8  A    between atoms: C_25  and  O_27
REMARK                            x       y       z     vdW  Elec       q    Type
REMARK                         _______ _______ _______ _____ _____    ______ ____
ROOT
ATOM      1  O   UNL     1       1.950   8.326  19.259  0.00  0.00    +0.000 OA
ATOM      2  C   UNL     1       1.787   7.792  20.353  0.00  0.00    +0.000 C 
ATOM      3  N   UNL     1       2.064   6.465  20.649  0.00  0.00    +0.000 N 
ATOM      4  H   UNL     1       1.694   6.094  21.518  0.00  0.00    +0.000 HD
ENDROOT
BRANCH   3   5
ATOM      5  C   UNL     1       2.657   5.530  19.765  0.00  0.00    +0.000 A 
ATOM      6  C   UNL     1       1.922   4.555  19.086  0.00  0.00    +0.000 A 
ATOM      7  C   UNL     1       2.553   3.609  18.276  0.00  0.00    +0.000 A 
ATOM      8  C   UNL     1       3.936   3.637  18.126  0.00  0.00    +0.000 A 
ATOM      9  C   UNL     1       4.695   4.635  18.749  0.00  0.00    +0.000 A 
ATOM     10  C   UNL     1       4.042   5.586  19.562  0.00  0.00    +0.000 A 
BRANCH   8  11
ATOM     11  O   UNL     1       4.543   2.673  17.363  0.00  0.00    +0.000 OA
ATOM     12  H   UNL     1       5.506   2.714  17.521  0.00  0.00    +0.000 HD
ENDBRANCH   8  11
BRANCH   9  13
ATOM     13  C   UNL     1       6.179   4.747  18.618  0.00  0.00    +0.000 C 
ATOM     14  O   UNL     1       6.757   4.505  17.569  0.00  0.00    +0.000 OA
BRANCH  13  15
ATOM     15  O   UNL     1       6.835   5.133  19.729  0.00  0.00    +0.000 OA
ATOM     16  H   UNL     1       7.786   5.326  19.559  0.00  0.00    +0.000 HD
ENDBRANCH  13  15
ENDBRANCH   9  13
ENDBRANCH   3   5
BRANCH   2  17
ATOM     17  C   UNL     1       1.212   8.570  21.524  0.00  0.00    +0.000 C 
BRANCH  17  18
ATOM     18  C   UNL     1      -0.274   8.860  21.281  0.00  0.00    +0.000 C 
BRANCH  18  19
ATOM     19  N   UNL     1      -0.580  10.294  21.251  0.00  0.00    +0.000 N 
ATOM     20  C   UNL     1      -0.720  10.976  22.449  0.00  0.00    +0.000 C 
ATOM     21  O   UNL     1      -0.642  10.484  23.566  0.00  0.00    +0.000 OA
ATOM     22  C   UNL     1      -1.007  12.414  22.199  0.00  0.00    +0.000 C 
ATOM     23  C   UNL     1      -1.197  13.276  23.205  0.00  0.00    +0.000 C 
ATOM     24  S   UNL     1      -1.068  12.716  20.508  0.00  0.00    +0.000 S 
ATOM     25  C   UNL     1      -0.739  11.037  20.098  0.00  0.00    +0.000 C 
ATOM     26  S   UNL     1      -0.659  10.514  18.517  0.00  0.00    +0.000 S 
BRANCH  23  27
ATOM     27  C   UNL     1      -1.520  14.647  23.003  0.00  0.00    +0.000 A 
ATOM     28  C   UNL     1      -2.761  15.244  22.868  0.00  0.00    +0.000 A 
ATOM     29  C   UNL     1      -2.675  16.650  22.650  0.00  0.00    +0.000 A 
ATOM     30  C   UNL     1      -1.371  17.089  22.622  0.00  0.00    +0.000 A 
ATOM     31  S   UNL     1      -0.263  15.809  22.845  0.00  0.00    +0.000 S 
ENDBRANCH  23  27
ENDBRANCH  18  19
ENDBRANCH  17  18
ENDBRANCH   2  17
TORSDOF 8
ENDMDL
MODEL 6
REMARK VINA RESULT:      -7.2      2.856      3.909
REMARK  Name = 
REMARK  8 active torsions:
REMARK  status: ('A' for Active; 'I' for Inactive)
REMARK    1  A    between atoms: C_2  and  C_3
REMARK    2  A    between atoms: C_3  and  C_4
REMARK    3  A    between atoms: C_4  and  N_5
REMARK    4  A    between atoms: C_9  and  C_10
REMARK    5  A    between atoms: N_18  and  C_19
REMARK    6  A    between atoms: C_22  and  O_23
REMARK    7  A    between atoms: C_24  and  C_25
REMARK    8  A    between atoms: C_25  and  O_27
REMARK                            x       y       z     vdW  Elec       q    Type
REMARK                         _______ _______ _______ _____ _____    ______ ____
ROOT
ATOM      1  O   UNL     1       2.479   8.870  17.089  0.00  0.00    +0.000 OA
ATOM      2  C   UNL     1       2.085   8.785  18.248  0.00  0.00    +0.000 C 
ATOM      3  N   UNL     1       2.120   7.638  19.029  0.00  0.00    +0.000 N 
ATOM      4  H   UNL     1       1.579   7.642  19.887  0.00  0.00    +0.000 HD
ENDROOT
BRANCH   3   5
ATOM      5  C   UNL     1       2.692   6.399  18.647  0.00  0.00    +0.000 A 
ATOM      6  C   UNL     1       1.950   5.366  18.069  0.00  0.00    +0.000 A 
ATOM      7  C   UNL     1       2.537   4.136  17.769  0.00  0.00    +0.000 A 
ATOM      8  C   UNL     1       3.887   3.929  18.034  0.00  0.00    +0.000 A 
ATOM      9  C   UNL     1       4.671   4.963  18.563  0.00  0.00    +0.000 A 
ATOM     10  C   UNL     1       4.063   6.202  18.857  0.00  0.00    +0.000 A 
BRANCH   8  11
ATOM     11  O   UNL     1       4.436   2.700  17.775  0.00  0.00    +0.000 OA
ATOM     12  H   UNL     1       3.843   2.217  17.167  0.00  0.00    +0.000 HD
ENDBRANCH   8  11
BRANCH   9  13
ATOM     13  C   UNL     1       6.130   4.827  18.852  0.00  0.00    +0.000 C 
ATOM     14  O   UNL     1       6.642   5.314  19.850  0.00  0.00    +0.000 OA
BRANCH  13  15
ATOM     15  O   UNL     1       6.842   4.133  17.943  0.00  0.00    +0.000 OA
ATOM     16  H   UNL     1       6.329   3.945  17.124  0.00  0.00    +0.000 HD
ENDBRANCH  13  15
ENDBRANCH   9  13
ENDBRANCH   3   5
BRANCH   2  17
ATOM     17  C   UNL     1       1.467   9.981  18.952  0.00  0.00    +0.000 C 
BRANCH  17  18
ATOM     18  C   UNL     1       0.238   9.539  19.756  0.00  0.00    +0.000 C 
BRANCH  18  19
ATOM     19  N   UNL     1      -0.543  10.668  20.273  0.00  0.00    +0.000 N 
ATOM     20  C   UNL     1      -0.369  11.056  21.592  0.00  0.00    +0.000 C 
ATOM     21  O   UNL     1       0.371  10.519  22.405  0.00  0.00    +0.000 OA
ATOM     22  C   UNL     1      -1.233  12.224  21.909  0.00  0.00    +0.000 C 
ATOM     23  C   UNL     1      -1.251  12.772  23.131  0.00  0.00    +0.000 C 
ATOM     24  S   UNL     1      -2.147  12.673  20.525  0.00  0.00    +0.000 S 
ATOM     25  C   UNL     1      -1.456  11.394  19.534  0.00  0.00    +0.000 C 
ATOM     26  S   UNL     1      -1.907  11.166  17.945  0.00  0.00    +0.000 S 
BRANCH  23  27
ATOM     27  C   UNL     1      -2.100  13.858  23.483  0.00  0.00    +0.000 A 
ATOM     28  C   UNL     1      -1.842  15.217  23.448  0.00  0.00    +0.000 A 
ATOM     29  C   UNL     1      -2.943  15.998  23.909  0.00  0.00    +0.000 A 
ATOM     30  C   UNL     1      -4.010  15.214  24.284  0.00  0.00    +0.000 A 
ATOM     31  S   UNL     1      -3.678  13.550  24.092  0.00  0.00    +0.000 S 
ENDBRANCH  23  27
ENDBRANCH  18  19
ENDBRANCH  17  18
ENDBRANCH   2  17
TORSDOF 8
ENDMDL
MODEL 7
REMARK VINA RESULT:      -7.2      3.005      3.552
REMARK  Name = 
REMARK  8 active torsions:
REMARK  status: ('A' for Active; 'I' for Inactive)
REMARK    1  A    between atoms: C_2  and  C_3
REMARK    2  A    between atoms: C_3  and  C_4
REMARK    3  A    between atoms: C_4  and  N_5
REMARK    4  A    between atoms: C_9  and  C_10
REMARK    5  A    between atoms: N_18  and  C_19
REMARK    6  A    between atoms: C_22  and  O_23
REMARK    7  A    between atoms: C_24  and  C_25
REMARK    8  A    between atoms: C_25  and  O_27
REMARK                            x       y       z     vdW  Elec       q    Type
REMARK                         _______ _______ _______ _____ _____    ______ ____
ROOT
ATOM      1  O   UNL     1       1.862   8.262  19.347  0.00  0.00    +0.000 OA
ATOM      2  C   UNL     1       1.570   7.686  20.391  0.00  0.00    +0.000 C 
ATOM      3  N   UNL     1       1.774   6.338  20.651  0.00  0.00    +0.000 N 
ATOM      4  H   UNL     1       1.304   5.942  21.458  0.00  0.00    +0.000 HD
ENDROOT
BRANCH   3   5
ATOM      5  C   UNL     1       2.430   5.424  19.790  0.00  0.00    +0.000 A 
ATOM      6  C   UNL     1       1.806   4.284  19.276  0.00  0.00    +0.000 A 
ATOM      7  C   UNL     1       2.507   3.372  18.485  0.00  0.00    +0.000 A 
ATOM      8  C   UNL     1       3.847   3.599  18.188  0.00  0.00    +0.000 A 
ATOM      9  C   UNL     1       4.486   4.759  18.643  0.00  0.00    +0.000 A 
ATOM     10  C   UNL     1       3.763   5.673  19.438  0.00  0.00    +0.000 A 
BRANCH   8  11
ATOM     11  O   UNL     1       4.532   2.669  17.448  0.00  0.00    +0.000 OA
ATOM     12  H   UNL     1       4.936   3.121  16.681  0.00  0.00    +0.000 HD
ENDBRANCH   8  11
BRANCH   9  13
ATOM     13  C   UNL     1       5.913   5.086  18.346  0.00  0.00    +0.000 C 
ATOM     14  O   UNL     1       6.260   6.195  17.968  0.00  0.00    +0.000 OA
BRANCH  13  15
ATOM     15  O   UNL     1       6.791   4.079  18.524  0.00  0.00    +0.000 OA
ATOM     16  H   UNL     1       6.943   3.874  19.475  0.00  0.00    +0.000 HD
ENDBRANCH  13  15
ENDBRANCH   9  13
ENDBRANCH   3   5
BRANCH   2  17
ATOM     17  C   UNL     1       0.897   8.431  21.531  0.00  0.00    +0.000 C 
BRANCH  17  18
ATOM     18  C   UNL     1       1.294   9.912  21.496  0.00  0.00    +0.000 C 
BRANCH  18  19
ATOM     19  N   UNL     1       0.137  10.813  21.454  0.00  0.00    +0.000 N 
ATOM     20  C   UNL     1      -0.637  10.964  22.594  0.00  0.00    +0.000 C 
ATOM     21  O   UNL     1      -0.467  10.384  23.657  0.00  0.00    +0.000 OA
ATOM     22  C   UNL     1      -1.740  11.930  22.349  0.00  0.00    +0.000 C 
ATOM     23  C   UNL     1      -2.633  12.231  23.300  0.00  0.00    +0.000 C 
ATOM     24  S   UNL     1      -1.666  12.510  20.734  0.00  0.00    +0.000 S 
ATOM     25  C   UNL     1      -0.250  11.541  20.348  0.00  0.00    +0.000 C 
ATOM     26  S   UNL     1       0.448  11.561  18.833  0.00  0.00    +0.000 S 
BRANCH  23  27
ATOM     27  C   UNL     1      -3.729  13.113  23.087  0.00  0.00    +0.000 A 
ATOM     28  C   UNL     1      -4.981  12.843  22.563  0.00  0.00    +0.000 A 
ATOM     29  C   UNL     1      -5.805  14.003  22.481  0.00  0.00    +0.000 A 
ATOM     30  C   UNL     1      -5.160  15.128  22.942  0.00  0.00    +0.000 A 
ATOM     31  S   UNL     1      -3.569  14.784  23.457  0.00  0.00    +0.000 S 
ENDBRANCH  23  27
ENDBRANCH  18  19
ENDBRANCH  17  18
ENDBRANCH   2  17
TORSDOF 8
ENDMDL
MODEL 8
REMARK VINA RESULT:      -7.1      3.103      4.024
REMARK  Name = 
REMARK  8 active torsions:
REMARK  status: ('A' for Active; 'I' for Inactive)
REMARK    1  A    between atoms: C_2  and  C_3
REMARK    2  A    between atoms: C_3  and  C_4
REMARK    3  A    between atoms: C_4  and  N_5
REMARK    4  A    between atoms: C_9  and  C_10
REMARK    5  A    between atoms: N_18  and  C_19
REMARK    6  A    between atoms: C_22  and  O_23
REMARK    7  A    between atoms: C_24  and  C_25
REMARK    8  A    between atoms: C_25  and  O_27
REMARK                            x       y       z     vdW  Elec       q    Type
REMARK                         _______ _______ _______ _____ _____    ______ ____
ROOT
ATOM      1  O   UNL     1       1.854   8.371  19.095  0.00  0.00    +0.000 OA
ATOM      2  C   UNL     1       1.746   7.740  20.142  0.00  0.00    +0.000 C 
ATOM      3  N   UNL     1       2.274   6.478  20.379  0.00  0.00    +0.000 N 
ATOM      4  H   UNL     1       1.942   5.980  21.198  0.00  0.00    +0.000 HD
ENDROOT
BRANCH   3   5
ATOM      5  C   UNL     1       3.096   5.748  19.485  0.00  0.00    +0.000 A 
ATOM      6  C   UNL     1       3.712   6.329  18.374  0.00  0.00    +0.000 A 
ATOM      7  C   UNL     1       4.460   5.562  17.479  0.00  0.00    +0.000 A 
ATOM      8  C   UNL     1       4.610   4.196  17.696  0.00  0.00    +0.000 A 
ATOM      9  C   UNL     1       4.050   3.593  18.829  0.00  0.00    +0.000 A 
ATOM     10  C   UNL     1       3.301   4.384  19.726  0.00  0.00    +0.000 A 
BRANCH   8  11
ATOM     11  O   UNL     1       5.309   3.449  16.782  0.00  0.00    +0.000 OA
ATOM     12  H   UNL     1       6.258   3.487  17.012  0.00  0.00    +0.000 HD
ENDBRANCH   8  11
BRANCH   9  13
ATOM     13  C   UNL     1       4.186   2.139  19.143  0.00  0.00    +0.000 C 
ATOM     14  O   UNL     1       3.570   1.281  18.528  0.00  0.00    +0.000 OA
BRANCH  13  15
ATOM     15  O   UNL     1       5.032   1.837  20.148  0.00  0.00    +0.000 OA
ATOM     16  H   UNL     1       4.725   1.070  20.683  0.00  0.00    +0.000 HD
ENDBRANCH  13  15
ENDBRANCH   9  13
ENDBRANCH   3   5
BRANCH   2  17
ATOM     17  C   UNL     1       0.959   8.300  21.314  0.00  0.00    +0.000 C 
BRANCH  17  18
ATOM     18  C   UNL     1       1.392   9.745  21.593  0.00  0.00    +0.000 C 
BRANCH  18  19
ATOM     19  N   UNL     1       0.277  10.697  21.542  0.00  0.00    +0.000 N 
ATOM     20  C   UNL     1      -0.590  10.772  22.620  0.00  0.00    +0.000 C 
ATOM     21  O   UNL     1      -0.537  10.086  23.631  0.00  0.00    +0.000 OA
ATOM     22  C   UNL     1      -1.632  11.805  22.378  0.00  0.00    +0.000 C 
ATOM     23  C   UNL     1      -2.595  12.053  23.275  0.00  0.00    +0.000 C 
ATOM     24  S   UNL     1      -1.392  12.534  20.841  0.00  0.00    +0.000 S 
ATOM     25  C   UNL     1       0.017  11.544  20.484  0.00  0.00    +0.000 C 
ATOM     26  S   UNL     1       0.848  11.677  19.044  0.00  0.00    +0.000 S 
BRANCH  23  27
ATOM     27  C   UNL     1      -3.635  12.999  23.057  0.00  0.00    +0.000 A 
ATOM     28  C   UNL     1      -4.821  12.852  22.360  0.00  0.00    +0.000 A 
ATOM     29  C   UNL     1      -5.600  14.045  22.340  0.00  0.00    +0.000 A 
ATOM     30  C   UNL     1      -4.988  15.073  23.020  0.00  0.00    +0.000 A 
ATOM     31  S   UNL     1      -3.479  14.600  23.666  0.00  0.00    +0.000 S 
ENDBRANCH  23  27
ENDBRANCH  18  19
ENDBRANCH  17  18
ENDBRANCH   2  17
TORSDOF 8
ENDMDL
MODEL 9
REMARK VINA RESULT:      -7.1      2.501      3.387
REMARK  Name = 
REMARK  8 active torsions:
REMARK  status: ('A' for Active; 'I' for Inactive)
REMARK    1  A    between atoms: C_2  and  C_3
REMARK    2  A    between atoms: C_3  and  C_4
REMARK    3  A    between atoms: C_4  and  N_5
REMARK    4  A    between atoms: C_9  and  C_10
REMARK    5  A    between atoms: N_18  and  C_19
REMARK    6  A    between atoms: C_22  and  O_23
REMARK    7  A    between atoms: C_24  and  C_25
REMARK    8  A    between atoms: C_25  and  O_27
REMARK                            x       y       z     vdW  Elec       q    Type
REMARK                         _______ _______ _______ _____ _____    ______ ____
ROOT
ATOM      1  O   UNL     1       2.259   8.726  17.156  0.00  0.00    +0.000 OA
ATOM      2  C   UNL     1       2.075   8.297  18.291  0.00  0.00    +0.000 C 
ATOM      3  N   UNL     1       2.523   7.075  18.773  0.00  0.00    +0.000 N 
ATOM      4  H   UNL     1       2.132   6.748  19.650  0.00  0.00    +0.000 HD
ENDROOT
BRANCH   3   5
ATOM      5  C   UNL     1       3.338   6.159  18.063  0.00  0.00    +0.000 A 
ATOM      6  C   UNL     1       2.955   4.839  17.812  0.00  0.00    +0.000 A 
ATOM      7  C   UNL     1       3.815   3.947  17.167  0.00  0.00    +0.000 A 
ATOM      8  C   UNL     1       5.072   4.375  16.752  0.00  0.00    +0.000 A 
ATOM      9  C   UNL     1       5.464   5.706  16.941  0.00  0.00    +0.000 A 
ATOM     10  C   UNL     1       4.582   6.595  17.590  0.00  0.00    +0.000 A 
BRANCH   8  11
ATOM     11  O   UNL     1       5.921   3.474  16.162  0.00  0.00    +0.000 OA
ATOM     12  H   UNL     1       6.816   3.605  16.531  0.00  0.00    +0.000 HD
ENDBRANCH   8  11
BRANCH   9  13
ATOM     13  C   UNL     1       6.786   6.247  16.502  0.00  0.00    +0.000 C 
ATOM     14  O   UNL     1       7.519   5.633  15.741  0.00  0.00    +0.000 OA
BRANCH  13  15
ATOM     15  O   UNL     1       7.115   7.455  17.000  0.00  0.00    +0.000 OA
ATOM     16  H   UNL     1       6.378   7.871  17.502  0.00  0.00    +0.000 HD
ENDBRANCH  13  15
ENDBRANCH   9  13
ENDBRANCH   3   5
BRANCH   2  17
ATOM     17  C   UNL     1       1.275   9.095  19.306  0.00  0.00    +0.000 C 
BRANCH  17  18
ATOM     18  C   UNL     1       1.195  10.564  18.873  0.00  0.00    +0.000 C 
BRANCH  18  19
ATOM     19  N   UNL     1       0.039  11.266  19.442  0.00  0.00    +0.000 N 
ATOM     20  C   UNL     1       0.206  12.001  20.605  0.00  0.00    +0.000 C 
ATOM     21  O   UNL     1       1.244  12.106  21.243  0.00  0.00    +0.000 OA
ATOM     22  C   UNL     1      -1.074  12.646  21.000  0.00  0.00    +0.000 C 
ATOM     23  C   UNL     1      -1.169  13.400  22.103  0.00  0.00    +0.000 C 
ATOM     24  S   UNL     1      -2.308  12.244  19.875  0.00  0.00    +0.000 S 
ATOM     25  C   UNL     1      -1.230  11.256  18.898  0.00  0.00    +0.000 C 
ATOM     26  S   UNL     1      -1.758  10.455  17.533  0.00  0.00    +0.000 S 
BRANCH  23  27
ATOM     27  C   UNL     1      -2.387  13.992  22.538  0.00  0.00    +0.000 A 
ATOM     28  C   UNL     1      -3.015  15.138  22.082  0.00  0.00    +0.000 A 
ATOM     29  C   UNL     1      -4.216  15.427  22.792  0.00  0.00    +0.000 A 
ATOM     30  C   UNL     1      -4.473  14.496  23.773  0.00  0.00    +0.000 A 
ATOM     31  S   UNL     1      -3.264  13.292  23.840  0.00  0.00    +0.000 S 
ENDBRANCH  23  27
ENDBRANCH  18  19
ENDBRANCH  17  18
ENDBRANCH   2  17
TORSDOF 8
ENDMDL
