MODEL 1
REMARK VINA RESULT:      -7.7      0.000      0.000
REMARK  Name = 
REMARK  10 active torsions:
REMARK  status: ('A' for Active; 'I' for Inactive)
REMARK    1  A    between atoms: C_2  and  C_3
REMARK    2  A    between atoms: C_9  and  O_10
REMARK    3  A    between atoms: O_10  and  C_11
REMARK    4  A    between atoms: C_11  and  C_12
REMARK    5  A    between atoms: C_12  and  O_13
REMARK    6  A    between atoms: C_12  and  C_14
REMARK    7  A    between atoms: C_14  and  N_15
REMARK    8  A    between atoms: C_19  and  C_20
REMARK    9  A    between atoms: C_20  and  O_21
REMARK   10  A    between atoms: C_20  and  C_22
REMARK                            x       y       z     vdW  Elec       q    Type
REMARK                         _______ _______ _______ _____ _____    ______ ____
ROOT
ATOM      1  C   UNL     1       4.126   6.323  18.165  0.00  0.00    +0.000 C 
ENDROOT
BRANCH   1   2
ATOM      2  N   UNL     1       4.513   5.780  16.859  0.00  0.00    +0.000 NA
ATOM      3  C   UNL     1       5.823   6.201  16.376  0.00  0.00    +0.000 C 
ATOM      4  C   UNL     1       5.893   5.454  15.061  0.00  0.00    +0.000 C 
ATOM      5  C   UNL     1       5.388   4.075  15.447  0.00  0.00    +0.000 C 
ATOM      6  C   UNL     1       4.353   4.324  16.565  0.00  0.00    +0.000 C 
BRANCH   6   7
ATOM      7  C   UNL     1       4.478   3.252  17.705  0.00  0.00    +0.000 C 
BRANCH   7   8
ATOM      8  C   UNL     1       3.298   3.077  18.666  0.00  0.00    +0.000 A 
ATOM      9  C   UNL     1       2.018   2.828  18.124  0.00  0.00    +0.000 A 
ATOM     10  C   UNL     1       0.910   2.565  18.940  0.00  0.00    +0.000 A 
ATOM     11  C   UNL     1       1.060   2.537  20.322  0.00  0.00    +0.000 A 
ATOM     12  C   UNL     1       2.314   2.775  20.871  0.00  0.00    +0.000 A 
ATOM     13  F   UNL     1       2.462   2.729  22.203  0.00  0.00    +0.000 F 
ATOM     14  C   UNL     1       3.426   3.040  20.065  0.00  0.00    +0.000 A 
ENDBRANCH   7   8
BRANCH   7  15
ATOM     15  O   UNL     1       5.608   3.556  18.531  0.00  0.00    +0.000 OA
ATOM     16  H   UNL     1       5.626   2.896  19.245  0.00  0.00    +0.000 HD
ENDBRANCH   7  15
ENDBRANCH   6   7
ENDBRANCH   1   2
BRANCH   1  17
ATOM     17  C   UNL     1       2.586   6.619  18.301  0.00  0.00    +0.000 C 
BRANCH  17  18
ATOM     18  O   UNL     1       2.091   6.111  19.552  0.00  0.00    +0.000 OA
ATOM     19  H   UNL     1       1.885   5.171  19.422  0.00  0.00    +0.000 HD
ENDBRANCH  17  18
BRANCH  17  20
ATOM     20  C   UNL     1       2.304   8.139  18.232  0.00  0.00    +0.000 C 
BRANCH  20  21
ATOM     21  O   UNL     1       1.846   8.657  19.493  0.00  0.00    +0.000 OA
BRANCH  21  28
ATOM     22  C   UNL     1       0.189  10.153  20.670  0.00  0.00    +0.000 A 
ATOM     23  C   UNL     1      -0.875  11.061  20.475  0.00  0.00    +0.000 A 
ATOM     24 CL   UNL     1      -1.644  11.877  21.800  0.00  0.00    +0.000 Cl
ATOM     25  C   UNL     1      -1.362  11.344  19.199  0.00  0.00    +0.000 A 
ATOM     26  C   UNL     1      -0.809  10.705  18.098  0.00  0.00    +0.000 A 
ATOM     27  C   UNL     1       0.247   9.804  18.278  0.00  0.00    +0.000 A 
ATOM     28  C   UNL     1       0.780   9.529  19.553  0.00  0.00    +0.000 A 
BRANCH  22  30
ATOM     29  N   UNL     1       0.919   9.702  23.117  0.00  0.00    +0.000 NA
ATOM     30  C   UNL     1       0.604   9.904  22.014  0.00  0.00    +0.000 C 
ENDBRANCH  22  30
ENDBRANCH  21  28
ENDBRANCH  20  21
ENDBRANCH  17  20
ENDBRANCH   1  17
TORSDOF 10
ENDMDL
MODEL 2
REMARK VINA RESULT:      -7.6      2.315      4.347
REMARK  Name = 
REMARK  10 active torsions:
REMARK  status: ('A' for Active; 'I' for Inactive)
REMARK    1  A    between atoms: C_2  and  C_3
REMARK    2  A    between atoms: C_9  and  O_10
REMARK    3  A    between atoms: O_10  and  C_11
REMARK    4  A    between atoms: C_11  and  C_12
REMARK    5  A    between atoms: C_12  and  O_13
REMARK    6  A    between atoms: C_12  and  C_14
REMARK    7  A    between atoms: C_14  and  N_15
REMARK    8  A    between atoms: C_19  and  C_20
REMARK    9  A    between atoms: C_20  and  O_21
REMARK   10  A    between atoms: C_20  and  C_22
REMARK                            x       y       z     vdW  Elec       q    Type
REMARK                         _______ _______ _______ _____ _____    ______ ____
ROOT
ATOM      1  C   UNL     1       2.107   5.627  18.619  0.00  0.00    +0.000 C 
ENDROOT
BRANCH   1   2
ATOM      2  N   UNL     1       2.181   4.735  19.781  0.00  0.00    +0.000 NA
ATOM      3  C   UNL     1       1.002   3.906  20.002  0.00  0.00    +0.000 C 
ATOM      4  C   UNL     1       1.431   3.125  21.226  0.00  0.00    +0.000 C 
ATOM      5  C   UNL     1       2.855   2.730  20.874  0.00  0.00    +0.000 C 
ATOM      6  C   UNL     1       3.394   3.894  20.015  0.00  0.00    +0.000 C 
BRANCH   6   7
ATOM      7  C   UNL     1       4.252   3.363  18.812  0.00  0.00    +0.000 C 
BRANCH   7   8
ATOM      8  C   UNL     1       5.239   4.327  18.147  0.00  0.00    +0.000 A 
ATOM      9  C   UNL     1       5.062   4.638  16.781  0.00  0.00    +0.000 A 
ATOM     10  C   UNL     1       5.867   5.581  16.128  0.00  0.00    +0.000 A 
ATOM     11  C   UNL     1       6.866   6.243  16.833  0.00  0.00    +0.000 A 
ATOM     12  C   UNL     1       7.050   5.953  18.179  0.00  0.00    +0.000 A 
ATOM     13  F   UNL     1       8.001   6.606  18.862  0.00  0.00    +0.000 F 
ATOM     14  C   UNL     1       6.253   5.012  18.839  0.00  0.00    +0.000 A 
ENDBRANCH   7   8
BRANCH   7  15
ATOM     15  O   UNL     1       3.386   2.912  17.764  0.00  0.00    +0.000 OA
ATOM     16  H   UNL     1       3.458   3.554  17.037  0.00  0.00    +0.000 HD
ENDBRANCH   7  15
ENDBRANCH   6   7
ENDBRANCH   1   2
BRANCH   1  17
ATOM     17  C   UNL     1       2.593   7.095  18.912  0.00  0.00    +0.000 C 
BRANCH  17  18
ATOM     18  O   UNL     1       2.317   7.944  17.785  0.00  0.00    +0.000 OA
ATOM     19  H   UNL     1       1.372   7.851  17.576  0.00  0.00    +0.000 HD
ENDBRANCH  17  18
BRANCH  17  20
ATOM     20  C   UNL     1       1.886   7.677  20.160  0.00  0.00    +0.000 C 
BRANCH  20  21
ATOM     21  O   UNL     1       1.318   8.972  19.900  0.00  0.00    +0.000 OA
BRANCH  21  28
ATOM     22  C   UNL     1      -0.285  10.738  20.726  0.00  0.00    +0.000 A 
ATOM     23  C   UNL     1      -1.017  11.187  21.848  0.00  0.00    +0.000 A 
ATOM     24 CL   UNL     1      -2.081  12.555  21.766  0.00  0.00    +0.000 Cl
ATOM     25  C   UNL     1      -0.917  10.546  23.083  0.00  0.00    +0.000 A 
ATOM     26  C   UNL     1      -0.063   9.461  23.223  0.00  0.00    +0.000 A 
ATOM     27  C   UNL     1       0.667   9.006  22.119  0.00  0.00    +0.000 A 
ATOM     28  C   UNL     1       0.555   9.613  20.852  0.00  0.00    +0.000 A 
BRANCH  22  30
ATOM     29  N   UNL     1      -0.568  12.056  18.511  0.00  0.00    +0.000 NA
ATOM     30  C   UNL     1      -0.430  11.471  19.508  0.00  0.00    +0.000 C 
ENDBRANCH  22  30
ENDBRANCH  21  28
ENDBRANCH  20  21
ENDBRANCH  17  20
ENDBRANCH   1  17
TORSDOF 10
ENDMDL
MODEL 3
REMARK VINA RESULT:      -7.5      1.993      3.872
REMARK  Name = 
REMARK  10 active torsions:
REMARK  status: ('A' for Active; 'I' for Inactive)
REMARK    1  A    between atoms: C_2  and  C_3
REMARK    2  A    between atoms: C_9  and  O_10
REMARK    3  A    between atoms: O_10  and  C_11
REMARK    4  A    between atoms: C_11  and  C_12
REMARK    5  A    between atoms: C_12  and  O_13
REMARK    6  A    between atoms: C_12  and  C_14
REMARK    7  A    between atoms: C_14  and  N_15
REMARK    8  A    between atoms: C_19  and  C_20
REMARK    9  A    between atoms: C_20  and  O_21
REMARK   10  A    between atoms: C_20  and  C_22
REMARK                            x       y       z     vdW  Elec       q    Type
REMARK                         _______ _______ _______ _____ _____    ______ ____
ROOT
ATOM      1  C   UNL     1       2.195   5.701  18.380  0.00  0.00    +0.000 C 
ENDROOT
BRANCH   1   2
ATOM      2  N   UNL     1       2.304   4.867  19.581  0.00  0.00    +0.000 NA
ATOM      3  C   UNL     1       1.070   4.204  19.989  0.00  0.00    +0.000 C 
ATOM      4  C   UNL     1       1.550   3.439  21.204  0.00  0.00    +0.000 C 
ATOM      5  C   UNL     1       2.863   2.851  20.717  0.00  0.00    +0.000 C 
ATOM      6  C   UNL     1       3.427   3.893  19.728  0.00  0.00    +0.000 C 
BRANCH   6   7
ATOM      7  C   UNL     1       4.063   3.198  18.472  0.00  0.00    +0.000 C 
BRANCH   7   8
ATOM      8  C   UNL     1       5.136   3.961  17.689  0.00  0.00    +0.000 A 
ATOM      9  C   UNL     1       5.038   4.008  16.281  0.00  0.00    +0.000 A 
ATOM     10  C   UNL     1       5.927   4.762  15.504  0.00  0.00    +0.000 A 
ATOM     11  C   UNL     1       6.933   5.497  16.122  0.00  0.00    +0.000 A 
ATOM     12  C   UNL     1       7.040   5.466  17.507  0.00  0.00    +0.000 A 
ATOM     13  F   UNL     1       7.998   6.190  18.103  0.00  0.00    +0.000 F 
ATOM     14  C   UNL     1       6.158   4.715  18.291  0.00  0.00    +0.000 A 
ENDBRANCH   7   8
BRANCH   7  15
ATOM     15  O   UNL     1       3.038   2.888  17.521  0.00  0.00    +0.000 OA
ATOM     16  H   UNL     1       2.734   3.731  17.143  0.00  0.00    +0.000 HD
ENDBRANCH   7  15
ENDBRANCH   6   7
ENDBRANCH   1   2
BRANCH   1  17
ATOM     17  C   UNL     1       2.943   7.081  18.494  0.00  0.00    +0.000 C 
BRANCH  17  18
ATOM     18  O   UNL     1       3.931   7.199  17.455  0.00  0.00    +0.000 OA
ATOM     19  H   UNL     1       4.780   7.400  17.884  0.00  0.00    +0.000 HD
ENDBRANCH  17  18
BRANCH  17  20
ATOM     20  C   UNL     1       1.952   8.263  18.376  0.00  0.00    +0.000 C 
BRANCH  20  21
ATOM     21  O   UNL     1       1.512   8.726  19.664  0.00  0.00    +0.000 OA
BRANCH  21  28
ATOM     22  C   UNL     1      -0.032  10.275  20.923  0.00  0.00    +0.000 A 
ATOM     23  C   UNL     1      -1.011  11.283  20.780  0.00  0.00    +0.000 A 
ATOM     24 CL   UNL     1      -1.731  12.070  22.149  0.00  0.00    +0.000 Cl
ATOM     25  C   UNL     1      -1.449  11.695  19.521  0.00  0.00    +0.000 A 
ATOM     26  C   UNL     1      -0.933  11.087  18.385  0.00  0.00    +0.000 A 
ATOM     27  C   UNL     1       0.039  10.088  18.514  0.00  0.00    +0.000 A 
ATOM     28  C   UNL     1       0.523   9.680  19.773  0.00  0.00    +0.000 A 
BRANCH  22  30
ATOM     29  N   UNL     1       0.657   9.602  23.330  0.00  0.00    +0.000 NA
ATOM     30  C   UNL     1       0.336   9.899  22.252  0.00  0.00    +0.000 C 
ENDBRANCH  22  30
ENDBRANCH  21  28
ENDBRANCH  20  21
ENDBRANCH  17  20
ENDBRANCH   1  17
TORSDOF 10
ENDMDL
MODEL 4
REMARK VINA RESULT:      -7.5      2.172      4.066
REMARK  Name = 
REMARK  10 active torsions:
REMARK  status: ('A' for Active; 'I' for Inactive)
REMARK    1  A    between atoms: C_2  and  C_3
REMARK    2  A    between atoms: C_9  and  O_10
REMARK    3  A    between atoms: O_10  and  C_11
REMARK    4  A    between atoms: C_11  and  C_12
REMARK    5  A    between atoms: C_12  and  O_13
REMARK    6  A    between atoms: C_12  and  C_14
REMARK    7  A    between atoms: C_14  and  N_15
REMARK    8  A    between atoms: C_19  and  C_20
REMARK    9  A    between atoms: C_20  and  O_21
REMARK   10  A    between atoms: C_20  and  C_22
REMARK                            x       y       z     vdW  Elec       q    Type
REMARK                         _______ _______ _______ _____ _____    ______ ____
ROOT
ATOM      1  C   UNL     1       2.220   5.697  18.449  0.00  0.00    +0.000 C 
ENDROOT
BRANCH   1   2
ATOM      2  N   UNL     1       2.349   4.860  19.646  0.00  0.00    +0.000 NA
ATOM      3  C   UNL     1       1.114   4.229  20.098  0.00  0.00    +0.000 C 
ATOM      4  C   UNL     1       1.616   3.452  21.296  0.00  0.00    +0.000 C 
ATOM      5  C   UNL     1       2.896   2.831  20.764  0.00  0.00    +0.000 C 
ATOM      6  C   UNL     1       3.452   3.858  19.755  0.00  0.00    +0.000 C 
BRANCH   6   7
ATOM      7  C   UNL     1       4.027   3.148  18.479  0.00  0.00    +0.000 C 
BRANCH   7   8
ATOM      8  C   UNL     1       4.981   3.939  17.578  0.00  0.00    +0.000 A 
ATOM      9  C   UNL     1       6.123   4.531  18.161  0.00  0.00    +0.000 A 
ATOM     10  C   UNL     1       7.088   5.190  17.388  0.00  0.00    +0.000 A 
ATOM     11  C   UNL     1       6.936   5.263  16.008  0.00  0.00    +0.000 A 
ATOM     12  C   UNL     1       5.821   4.681  15.418  0.00  0.00    +0.000 A 
ATOM     13  F   UNL     1       5.685   4.735  14.086  0.00  0.00    +0.000 F 
ATOM     14  C   UNL     1       4.851   4.022  16.182  0.00  0.00    +0.000 A 
ENDBRANCH   7   8
BRANCH   7  15
ATOM     15  O   UNL     1       2.949   2.733  17.631  0.00  0.00    +0.000 OA
ATOM     16  H   UNL     1       2.796   1.788  17.805  0.00  0.00    +0.000 HD
ENDBRANCH   7  15
ENDBRANCH   6   7
ENDBRANCH   1   2
BRANCH   1  17
ATOM     17  C   UNL     1       2.938   7.092  18.567  0.00  0.00    +0.000 C 
BRANCH  17  18
ATOM     18  O   UNL     1       3.939   7.225  17.543  0.00  0.00    +0.000 OA
ATOM     19  H   UNL     1       3.578   7.813  16.859  0.00  0.00    +0.000 HD
ENDBRANCH  17  18
BRANCH  17  20
ATOM     20  C   UNL     1       1.925   8.253  18.427  0.00  0.00    +0.000 C 
BRANCH  20  21
ATOM     21  O   UNL     1       1.501   8.753  19.707  0.00  0.00    +0.000 OA
BRANCH  21  28
ATOM     22  C   UNL     1      -0.064  10.300  20.943  0.00  0.00    +0.000 A 
ATOM     23  C   UNL     1      -1.038  11.311  20.785  0.00  0.00    +0.000 A 
ATOM     24 CL   UNL     1      -1.783  12.093  22.143  0.00  0.00    +0.000 Cl
ATOM     25  C   UNL     1      -1.451  11.728  19.519  0.00  0.00    +0.000 A 
ATOM     26  C   UNL     1      -0.914  11.124  18.391  0.00  0.00    +0.000 A 
ATOM     27  C   UNL     1       0.053  10.123  18.535  0.00  0.00    +0.000 A 
ATOM     28  C   UNL     1       0.512   9.709  19.801  0.00  0.00    +0.000 A 
BRANCH  22  30
ATOM     29  N   UNL     1       0.570   9.627  23.365  0.00  0.00    +0.000 NA
ATOM     30  C   UNL     1       0.278   9.918  22.277  0.00  0.00    +0.000 C 
ENDBRANCH  22  30
ENDBRANCH  21  28
ENDBRANCH  20  21
ENDBRANCH  17  20
ENDBRANCH   1  17
TORSDOF 10
ENDMDL
MODEL 5
REMARK VINA RESULT:      -7.5      1.103      1.133
REMARK  Name = 
REMARK  10 active torsions:
REMARK  status: ('A' for Active; 'I' for Inactive)
REMARK    1  A    between atoms: C_2  and  C_3
REMARK    2  A    between atoms: C_9  and  O_10
REMARK    3  A    between atoms: O_10  and  C_11
REMARK    4  A    between atoms: C_11  and  C_12
REMARK    5  A    between atoms: C_12  and  O_13
REMARK    6  A    between atoms: C_12  and  C_14
REMARK    7  A    between atoms: C_14  and  N_15
REMARK    8  A    between atoms: C_19  and  C_20
REMARK    9  A    between atoms: C_20  and  O_21
REMARK   10  A    between atoms: C_20  and  C_22
REMARK                            x       y       z     vdW  Elec       q    Type
REMARK                         _______ _______ _______ _____ _____    ______ ____
ROOT
ATOM      1  C   UNL     1       4.084   6.541  18.152  0.00  0.00    +0.000 C 
ENDROOT
BRANCH   1   2
ATOM      2  N   UNL     1       4.463   5.918  16.880  0.00  0.00    +0.000 NA
ATOM      3  C   UNL     1       5.786   6.279  16.382  0.00  0.00    +0.000 C 
ATOM      4  C   UNL     1       5.843   5.459  15.111  0.00  0.00    +0.000 C 
ATOM      5  C   UNL     1       5.301   4.116  15.570  0.00  0.00    +0.000 C 
ATOM      6  C   UNL     1       4.268   4.452  16.666  0.00  0.00    +0.000 C 
BRANCH   6   7
ATOM      7  C   UNL     1       4.362   3.442  17.864  0.00  0.00    +0.000 C 
BRANCH   7   8
ATOM      8  C   UNL     1       3.182   3.364  18.838  0.00  0.00    +0.000 A 
ATOM      9  C   UNL     1       1.906   3.039  18.328  0.00  0.00    +0.000 A 
ATOM     10  C   UNL     1       0.799   2.858  19.168  0.00  0.00    +0.000 A 
ATOM     11  C   UNL     1       0.947   2.991  20.545  0.00  0.00    +0.000 A 
ATOM     12  C   UNL     1       2.197   3.306  21.063  0.00  0.00    +0.000 A 
ATOM     13  F   UNL     1       2.343   3.415  22.391  0.00  0.00    +0.000 F 
ATOM     14  C   UNL     1       3.308   3.490  20.232  0.00  0.00    +0.000 A 
ENDBRANCH   7   8
BRANCH   7  15
ATOM     15  O   UNL     1       5.507   3.751  18.667  0.00  0.00    +0.000 OA
ATOM     16  H   UNL     1       5.179   4.156  19.489  0.00  0.00    +0.000 HD
ENDBRANCH   7  15
ENDBRANCH   6   7
ENDBRANCH   1   2
BRANCH   1  17
ATOM     17  C   UNL     1       2.556   6.906  18.252  0.00  0.00    +0.000 C 
BRANCH  17  18
ATOM     18  O   UNL     1       2.089   6.723  19.600  0.00  0.00    +0.000 OA
ATOM     19  H   UNL     1       2.451   5.881  19.921  0.00  0.00    +0.000 HD
ENDBRANCH  17  18
BRANCH  17  20
ATOM     20  C   UNL     1       2.306   8.374  17.832  0.00  0.00    +0.000 C 
BRANCH  20  21
ATOM     21  O   UNL     1       1.772   9.158  18.912  0.00  0.00    +0.000 OA
BRANCH  21  28
ATOM     22  C   UNL     1       0.254  11.121  19.371  0.00  0.00    +0.000 A 
ATOM     23  C   UNL     1      -0.945  11.758  18.982  0.00  0.00    +0.000 A 
ATOM     24 CL   UNL     1      -1.477  13.242  19.707  0.00  0.00    +0.000 Cl
ATOM     25  C   UNL     1      -1.765  11.218  17.990  0.00  0.00    +0.000 A 
ATOM     26  C   UNL     1      -1.410  10.019  17.389  0.00  0.00    +0.000 A 
ATOM     27  C   UNL     1      -0.224   9.379  17.764  0.00  0.00    +0.000 A 
ATOM     28  C   UNL     1       0.638   9.922  18.737  0.00  0.00    +0.000 A 
BRANCH  22  30
ATOM     29  N   UNL     1       1.629  12.252  21.256  0.00  0.00    +0.000 NA
ATOM     30  C   UNL     1       1.016  11.733  20.414  0.00  0.00    +0.000 C 
ENDBRANCH  22  30
ENDBRANCH  21  28
ENDBRANCH  20  21
ENDBRANCH  17  20
ENDBRANCH   1  17
TORSDOF 10
ENDMDL
MODEL 6
REMARK VINA RESULT:      -7.3      2.186      3.836
REMARK  Name = 
REMARK  10 active torsions:
REMARK  status: ('A' for Active; 'I' for Inactive)
REMARK    1  A    between atoms: C_2  and  C_3
REMARK    2  A    between atoms: C_9  and  O_10
REMARK    3  A    between atoms: O_10  and  C_11
REMARK    4  A    between atoms: C_11  and  C_12
REMARK    5  A    between atoms: C_12  and  O_13
REMARK    6  A    between atoms: C_12  and  C_14
REMARK    7  A    between atoms: C_14  and  N_15
REMARK    8  A    between atoms: C_19  and  C_20
REMARK    9  A    between atoms: C_20  and  O_21
REMARK   10  A    between atoms: C_20  and  C_22
REMARK                            x       y       z     vdW  Elec       q    Type
REMARK                         _______ _______ _______ _____ _____    ______ ____
ROOT
ATOM      1  C   UNL     1       2.897   6.228  19.475  0.00  0.00    +0.000 C 
ENDROOT
BRANCH   1   2
ATOM      2  N   UNL     1       2.335   4.882  19.327  0.00  0.00    +0.000 NA
ATOM      3  C   UNL     1       1.654   4.631  18.061  0.00  0.00    +0.000 C 
ATOM      4  C   UNL     1       1.240   3.187  18.245  0.00  0.00    +0.000 C 
ATOM      5  C   UNL     1       2.498   2.561  18.822  0.00  0.00    +0.000 C 
ATOM      6  C   UNL     1       3.152   3.678  19.664  0.00  0.00    +0.000 C 
BRANCH   6   7
ATOM      7  C   UNL     1       4.712   3.685  19.485  0.00  0.00    +0.000 C 
BRANCH   7   8
ATOM      8  C   UNL     1       5.291   4.314  18.214  0.00  0.00    +0.000 A 
ATOM      9  C   UNL     1       6.319   5.273  18.345  0.00  0.00    +0.000 A 
ATOM     10  C   UNL     1       6.962   5.823  17.228  0.00  0.00    +0.000 A 
ATOM     11  C   UNL     1       6.594   5.416  15.949  0.00  0.00    +0.000 A 
ATOM     12  C   UNL     1       5.588   4.470  15.803  0.00  0.00    +0.000 A 
ATOM     13  F   UNL     1       5.248   4.064  14.572  0.00  0.00    +0.000 F 
ATOM     14  C   UNL     1       4.940   3.916  16.913  0.00  0.00    +0.000 A 
ENDBRANCH   7   8
BRANCH   7  15
ATOM     15  O   UNL     1       5.206   2.341  19.512  0.00  0.00    +0.000 OA
ATOM     16  H   UNL     1       5.429   2.100  18.596  0.00  0.00    +0.000 HD
ENDBRANCH   7  15
ENDBRANCH   6   7
ENDBRANCH   1   2
BRANCH   1  17
ATOM     17  C   UNL     1       1.825   7.332  19.809  0.00  0.00    +0.000 C 
BRANCH  17  18
ATOM     18  O   UNL     1       2.044   7.855  21.130  0.00  0.00    +0.000 OA
ATOM     19  H   UNL     1       2.249   7.102  21.710  0.00  0.00    +0.000 HD
ENDBRANCH  17  18
BRANCH  17  20
ATOM     20  C   UNL     1       1.893   8.498  18.793  0.00  0.00    +0.000 C 
BRANCH  20  21
ATOM     21  O   UNL     1       1.412   9.730  19.357  0.00  0.00    +0.000 OA
BRANCH  21  28
ATOM     22  C   UNL     1      -0.674  11.087  19.779  0.00  0.00    +0.000 A 
ATOM     23  C   UNL     1      -1.922  11.466  19.239  0.00  0.00    +0.000 A 
ATOM     24 CL   UNL     1      -2.986  12.565  20.060  0.00  0.00    +0.000 Cl
ATOM     25  C   UNL     1      -2.363  10.970  18.011  0.00  0.00    +0.000 A 
ATOM     26  C   UNL     1      -1.572  10.067  17.316  0.00  0.00    +0.000 A 
ATOM     27  C   UNL     1      -0.332   9.684  17.839  0.00  0.00    +0.000 A 
ATOM     28  C   UNL     1       0.151  10.198  19.059  0.00  0.00    +0.000 A 
BRANCH  22  30
ATOM     29  N   UNL     1      -0.039  12.082  22.087  0.00  0.00    +0.000 NA
ATOM     30  C   UNL     1      -0.317  11.624  21.054  0.00  0.00    +0.000 C 
ENDBRANCH  22  30
ENDBRANCH  21  28
ENDBRANCH  20  21
ENDBRANCH  17  20
ENDBRANCH   1  17
TORSDOF 10
ENDMDL
MODEL 7
REMARK VINA RESULT:      -7.3      2.504      4.522
REMARK  Name = 
REMARK  10 active torsions:
REMARK  status: ('A' for Active; 'I' for Inactive)
REMARK    1  A    between atoms: C_2  and  C_3
REMARK    2  A    between atoms: C_9  and  O_10
REMARK    3  A    between atoms: O_10  and  C_11
REMARK    4  A    between atoms: C_11  and  C_12
REMARK    5  A    between atoms: C_12  and  O_13
REMARK    6  A    between atoms: C_12  and  C_14
REMARK    7  A    between atoms: C_14  and  N_15
REMARK    8  A    between atoms: C_19  and  C_20
REMARK    9  A    between atoms: C_20  and  O_21
REMARK   10  A    between atoms: C_20  and  C_22
REMARK                            x       y       z     vdW  Elec       q    Type
REMARK                         _______ _______ _______ _____ _____    ______ ____
ROOT
ATOM      1  C   UNL     1       1.982   5.659  18.757  0.00  0.00    +0.000 C 
ENDROOT
BRANCH   1   2
ATOM      2  N   UNL     1       2.188   4.725  19.869  0.00  0.00    +0.000 NA
ATOM      3  C   UNL     1       0.997   4.004  20.301  0.00  0.00    +0.000 C 
ATOM      4  C   UNL     1       1.572   3.144  21.406  0.00  0.00    +0.000 C 
ATOM      5  C   UNL     1       2.856   2.629  20.779  0.00  0.00    +0.000 C 
ATOM      6  C   UNL     1       3.333   3.765  19.850  0.00  0.00    +0.000 C 
BRANCH   6   7
ATOM      7  C   UNL     1       3.888   3.197  18.496  0.00  0.00    +0.000 C 
BRANCH   7   8
ATOM      8  C   UNL     1       4.893   4.048  17.712  0.00  0.00    +0.000 A 
ATOM      9  C   UNL     1       5.617   5.044  18.403  0.00  0.00    +0.000 A 
ATOM     10  C   UNL     1       6.618   5.798  17.776  0.00  0.00    +0.000 A 
ATOM     11  C   UNL     1       6.925   5.563  16.440  0.00  0.00    +0.000 A 
ATOM     12  C   UNL     1       6.225   4.584  15.747  0.00  0.00    +0.000 A 
ATOM     13  F   UNL     1       6.534   4.345  14.465  0.00  0.00    +0.000 F 
ATOM     14  C   UNL     1       5.223   3.827  16.364  0.00  0.00    +0.000 A 
ENDBRANCH   7   8
BRANCH   7  15
ATOM     15  O   UNL     1       2.803   2.952  17.594  0.00  0.00    +0.000 OA
ATOM     16  H   UNL     1       2.145   3.653  17.742  0.00  0.00    +0.000 HD
ENDBRANCH   7  15
ENDBRANCH   6   7
ENDBRANCH   1   2
BRANCH   1  17
ATOM     17  C   UNL     1       2.521   7.111  19.038  0.00  0.00    +0.000 C 
BRANCH  17  18
ATOM     18  O   UNL     1       2.287   7.957  17.900  0.00  0.00    +0.000 OA
ATOM     19  H   UNL     1       2.075   8.844  18.236  0.00  0.00    +0.000 HD
ENDBRANCH  17  18
BRANCH  17  20
ATOM     20  C   UNL     1       1.827   7.733  20.274  0.00  0.00    +0.000 C 
BRANCH  20  21
ATOM     21  O   UNL     1       1.227   9.004  19.969  0.00  0.00    +0.000 OA
BRANCH  21  28
ATOM     22  C   UNL     1      -0.399  10.771  20.746  0.00  0.00    +0.000 A 
ATOM     23  C   UNL     1      -1.128  11.249  21.857  0.00  0.00    +0.000 A 
ATOM     24 CL   UNL     1      -2.217  12.594  21.735  0.00  0.00    +0.000 Cl
ATOM     25  C   UNL     1      -1.003  10.657  23.114  0.00  0.00    +0.000 A 
ATOM     26  C   UNL     1      -0.128   9.593  23.286  0.00  0.00    +0.000 A 
ATOM     27  C   UNL     1       0.598   9.110  22.192  0.00  0.00    +0.000 A 
ATOM     28  C   UNL     1       0.463   9.667  20.905  0.00  0.00    +0.000 A 
BRANCH  22  30
ATOM     29  N   UNL     1      -0.732  12.016  18.496  0.00  0.00    +0.000 NA
ATOM     30  C   UNL     1      -0.570  11.455  19.503  0.00  0.00    +0.000 C 
ENDBRANCH  22  30
ENDBRANCH  21  28
ENDBRANCH  20  21
ENDBRANCH  17  20
ENDBRANCH   1  17
TORSDOF 10
ENDMDL
MODEL 8
REMARK VINA RESULT:      -7.3      1.231      1.385
REMARK  Name = 
REMARK  10 active torsions:
REMARK  status: ('A' for Active; 'I' for Inactive)
REMARK    1  A    between atoms: C_2  and  C_3
REMARK    2  A    between atoms: C_9  and  O_10
REMARK    3  A    between atoms: O_10  and  C_11
REMARK    4  A    between atoms: C_11  and  C_12
REMARK    5  A    between atoms: C_12  and  O_13
REMARK    6  A    between atoms: C_12  and  C_14
REMARK    7  A    between atoms: C_14  and  N_15
REMARK    8  A    between atoms: C_19  and  C_20
REMARK    9  A    between atoms: C_20  and  O_21
REMARK   10  A    between atoms: C_20  and  C_22
REMARK                            x       y       z     vdW  Elec       q    Type
REMARK                         _______ _______ _______ _____ _____    ______ ____
ROOT
ATOM      1  C   UNL     1       4.264   6.345  17.785  0.00  0.00    +0.000 C 
ENDROOT
BRANCH   1   2
ATOM      2  N   UNL     1       4.823   5.632  16.632  0.00  0.00    +0.000 NA
ATOM      3  C   UNL     1       6.191   5.997  16.282  0.00  0.00    +0.000 C 
ATOM      4  C   UNL     1       6.436   5.077  15.105  0.00  0.00    +0.000 C 
ATOM      5  C   UNL     1       5.871   3.759  15.603  0.00  0.00    +0.000 C 
ATOM      6  C   UNL     1       4.693   4.148  16.523  0.00  0.00    +0.000 C 
BRANCH   6   7
ATOM      7  C   UNL     1       4.651   3.244  17.806  0.00  0.00    +0.000 C 
BRANCH   7   8
ATOM      8  C   UNL     1       3.357   3.213  18.626  0.00  0.00    +0.000 A 
ATOM      9  C   UNL     1       2.176   2.750  18.006  0.00  0.00    +0.000 A 
ATOM     10  C   UNL     1       0.978   2.606  18.717  0.00  0.00    +0.000 A 
ATOM     11  C   UNL     1       0.936   2.914  20.072  0.00  0.00    +0.000 A 
ATOM     12  C   UNL     1       2.091   3.366  20.699  0.00  0.00    +0.000 A 
ATOM     13  F   UNL     1       2.055   3.645  22.009  0.00  0.00    +0.000 F 
ATOM     14  C   UNL     1       3.292   3.515  19.997  0.00  0.00    +0.000 A 
ENDBRANCH   7   8
BRANCH   7  15
ATOM     15  O   UNL     1       5.677   3.652  18.717  0.00  0.00    +0.000 OA
ATOM     16  H   UNL     1       5.565   4.607  18.866  0.00  0.00    +0.000 HD
ENDBRANCH   7  15
ENDBRANCH   6   7
ENDBRANCH   1   2
BRANCH   1  17
ATOM     17  C   UNL     1       2.858   6.997  17.510  0.00  0.00    +0.000 C 
BRANCH  17  18
ATOM     18  O   UNL     1       1.823   6.242  18.164  0.00  0.00    +0.000 OA
ATOM     19  H   UNL     1       1.300   6.865  18.694  0.00  0.00    +0.000 HD
ENDBRANCH  17  18
BRANCH  17  20
ATOM     20  C   UNL     1       2.811   8.456  18.024  0.00  0.00    +0.000 C 
BRANCH  20  21
ATOM     21  O   UNL     1       1.475   8.986  18.012  0.00  0.00    +0.000 OA
BRANCH  21  28
ATOM     22  C   UNL     1       0.831   9.211  20.442  0.00  0.00    +0.000 A 
ATOM     23  C   UNL     1       0.325  10.100  21.416  0.00  0.00    +0.000 A 
ATOM     24 CL   UNL     1       0.141   9.637  23.078  0.00  0.00    +0.000 Cl
ATOM     25  C   UNL     1      -0.055  11.400  21.084  0.00  0.00    +0.000 A 
ATOM     26  C   UNL     1       0.042  11.825  19.766  0.00  0.00    +0.000 A 
ATOM     27  C   UNL     1       0.544  10.955  18.792  0.00  0.00    +0.000 A 
ATOM     28  C   UNL     1       0.967   9.648  19.109  0.00  0.00    +0.000 A 
BRANCH  22  30
ATOM     29  N   UNL     1       1.426   6.805  21.204  0.00  0.00    +0.000 NA
ATOM     30  C   UNL     1       1.169   7.890  20.868  0.00  0.00    +0.000 C 
ENDBRANCH  22  30
ENDBRANCH  21  28
ENDBRANCH  20  21
ENDBRANCH  17  20
ENDBRANCH   1  17
TORSDOF 10
ENDMDL
MODEL 9
REMARK VINA RESULT:      -7.3      2.581      4.285
REMARK  Name = 
REMARK  10 active torsions:
REMARK  status: ('A' for Active; 'I' for Inactive)
REMARK    1  A    between atoms: C_2  and  C_3
REMARK    2  A    between atoms: C_9  and  O_10
REMARK    3  A    between atoms: O_10  and  C_11
REMARK    4  A    between atoms: C_11  and  C_12
REMARK    5  A    between atoms: C_12  and  O_13
REMARK    6  A    between atoms: C_12  and  C_14
REMARK    7  A    between atoms: C_14  and  N_15
REMARK    8  A    between atoms: C_19  and  C_20
REMARK    9  A    between atoms: C_20  and  O_21
REMARK   10  A    between atoms: C_20  and  C_22
REMARK                            x       y       z     vdW  Elec       q    Type
REMARK                         _______ _______ _______ _____ _____    ______ ____
ROOT
ATOM      1  C   UNL     1       2.940   6.370  18.816  0.00  0.00    +0.000 C 
ENDROOT
BRANCH   1   2
ATOM      2  N   UNL     1       2.398   5.013  18.945  0.00  0.00    +0.000 NA
ATOM      3  C   UNL     1       1.720   4.501  17.759  0.00  0.00    +0.000 C 
ATOM      4  C   UNL     1       1.329   3.118  18.234  0.00  0.00    +0.000 C 
ATOM      5  C   UNL     1       2.597   2.641  18.919  0.00  0.00    +0.000 C 
ATOM      6  C   UNL     1       3.235   3.914  19.515  0.00  0.00    +0.000 C 
BRANCH   6   7
ATOM      7  C   UNL     1       4.794   3.908  19.332  0.00  0.00    +0.000 C 
BRANCH   7   8
ATOM      8  C   UNL     1       5.369   4.436  18.014  0.00  0.00    +0.000 A 
ATOM      9  C   UNL     1       6.395   5.405  18.066  0.00  0.00    +0.000 A 
ATOM     10  C   UNL     1       7.034   5.866  16.908  0.00  0.00    +0.000 A 
ATOM     11  C   UNL     1       6.665   5.358  15.666  0.00  0.00    +0.000 A 
ATOM     12  C   UNL     1       5.662   4.401  15.598  0.00  0.00    +0.000 A 
ATOM     13  F   UNL     1       5.320   3.898  14.403  0.00  0.00    +0.000 F 
ATOM     14  C   UNL     1       5.017   3.935  16.749  0.00  0.00    +0.000 A 
ENDBRANCH   7   8
BRANCH   7  15
ATOM     15  O   UNL     1       5.289   2.571  19.463  0.00  0.00    +0.000 OA
ATOM     16  H   UNL     1       6.228   2.636  19.711  0.00  0.00    +0.000 HD
ENDBRANCH   7  15
ENDBRANCH   6   7
ENDBRANCH   1   2
BRANCH   1  17
ATOM     17  C   UNL     1       1.942   7.499  19.272  0.00  0.00    +0.000 C 
BRANCH  17  18
ATOM     18  O   UNL     1       2.100   7.764  20.676  0.00  0.00    +0.000 OA
ATOM     19  H   UNL     1       1.210   7.870  21.053  0.00  0.00    +0.000 HD
ENDBRANCH  17  18
BRANCH  17  20
ATOM     20  C   UNL     1       2.188   8.809  18.486  0.00  0.00    +0.000 C 
BRANCH  20  21
ATOM     21  O   UNL     1       0.984   9.303  17.875  0.00  0.00    +0.000 OA
BRANCH  21  28
ATOM     22  C   UNL     1      -1.169  10.556  18.282  0.00  0.00    +0.000 A 
ATOM     23  C   UNL     1      -1.822  11.462  19.146  0.00  0.00    +0.000 A 
ATOM     24 CL   UNL     1      -3.470  11.946  18.900  0.00  0.00    +0.000 Cl
ATOM     25  C   UNL     1      -1.166  12.016  20.246  0.00  0.00    +0.000 A 
ATOM     26  C   UNL     1       0.162  11.691  20.484  0.00  0.00    +0.000 A 
ATOM     27  C   UNL     1       0.820  10.793  19.636  0.00  0.00    +0.000 A 
ATOM     28  C   UNL     1       0.168  10.193  18.540  0.00  0.00    +0.000 A 
BRANCH  22  30
ATOM     29  N   UNL     1      -2.501   9.636  16.256  0.00  0.00    +0.000 NA
ATOM     30  C   UNL     1      -1.911  10.059  17.166  0.00  0.00    +0.000 C 
ENDBRANCH  22  30
ENDBRANCH  21  28
ENDBRANCH  20  21
ENDBRANCH  17  20
ENDBRANCH   1  17
TORSDOF 10
ENDMDL
