MODEL 1
REMARK VINA RESULT:      -6.6      0.000      0.000
REMARK  Name = 
REMARK  11 active torsions:
REMARK  status: ('A' for Active; 'I' for Inactive)
REMARK    1  A    between atoms: C_1  and  C_2
REMARK    2  A    between atoms: C_2  and  O_3
REMARK    3  A    between atoms: O_3  and  C_4
REMARK    4  A    between atoms: C_4  and  C_5
REMARK    5  A    between atoms: C_5  and  N_6
REMARK    6  A    between atoms: C_10  and  C_11
REMARK    7  A    between atoms: C_11  and  N_12
REMARK    8  A    between atoms: N_12  and  S_13
REMARK    9  A    between atoms: S_13  and  C_16
REMARK   10  A    between atoms: C_16  and  C_17
REMARK   11  A    between atoms: C_16  and  C_18
REMARK                            x       y       z     vdW  Elec       q    Type
REMARK                         _______ _______ _______ _____ _____    ______ ____
ROOT
ATOM      1  N   UNL     1       6.696   4.930  16.312  0.00  0.00    +0.000 NA
ATOM      2  C   UNL     1       7.209   6.158  16.936  0.00  0.00    +0.000 C 
ATOM      3  C   UNL     1       7.558   5.931  18.405  0.00  0.00    +0.000 C 
ATOM      4  C   UNL     1       6.356   5.421  19.181  0.00  0.00    +0.000 C 
ATOM      5  C   UNL     1       5.762   4.175  18.508  0.00  0.00    +0.000 C 
ATOM      6  C   UNL     1       5.490   4.447  17.015  0.00  0.00    +0.000 C 
ENDROOT
BRANCH   1   7
ATOM      7  C   UNL     1       6.394   5.128  14.874  0.00  0.00    +0.000 C 
BRANCH   7   8
ATOM      8  C   UNL     1       6.071   3.825  14.124  0.00  0.00    +0.000 C 
BRANCH   8   9
ATOM      9  O   UNL     1       6.542   3.889  12.773  0.00  0.00    +0.000 OA
BRANCH   9  11
ATOM     10  C   UNL     1       4.517   3.309  11.610  0.00  0.00    +0.000 C 
ATOM     11  C   UNL     1       5.918   2.873  11.984  0.00  0.00    +0.000 C 
ENDBRANCH   9  11
ENDBRANCH   8   9
ENDBRANCH   7   8
ENDBRANCH   1   7
BRANCH   5  12
ATOM     12  C   UNL     1       4.491   3.770  19.266  0.00  0.00    +0.000 C 
BRANCH  12  13
ATOM     13  N   UNL     1       3.296   4.381  18.663  0.00  0.00    +0.000 NA
ATOM     14  H   UNL     1       3.448   4.789  17.735  0.00  0.00    +0.000 HD
BRANCH  13  15
ATOM     15  S   UNL     1       1.898   3.426  18.612  0.00  0.00    +0.000 S 
ATOM     16  O   UNL     1       1.121   3.930  17.499  0.00  0.00    +0.000 OA
ATOM     17  O   UNL     1       2.338   2.050  18.658  0.00  0.00    +0.000 OA
BRANCH  15  18
ATOM     18  C   UNL     1       1.068   3.837  20.163  0.00  0.00    +0.000 C 
ATOM     19  C   UNL     1       1.340   2.802  21.247  0.00  0.00    +0.000 C 
ATOM     20  C   UNL     1       1.485   5.234  20.613  0.00  0.00    +0.000 C 
ENDBRANCH  15  18
ENDBRANCH  13  15
ENDBRANCH  12  13
ENDBRANCH   5  12
TORSDOF 8
ENDMDL
MODEL 2
REMARK VINA RESULT:      -6.3      1.823      2.220
REMARK  Name = 
REMARK  11 active torsions:
REMARK  status: ('A' for Active; 'I' for Inactive)
REMARK    1  A    between atoms: C_1  and  C_2
REMARK    2  A    between atoms: C_2  and  O_3
REMARK    3  A    between atoms: O_3  and  C_4
REMARK    4  A    between atoms: C_4  and  C_5
REMARK    5  A    between atoms: C_5  and  N_6
REMARK    6  A    between atoms: C_10  and  C_11
REMARK    7  A    between atoms: C_11  and  N_12
REMARK    8  A    between atoms: N_12  and  S_13
REMARK    9  A    between atoms: S_13  and  C_16
REMARK   10  A    between atoms: C_16  and  C_17
REMARK   11  A    between atoms: C_16  and  C_18
REMARK                            x       y       z     vdW  Elec       q    Type
REMARK                         _______ _______ _______ _____ _____    ______ ____
ROOT
ATOM      1  N   UNL     1       6.339   4.975  15.613  0.00  0.00    +0.000 NA
ATOM      2  C   UNL     1       5.324   5.890  15.071  0.00  0.00    +0.000 C 
ATOM      3  C   UNL     1       4.964   6.980  16.077  0.00  0.00    +0.000 C 
ATOM      4  C   UNL     1       4.472   6.379  17.382  0.00  0.00    +0.000 C 
ATOM      5  C   UNL     1       5.489   5.369  17.934  0.00  0.00    +0.000 C 
ATOM      6  C   UNL     1       5.859   4.333  16.854  0.00  0.00    +0.000 C 
ENDROOT
BRANCH   1   7
ATOM      7  C   UNL     1       6.728   3.938  14.627  0.00  0.00    +0.000 C 
BRANCH   7   8
ATOM      8  C   UNL     1       5.836   3.908  13.376  0.00  0.00    +0.000 C 
BRANCH   8   9
ATOM      9  O   UNL     1       6.425   3.094  12.354  0.00  0.00    +0.000 OA
BRANCH   9  11
ATOM     10  C   UNL     1       4.205   3.355  11.463  0.00  0.00    +0.000 C 
ATOM     11  C   UNL     1       5.405   2.441  11.593  0.00  0.00    +0.000 C 
ENDBRANCH   9  11
ENDBRANCH   8   9
ENDBRANCH   7   8
ENDBRANCH   1   7
BRANCH   5  12
ATOM     12  C   UNL     1       4.894   4.712  19.187  0.00  0.00    +0.000 C 
BRANCH  12  13
ATOM     13  N   UNL     1       5.379   3.333  19.346  0.00  0.00    +0.000 NA
ATOM     14  H   UNL     1       6.242   3.245  19.891  0.00  0.00    +0.000 HD
BRANCH  13  15
ATOM     15  S   UNL     1       4.261   2.195  19.914  0.00  0.00    +0.000 S 
ATOM     16  O   UNL     1       4.007   1.306  18.800  0.00  0.00    +0.000 OA
ATOM     17  O   UNL     1       4.782   1.698  21.168  0.00  0.00    +0.000 OA
BRANCH  15  18
ATOM     18  C   UNL     1       2.791   3.195  20.236  0.00  0.00    +0.000 C 
ATOM     19  C   UNL     1       1.652   2.858  19.282  0.00  0.00    +0.000 C 
ATOM     20  C   UNL     1       2.364   3.026  21.691  0.00  0.00    +0.000 C 
ENDBRANCH  15  18
ENDBRANCH  13  15
ENDBRANCH  12  13
ENDBRANCH   5  12
TORSDOF 8
ENDMDL
MODEL 3
REMARK VINA RESULT:      -6.3      1.119      1.594
REMARK  Name = 
REMARK  11 active torsions:
REMARK  status: ('A' for Active; 'I' for Inactive)
REMARK    1  A    between atoms: C_1  and  C_2
REMARK    2  A    between atoms: C_2  and  O_3
REMARK    3  A    between atoms: O_3  and  C_4
REMARK    4  A    between atoms: C_4  and  C_5
REMARK    5  A    between atoms: C_5  and  N_6
REMARK    6  A    between atoms: C_10  and  C_11
REMARK    7  A    between atoms: C_11  and  N_12
REMARK    8  A    between atoms: N_12  and  S_13
REMARK    9  A    between atoms: S_13  and  C_16
REMARK   10  A    between atoms: C_16  and  C_17
REMARK   11  A    between atoms: C_16  and  C_18
REMARK                            x       y       z     vdW  Elec       q    Type
REMARK                         _______ _______ _______ _____ _____    ______ ____
ROOT
ATOM      1  N   UNL     1       6.424   5.322  16.043  0.00  0.00    +0.000 NA
ATOM      2  C   UNL     1       5.328   6.227  15.668  0.00  0.00    +0.000 C 
ATOM      3  C   UNL     1       4.699   6.877  16.898  0.00  0.00    +0.000 C 
ATOM      4  C   UNL     1       4.192   5.829  17.872  0.00  0.00    +0.000 C 
ATOM      5  C   UNL     1       5.305   4.832  18.227  0.00  0.00    +0.000 C 
ATOM      6  C   UNL     1       5.942   4.258  16.946  0.00  0.00    +0.000 C 
ENDROOT
BRANCH   1   7
ATOM      7  C   UNL     1       7.070   4.718  14.853  0.00  0.00    +0.000 C 
BRANCH   7   8
ATOM      8  C   UNL     1       6.146   3.785  14.053  0.00  0.00    +0.000 C 
BRANCH   8   9
ATOM      9  O   UNL     1       6.441   3.859  12.653  0.00  0.00    +0.000 OA
BRANCH   9  11
ATOM     10  C   UNL     1       5.925   1.834  11.461  0.00  0.00    +0.000 C 
ATOM     11  C   UNL     1       5.425   3.194  11.899  0.00  0.00    +0.000 C 
ENDBRANCH   9  11
ENDBRANCH   8   9
ENDBRANCH   7   8
ENDBRANCH   1   7
BRANCH   5  12
ATOM     12  C   UNL     1       4.711   3.735  19.122  0.00  0.00    +0.000 C 
BRANCH  12  13
ATOM     13  N   UNL     1       3.694   2.954  18.401  0.00  0.00    +0.000 NA
ATOM     14  H   UNL     1       3.945   1.974  18.240  0.00  0.00    +0.000 HD
BRANCH  13  15
ATOM     15  S   UNL     1       2.115   3.017  19.010  0.00  0.00    +0.000 S 
ATOM     16  O   UNL     1       1.391   3.908  18.129  0.00  0.00    +0.000 OA
ATOM     17  O   UNL     1       1.695   1.647  19.203  0.00  0.00    +0.000 OA
BRANCH  15  18
ATOM     18  C   UNL     1       2.332   3.805  20.622  0.00  0.00    +0.000 C 
ATOM     19  C   UNL     1       1.715   5.197  20.664  0.00  0.00    +0.000 C 
ATOM     20  C   UNL     1       1.754   2.908  21.712  0.00  0.00    +0.000 C 
ENDBRANCH  15  18
ENDBRANCH  13  15
ENDBRANCH  12  13
ENDBRANCH   5  12
TORSDOF 8
ENDMDL
MODEL 4
REMARK VINA RESULT:      -6.2      2.237      3.354
REMARK  Name = 
REMARK  11 active torsions:
REMARK  status: ('A' for Active; 'I' for Inactive)
REMARK    1  A    between atoms: C_1  and  C_2
REMARK    2  A    between atoms: C_2  and  O_3
REMARK    3  A    between atoms: O_3  and  C_4
REMARK    4  A    between atoms: C_4  and  C_5
REMARK    5  A    between atoms: C_5  and  N_6
REMARK    6  A    between atoms: C_10  and  C_11
REMARK    7  A    between atoms: C_11  and  N_12
REMARK    8  A    between atoms: N_12  and  S_13
REMARK    9  A    between atoms: S_13  and  C_16
REMARK   10  A    between atoms: C_16  and  C_17
REMARK   11  A    between atoms: C_16  and  C_18
REMARK                            x       y       z     vdW  Elec       q    Type
REMARK                         _______ _______ _______ _____ _____    ______ ____
ROOT
ATOM      1  N   UNL     1       5.380   6.270  18.476  0.00  0.00    +0.000 NA
ATOM      2  C   UNL     1       4.712   6.795  17.276  0.00  0.00    +0.000 C 
ATOM      3  C   UNL     1       3.415   7.516  17.633  0.00  0.00    +0.000 C 
ATOM      4  C   UNL     1       2.470   6.600  18.391  0.00  0.00    +0.000 C 
ATOM      5  C   UNL     1       3.168   5.988  19.614  0.00  0.00    +0.000 C 
ATOM      6  C   UNL     1       4.500   5.330  19.199  0.00  0.00    +0.000 C 
ENDROOT
BRANCH   1   7
ATOM      7  C   UNL     1       6.664   5.606  18.145  0.00  0.00    +0.000 C 
BRANCH   7   8
ATOM      8  C   UNL     1       7.201   5.958  16.748  0.00  0.00    +0.000 C 
BRANCH   8   9
ATOM      9  O   UNL     1       7.575   4.773  16.036  0.00  0.00    +0.000 OA
BRANCH   9  11
ATOM     10  C   UNL     1       5.590   4.286  14.766  0.00  0.00    +0.000 C 
ATOM     11  C   UNL     1       7.017   4.791  14.720  0.00  0.00    +0.000 C 
ENDBRANCH   9  11
ENDBRANCH   8   9
ENDBRANCH   7   8
ENDBRANCH   1   7
BRANCH   5  12
ATOM     12  C   UNL     1       2.209   4.989  20.275  0.00  0.00    +0.000 C 
BRANCH  12  13
ATOM     13  N   UNL     1       1.380   4.304  19.271  0.00  0.00    +0.000 NA
ATOM     14  H   UNL     1       1.561   4.589  18.303  0.00  0.00    +0.000 HD
BRANCH  13  15
ATOM     15  S   UNL     1       1.343   2.613  19.341  0.00  0.00    +0.000 S 
ATOM     16  O   UNL     1       1.869   2.264  20.644  0.00  0.00    +0.000 OA
ATOM     17  O   UNL     1       0.014   2.214  18.936  0.00  0.00    +0.000 OA
BRANCH  15  18
ATOM     18  C   UNL     1       2.525   2.127  18.063  0.00  0.00    +0.000 C 
ATOM     19  C   UNL     1       2.746   3.234  17.041  0.00  0.00    +0.000 C 
ATOM     20  C   UNL     1       3.837   1.702  18.714  0.00  0.00    +0.000 C 
ENDBRANCH  15  18
ENDBRANCH  13  15
ENDBRANCH  12  13
ENDBRANCH   5  12
TORSDOF 8
ENDMDL
MODEL 5
REMARK VINA RESULT:      -6.2      2.428      3.528
REMARK  Name = 
REMARK  11 active torsions:
REMARK  status: ('A' for Active; 'I' for Inactive)
REMARK    1  A    between atoms: C_1  and  C_2
REMARK    2  A    between atoms: C_2  and  O_3
REMARK    3  A    between atoms: O_3  and  C_4
REMARK    4  A    between atoms: C_4  and  C_5
REMARK    5  A    between atoms: C_5  and  N_6
REMARK    6  A    between atoms: C_10  and  C_11
REMARK    7  A    between atoms: C_11  and  N_12
REMARK    8  A    between atoms: N_12  and  S_13
REMARK    9  A    between atoms: S_13  and  C_16
REMARK   10  A    between atoms: C_16  and  C_17
REMARK   11  A    between atoms: C_16  and  C_18
REMARK                            x       y       z     vdW  Elec       q    Type
REMARK                         _______ _______ _______ _____ _____    ______ ____
ROOT
ATOM      1  N   UNL     1       5.064   6.250  18.321  0.00  0.00    +0.000 NA
ATOM      2  C   UNL     1       4.373   6.830  17.161  0.00  0.00    +0.000 C 
ATOM      3  C   UNL     1       3.214   7.724  17.593  0.00  0.00    +0.000 C 
ATOM      4  C   UNL     1       2.225   6.959  18.455  0.00  0.00    +0.000 C 
ATOM      5  C   UNL     1       2.936   6.290  19.639  0.00  0.00    +0.000 C 
ATOM      6  C   UNL     1       4.133   5.452  19.144  0.00  0.00    +0.000 C 
ENDROOT
BRANCH   1   7
ATOM      7  C   UNL     1       6.219   5.414  17.914  0.00  0.00    +0.000 C 
BRANCH   7   8
ATOM      8  C   UNL     1       7.333   6.201  17.205  0.00  0.00    +0.000 C 
BRANCH   8   9
ATOM      9  O   UNL     1       7.420   5.824  15.825  0.00  0.00    +0.000 OA
BRANCH   9  11
ATOM     10  C   UNL     1       6.205   4.378  14.334  0.00  0.00    +0.000 C 
ATOM     11  C   UNL     1       6.949   4.486  15.648  0.00  0.00    +0.000 C 
ENDBRANCH   9  11
ENDBRANCH   8   9
ENDBRANCH   7   8
ENDBRANCH   1   7
BRANCH   5  12
ATOM     12  C   UNL     1       1.914   5.443  20.408  0.00  0.00    +0.000 C 
BRANCH  12  13
ATOM     13  N   UNL     1       2.578   4.564  21.383  0.00  0.00    +0.000 NA
ATOM     14  H   UNL     1       2.386   4.794  22.363  0.00  0.00    +0.000 HD
BRANCH  13  15
ATOM     15  S   UNL     1       2.371   2.897  21.168  0.00  0.00    +0.000 S 
ATOM     16  O   UNL     1       3.656   2.302  21.470  0.00  0.00    +0.000 OA
ATOM     17  O   UNL     1       1.183   2.532  21.905  0.00  0.00    +0.000 OA
BRANCH  15  18
ATOM     18  C   UNL     1       2.041   2.754  19.397  0.00  0.00    +0.000 C 
ATOM     19  C   UNL     1       3.040   1.837  18.703  0.00  0.00    +0.000 C 
ATOM     20  C   UNL     1       0.608   2.279  19.181  0.00  0.00    +0.000 C 
ENDBRANCH  15  18
ENDBRANCH  13  15
ENDBRANCH  12  13
ENDBRANCH   5  12
TORSDOF 8
ENDMDL
MODEL 6
REMARK VINA RESULT:      -6.1      1.468      1.827
REMARK  Name = 
REMARK  11 active torsions:
REMARK  status: ('A' for Active; 'I' for Inactive)
REMARK    1  A    between atoms: C_1  and  C_2
REMARK    2  A    between atoms: C_2  and  O_3
REMARK    3  A    between atoms: O_3  and  C_4
REMARK    4  A    between atoms: C_4  and  C_5
REMARK    5  A    between atoms: C_5  and  N_6
REMARK    6  A    between atoms: C_10  and  C_11
REMARK    7  A    between atoms: C_11  and  N_12
REMARK    8  A    between atoms: N_12  and  S_13
REMARK    9  A    between atoms: S_13  and  C_16
REMARK   10  A    between atoms: C_16  and  C_17
REMARK   11  A    between atoms: C_16  and  C_18
REMARK                            x       y       z     vdW  Elec       q    Type
REMARK                         _______ _______ _______ _____ _____    ______ ____
ROOT
ATOM      1  N   UNL     1       6.593   5.632  16.053  0.00  0.00    +0.000 NA
ATOM      2  C   UNL     1       5.368   6.225  15.497  0.00  0.00    +0.000 C 
ATOM      3  C   UNL     1       4.638   7.071  16.538  0.00  0.00    +0.000 C 
ATOM      4  C   UNL     1       4.301   6.251  17.771  0.00  0.00    +0.000 C 
ATOM      5  C   UNL     1       5.557   5.568  18.331  0.00  0.00    +0.000 C 
ATOM      6  C   UNL     1       6.283   4.782  17.221  0.00  0.00    +0.000 C 
ENDROOT
BRANCH   1   7
ATOM      7  C   UNL     1       7.333   4.844  15.039  0.00  0.00    +0.000 C 
BRANCH   7   8
ATOM      8  C   UNL     1       6.632   4.783  13.671  0.00  0.00    +0.000 C 
BRANCH   8   9
ATOM      9  O   UNL     1       6.008   3.507  13.480  0.00  0.00    +0.000 OA
BRANCH   9  11
ATOM     10  C   UNL     1       4.505   3.226  11.622  0.00  0.00    +0.000 C 
ATOM     11  C   UNL     1       5.946   3.192  12.087  0.00  0.00    +0.000 C 
ENDBRANCH   9  11
ENDBRANCH   8   9
ENDBRANCH   7   8
ENDBRANCH   1   7
BRANCH   5  12
ATOM     12  C   UNL     1       5.142   4.668  19.502  0.00  0.00    +0.000 C 
BRANCH  12  13
ATOM     13  N   UNL     1       5.079   3.257  19.092  0.00  0.00    +0.000 NA
ATOM     14  H   UNL     1       5.590   2.612  19.704  0.00  0.00    +0.000 HD
BRANCH  13  15
ATOM     15  S   UNL     1       3.539   2.618  18.797  0.00  0.00    +0.000 S 
ATOM     16  O   UNL     1       3.168   3.085  17.479  0.00  0.00    +0.000 OA
ATOM     17  O   UNL     1       3.615   1.207  19.100  0.00  0.00    +0.000 OA
BRANCH  15  18
ATOM     18  C   UNL     1       2.514   3.438  20.039  0.00  0.00    +0.000 C 
ATOM     19  C   UNL     1       1.075   3.605  19.570  0.00  0.00    +0.000 C 
ATOM     20  C   UNL     1       2.585   2.666  21.353  0.00  0.00    +0.000 C 
ENDBRANCH  15  18
ENDBRANCH  13  15
ENDBRANCH  12  13
ENDBRANCH   5  12
TORSDOF 8
ENDMDL
MODEL 7
REMARK VINA RESULT:      -6.1      1.303      1.629
REMARK  Name = 
REMARK  11 active torsions:
REMARK  status: ('A' for Active; 'I' for Inactive)
REMARK    1  A    between atoms: C_1  and  C_2
REMARK    2  A    between atoms: C_2  and  O_3
REMARK    3  A    between atoms: O_3  and  C_4
REMARK    4  A    between atoms: C_4  and  C_5
REMARK    5  A    between atoms: C_5  and  N_6
REMARK    6  A    between atoms: C_10  and  C_11
REMARK    7  A    between atoms: C_11  and  N_12
REMARK    8  A    between atoms: N_12  and  S_13
REMARK    9  A    between atoms: S_13  and  C_16
REMARK   10  A    between atoms: C_16  and  C_17
REMARK   11  A    between atoms: C_16  and  C_18
REMARK                            x       y       z     vdW  Elec       q    Type
REMARK                         _______ _______ _______ _____ _____    ______ ____
ROOT
ATOM      1  N   UNL     1       6.468   4.272  15.691  0.00  0.00    +0.000 NA
ATOM      2  C   UNL     1       7.431   4.954  16.567  0.00  0.00    +0.000 C 
ATOM      3  C   UNL     1       7.105   4.721  18.040  0.00  0.00    +0.000 C 
ATOM      4  C   UNL     1       5.695   5.179  18.368  0.00  0.00    +0.000 C 
ATOM      5  C   UNL     1       4.676   4.529  17.421  0.00  0.00    +0.000 C 
ATOM      6  C   UNL     1       5.093   4.745  15.952  0.00  0.00    +0.000 C 
ENDROOT
BRANCH   1   7
ATOM      7  C   UNL     1       6.801   4.456  14.258  0.00  0.00    +0.000 C 
BRANCH   7   8
ATOM      8  C   UNL     1       5.761   3.852  13.299  0.00  0.00    +0.000 C 
BRANCH   8   9
ATOM      9  O   UNL     1       6.406   3.146  12.233  0.00  0.00    +0.000 OA
BRANCH   9  11
ATOM     10  C   UNL     1       4.186   3.159  11.305  0.00  0.00    +0.000 C 
ATOM     11  C   UNL     1       5.454   2.357  11.515  0.00  0.00    +0.000 C 
ENDBRANCH   9  11
ENDBRANCH   8   9
ENDBRANCH   7   8
ENDBRANCH   1   7
BRANCH   5  12
ATOM     12  C   UNL     1       3.289   5.111  17.722  0.00  0.00    +0.000 C 
BRANCH  12  13
ATOM     13  N   UNL     1       2.900   4.862  19.118  0.00  0.00    +0.000 NA
ATOM     14  H   UNL     1       2.782   5.708  19.685  0.00  0.00    +0.000 HD
BRANCH  13  15
ATOM     15  S   UNL     1       1.563   3.853  19.367  0.00  0.00    +0.000 S 
ATOM     16  O   UNL     1       0.654   4.607  20.204  0.00  0.00    +0.000 OA
ATOM     17  O   UNL     1       1.161   3.375  18.063  0.00  0.00    +0.000 OA
BRANCH  15  18
ATOM     18  C   UNL     1       2.260   2.481  20.314  0.00  0.00    +0.000 C 
ATOM     19  C   UNL     1       3.783   2.492  20.298  0.00  0.00    +0.000 C 
ATOM     20  C   UNL     1       1.719   2.515  21.739  0.00  0.00    +0.000 C 
ENDBRANCH  15  18
ENDBRANCH  13  15
ENDBRANCH  12  13
ENDBRANCH   5  12
TORSDOF 8
ENDMDL
MODEL 8
REMARK VINA RESULT:      -6.1      3.048      6.313
REMARK  Name = 
REMARK  11 active torsions:
REMARK  status: ('A' for Active; 'I' for Inactive)
REMARK    1  A    between atoms: C_1  and  C_2
REMARK    2  A    between atoms: C_2  and  O_3
REMARK    3  A    between atoms: O_3  and  C_4
REMARK    4  A    between atoms: C_4  and  C_5
REMARK    5  A    between atoms: C_5  and  N_6
REMARK    6  A    between atoms: C_10  and  C_11
REMARK    7  A    between atoms: C_11  and  N_12
REMARK    8  A    between atoms: N_12  and  S_13
REMARK    9  A    between atoms: S_13  and  C_16
REMARK   10  A    between atoms: C_16  and  C_17
REMARK   11  A    between atoms: C_16  and  C_18
REMARK                            x       y       z     vdW  Elec       q    Type
REMARK                         _______ _______ _______ _____ _____    ______ ____
ROOT
ATOM      1  N   UNL     1       2.423   5.599  19.523  0.00  0.00    +0.000 NA
ATOM      2  C   UNL     1       2.280   7.003  19.934  0.00  0.00    +0.000 C 
ATOM      3  C   UNL     1       2.112   7.922  18.727  0.00  0.00    +0.000 C 
ATOM      4  C   UNL     1       3.279   7.782  17.765  0.00  0.00    +0.000 C 
ATOM      5  C   UNL     1       3.488   6.312  17.372  0.00  0.00    +0.000 C 
ATOM      6  C   UNL     1       3.589   5.428  18.632  0.00  0.00    +0.000 C 
ENDROOT
BRANCH   1   7
ATOM      7  C   UNL     1       2.544   4.693  20.690  0.00  0.00    +0.000 C 
BRANCH   7   8
ATOM      8  C   UNL     1       1.481   3.582  20.724  0.00  0.00    +0.000 C 
BRANCH   8   9
ATOM      9  O   UNL     1       2.027   2.345  20.250  0.00  0.00    +0.000 OA
BRANCH   9  11
ATOM     10  C   UNL     1       2.977   1.835  18.099  0.00  0.00    +0.000 C 
ATOM     11  C   UNL     1       1.714   2.165  18.866  0.00  0.00    +0.000 C 
ENDBRANCH   9  11
ENDBRANCH   8   9
ENDBRANCH   7   8
ENDBRANCH   1   7
BRANCH   5  12
ATOM     12  C   UNL     1       4.742   6.215  16.494  0.00  0.00    +0.000 C 
BRANCH  12  13
ATOM     13  N   UNL     1       5.601   5.098  16.914  0.00  0.00    +0.000 NA
ATOM     14  H   UNL     1       5.455   4.228  16.391  0.00  0.00    +0.000 HD
BRANCH  13  15
ATOM     15  S   UNL     1       7.264   5.406  16.999  0.00  0.00    +0.000 S 
ATOM     16  O   UNL     1       7.886   4.128  17.270  0.00  0.00    +0.000 OA
ATOM     17  O   UNL     1       7.600   6.170  15.818  0.00  0.00    +0.000 OA
BRANCH  15  18
ATOM     18  C   UNL     1       7.407   6.468  18.454  0.00  0.00    +0.000 C 
ATOM     19  C   UNL     1       8.150   5.780  19.591  0.00  0.00    +0.000 C 
ATOM     20  C   UNL     1       8.079   7.781  18.066  0.00  0.00    +0.000 C 
ENDBRANCH  15  18
ENDBRANCH  13  15
ENDBRANCH  12  13
ENDBRANCH   5  12
TORSDOF 8
ENDMDL
MODEL 9
REMARK VINA RESULT:      -6.1      1.286      1.573
REMARK  Name = 
REMARK  11 active torsions:
REMARK  status: ('A' for Active; 'I' for Inactive)
REMARK    1  A    between atoms: C_1  and  C_2
REMARK    2  A    between atoms: C_2  and  O_3
REMARK    3  A    between atoms: O_3  and  C_4
REMARK    4  A    between atoms: C_4  and  C_5
REMARK    5  A    between atoms: C_5  and  N_6
REMARK    6  A    between atoms: C_10  and  C_11
REMARK    7  A    between atoms: C_11  and  N_12
REMARK    8  A    between atoms: N_12  and  S_13
REMARK    9  A    between atoms: S_13  and  C_16
REMARK   10  A    between atoms: C_16  and  C_17
REMARK   11  A    between atoms: C_16  and  C_18
REMARK                            x       y       z     vdW  Elec       q    Type
REMARK                         _______ _______ _______ _____ _____    ______ ____
ROOT
ATOM      1  N   UNL     1       6.147   4.984  16.401  0.00  0.00    +0.000 NA
ATOM      2  C   UNL     1       6.534   6.187  17.151  0.00  0.00    +0.000 C 
ATOM      3  C   UNL     1       6.918   5.846  18.589  0.00  0.00    +0.000 C 
ATOM      4  C   UNL     1       5.783   5.134  19.304  0.00  0.00    +0.000 C 
ATOM      5  C   UNL     1       5.317   3.909  18.504  0.00  0.00    +0.000 C 
ATOM      6  C   UNL     1       5.005   4.306  17.047  0.00  0.00    +0.000 C 
ENDROOT
BRANCH   1   7
ATOM      7  C   UNL     1       5.813   5.299  14.991  0.00  0.00    +0.000 C 
BRANCH   7   8
ATOM      8  C   UNL     1       6.730   4.607  13.969  0.00  0.00    +0.000 C 
BRANCH   8   9
ATOM      9  O   UNL     1       6.166   3.359  13.547  0.00  0.00    +0.000 OA
BRANCH   9  11
ATOM     10  C   UNL     1       4.579   3.358  11.738  0.00  0.00    +0.000 C 
ATOM     11  C   UNL     1       6.043   3.328  12.123  0.00  0.00    +0.000 C 
ENDBRANCH   9  11
ENDBRANCH   8   9
ENDBRANCH   7   8
ENDBRANCH   1   7
BRANCH   5  12
ATOM     12  C   UNL     1       4.102   3.296  19.212  0.00  0.00    +0.000 C 
BRANCH  12  13
ATOM     13  N   UNL     1       3.496   4.252  20.151  0.00  0.00    +0.000 NA
ATOM     14  H   UNL     1       4.101   5.038  20.408  0.00  0.00    +0.000 HD
BRANCH  13  15
ATOM     15  S   UNL     1       1.968   4.856  19.742  0.00  0.00    +0.000 S 
ATOM     16  O   UNL     1       1.727   5.957  20.649  0.00  0.00    +0.000 OA
ATOM     17  O   UNL     1       1.974   5.051  18.309  0.00  0.00    +0.000 OA
BRANCH  15  18
ATOM     18  C   UNL     1       0.866   3.483  20.150  0.00  0.00    +0.000 C 
ATOM     19  C   UNL     1       0.718   2.507  18.990  0.00  0.00    +0.000 C 
ATOM     20  C   UNL     1       1.367   2.780  21.407  0.00  0.00    +0.000 C 
ENDBRANCH  15  18
ENDBRANCH  13  15
ENDBRANCH  12  13
ENDBRANCH   5  12
TORSDOF 8
ENDMDL
