MODEL 1
REMARK VINA RESULT:      -8.6      0.000      0.000
REMARK  Name = 
REMARK  6 active torsions:
REMARK  status: ('A' for Active; 'I' for Inactive)
REMARK    1  A    between atoms: C_1  and  N_2
REMARK    2  A    between atoms: C_5  and  C_6
REMARK    3  A    between atoms: C_9  and  C_10
REMARK    4  A    between atoms: C_14  and  N_15
REMARK    5  A    between atoms: N_15  and  C_16
REMARK    6  A    between atoms: C_16  and  C_17
REMARK                            x       y       z     vdW  Elec       q    Type
REMARK                         _______ _______ _______ _____ _____    ______ ____
ROOT
ATOM      1  C   UNL     1       2.148   6.642  19.891  0.00  0.00    +0.000 A 
ATOM      2  C   UNL     1       3.256   6.214  19.185  0.00  0.00    +0.000 A 
ATOM      3  C   UNL     1       3.165   4.801  19.007  0.00  0.00    +0.000 A 
ATOM      4  C   UNL     1       3.952   3.793  18.399  0.00  0.00    +0.000 A 
ATOM      5  C   UNL     1       3.448   2.480  18.515  0.00  0.00    +0.000 A 
ATOM      6  C   UNL     1       2.258   2.237  19.188  0.00  0.00    +0.000 A 
ATOM      7  N   UNL     1       1.488   3.173  19.773  0.00  0.00    +0.000 NA
ATOM      8  C   UNL     1       1.991   4.413  19.646  0.00  0.00    +0.000 A 
ATOM      9  N   UNL     1       1.389   5.528  20.157  0.00  0.00    +0.000 N 
ATOM     10  H   UNL     1       0.517   5.503  20.663  0.00  0.00    +0.000 HD
ENDROOT
BRANCH   1  15
ATOM     11  C   UNL     1      -0.682  11.486  20.983  0.00  0.00    +0.000 C 
ATOM     12  N   UNL     1      -0.209  10.161  20.581  0.00  0.00    +0.000 NA
ATOM     13  C   UNL     1       0.906  10.282  19.631  0.00  0.00    +0.000 C 
ATOM     14  C   UNL     1       1.371   8.909  19.153  0.00  0.00    +0.000 C 
ATOM     15  C   UNL     1       1.755   8.018  20.338  0.00  0.00    +0.000 C 
ATOM     16  C   UNL     1       0.619   7.971  21.367  0.00  0.00    +0.000 C 
ATOM     17  C   UNL     1       0.181   9.379  21.762  0.00  0.00    +0.000 C 
ENDBRANCH   1  15
BRANCH   4  18
ATOM     18  C   UNL     1       5.221   4.111  17.713  0.00  0.00    +0.000 A 
ATOM     19  C   UNL     1       6.274   4.737  18.376  0.00  0.00    +0.000 A 
ATOM     20  C   UNL     1       7.447   5.008  17.684  0.00  0.00    +0.000 A 
ATOM     21  C   UNL     1       7.533   4.670  16.339  0.00  0.00    +0.000 A 
ATOM     22  C   UNL     1       6.454   4.053  15.722  0.00  0.00    +0.000 A 
ATOM     23  N   UNL     1       5.322   3.769  16.399  0.00  0.00    +0.000 NA
BRANCH  22  24
ATOM     24  N   UNL     1       6.431   3.761  14.365  0.00  0.00    +0.000 N 
ATOM     25  H   UNL     1       7.180   4.288  13.925  0.00  0.00    +0.000 HD
BRANCH  24  26
ATOM     26  C   UNL     1       5.162   3.770  13.663  0.00  0.00    +0.000 C 
BRANCH  26  27
ATOM     27  C   UNL     1       5.397   3.599  12.189  0.00  0.00    +0.000 C 
ATOM     28  C   UNL     1       5.378   2.233  11.543  0.00  0.00    +0.000 C 
ATOM     29  C   UNL     1       4.259   3.198  11.276  0.00  0.00    +0.000 C 
ENDBRANCH  26  27
ENDBRANCH  24  26
ENDBRANCH  22  24
ENDBRANCH   4  18
TORSDOF 5
ENDMDL
MODEL 2
REMARK VINA RESULT:      -8.5      1.045      1.117
REMARK  Name = 
REMARK  6 active torsions:
REMARK  status: ('A' for Active; 'I' for Inactive)
REMARK    1  A    between atoms: C_1  and  N_2
REMARK    2  A    between atoms: C_5  and  C_6
REMARK    3  A    between atoms: C_9  and  C_10
REMARK    4  A    between atoms: C_14  and  N_15
REMARK    5  A    between atoms: N_15  and  C_16
REMARK    6  A    between atoms: C_16  and  C_17
REMARK                            x       y       z     vdW  Elec       q    Type
REMARK                         _______ _______ _______ _____ _____    ______ ____
ROOT
ATOM      1  C   UNL     1       2.061   7.242  20.131  0.00  0.00    +0.000 A 
ATOM      2  C   UNL     1       3.121   6.714  19.419  0.00  0.00    +0.000 A 
ATOM      3  C   UNL     1       3.222   5.322  19.716  0.00  0.00    +0.000 A 
ATOM      4  C   UNL     1       4.066   4.252  19.334  0.00  0.00    +0.000 A 
ATOM      5  C   UNL     1       3.784   3.011  19.944  0.00  0.00    +0.000 A 
ATOM      6  C   UNL     1       2.740   2.891  20.852  0.00  0.00    +0.000 A 
ATOM      7  N   UNL     1       1.919   3.888  21.234  0.00  0.00    +0.000 NA
ATOM      8  C   UNL     1       2.211   5.057  20.636  0.00  0.00    +0.000 A 
ATOM      9  N   UNL     1       1.518   6.213  20.863  0.00  0.00    +0.000 N 
ATOM     10  H   UNL     1       0.732   6.273  21.491  0.00  0.00    +0.000 HD
ENDROOT
BRANCH   1  15
ATOM     11  C   UNL     1      -1.205  11.914  19.718  0.00  0.00    +0.000 C 
ATOM     12  N   UNL     1      -0.599  10.582  19.707  0.00  0.00    +0.000 NA
ATOM     13  C   UNL     1       0.596  10.571  18.853  0.00  0.00    +0.000 C 
ATOM     14  C   UNL     1       1.205   9.172  18.779  0.00  0.00    +0.000 C 
ATOM     15  C   UNL     1       1.527   8.642  20.180  0.00  0.00    +0.000 C 
ATOM     16  C   UNL     1       0.297   8.742  21.089  0.00  0.00    +0.000 C 
ATOM     17  C   UNL     1      -0.279  10.157  21.076  0.00  0.00    +0.000 C 
ENDBRANCH   1  15
BRANCH   4  18
ATOM     18  C   UNL     1       5.174   4.446  18.378  0.00  0.00    +0.000 A 
ATOM     19  C   UNL     1       6.469   4.732  18.805  0.00  0.00    +0.000 A 
ATOM     20  C   UNL     1       7.474   4.899  17.862  0.00  0.00    +0.000 A 
ATOM     21  C   UNL     1       7.159   4.801  16.513  0.00  0.00    +0.000 A 
ATOM     22  C   UNL     1       5.853   4.520  16.136  0.00  0.00    +0.000 A 
ATOM     23  N   UNL     1       4.880   4.334  17.053  0.00  0.00    +0.000 NA
BRANCH  22  24
ATOM     24  N   UNL     1       5.443   4.488  14.810  0.00  0.00    +0.000 N 
ATOM     25  H   UNL     1       4.564   3.980  14.774  0.00  0.00    +0.000 HD
BRANCH  24  26
ATOM     26  C   UNL     1       6.408   4.148  13.782  0.00  0.00    +0.000 C 
BRANCH  26  27
ATOM     27  C   UNL     1       5.866   3.036  12.927  0.00  0.00    +0.000 C 
ATOM     28  C   UNL     1       4.970   3.320  11.744  0.00  0.00    +0.000 C 
ATOM     29  C   UNL     1       6.375   2.841  11.516  0.00  0.00    +0.000 C 
ENDBRANCH  26  27
ENDBRANCH  24  26
ENDBRANCH  22  24
ENDBRANCH   4  18
TORSDOF 5
ENDMDL
MODEL 3
REMARK VINA RESULT:      -8.5      1.213      1.649
REMARK  Name = 
REMARK  6 active torsions:
REMARK  status: ('A' for Active; 'I' for Inactive)
REMARK    1  A    between atoms: C_1  and  N_2
REMARK    2  A    between atoms: C_5  and  C_6
REMARK    3  A    between atoms: C_9  and  C_10
REMARK    4  A    between atoms: C_14  and  N_15
REMARK    5  A    between atoms: N_15  and  C_16
REMARK    6  A    between atoms: C_16  and  C_17
REMARK                            x       y       z     vdW  Elec       q    Type
REMARK                         _______ _______ _______ _____ _____    ______ ____
ROOT
ATOM      1  C   UNL     1       1.705   6.905  20.394  0.00  0.00    +0.000 A 
ATOM      2  C   UNL     1       2.894   6.710  19.718  0.00  0.00    +0.000 A 
ATOM      3  C   UNL     1       3.222   5.322  19.762  0.00  0.00    +0.000 A 
ATOM      4  C   UNL     1       4.272   4.502  19.284  0.00  0.00    +0.000 A 
ATOM      5  C   UNL     1       4.174   3.134  19.620  0.00  0.00    +0.000 A 
ATOM      6  C   UNL     1       3.101   2.667  20.368  0.00  0.00    +0.000 A 
ATOM      7  N   UNL     1       2.087   3.420  20.834  0.00  0.00    +0.000 NA
ATOM      8  C   UNL     1       2.208   4.716  20.499  0.00  0.00    +0.000 A 
ATOM      9  N   UNL     1       1.302   5.675  20.857  0.00  0.00    +0.000 N 
ATOM     10  H   UNL     1       0.472   5.479  21.394  0.00  0.00    +0.000 HD
ENDROOT
BRANCH   1  15
ATOM     11  C   UNL     1       0.120  12.297  21.429  0.00  0.00    +0.000 C 
ATOM     12  N   UNL     1       0.797  11.024  21.183  0.00  0.00    +0.000 NA
ATOM     13  C   UNL     1       0.465  10.055  22.237  0.00  0.00    +0.000 C 
ATOM     14  C   UNL     1       1.213   8.740  22.029  0.00  0.00    +0.000 C 
ATOM     15  C   UNL     1       0.924   8.161  20.641  0.00  0.00    +0.000 C 
ATOM     16  C   UNL     1       1.188   9.208  19.554  0.00  0.00    +0.000 C 
ATOM     17  C   UNL     1       0.442  10.507  19.855  0.00  0.00    +0.000 C 
ENDBRANCH   1  15
BRANCH   4  18
ATOM     18  C   UNL     1       5.398   5.061  18.509  0.00  0.00    +0.000 A 
ATOM     19  C   UNL     1       6.530   5.581  19.133  0.00  0.00    +0.000 A 
ATOM     20  C   UNL     1       7.561   6.090  18.354  0.00  0.00    +0.000 A 
ATOM     21  C   UNL     1       7.428   6.090  16.972  0.00  0.00    +0.000 A 
ATOM     22  C   UNL     1       6.279   5.566  16.397  0.00  0.00    +0.000 A 
ATOM     23  N   UNL     1       5.285   5.051  17.152  0.00  0.00    +0.000 NA
BRANCH  22  24
ATOM     24  N   UNL     1       6.035   5.606  15.031  0.00  0.00    +0.000 N 
ATOM     25  H   UNL     1       5.051   5.397  14.889  0.00  0.00    +0.000 HD
BRANCH  24  26
ATOM     26  C   UNL     1       6.955   4.937  14.131  0.00  0.00    +0.000 C 
BRANCH  26  27
ATOM     27  C   UNL     1       6.311   3.695  13.581  0.00  0.00    +0.000 C 
ATOM     28  C   UNL     1       5.095   3.770  12.688  0.00  0.00    +0.000 C 
ATOM     29  C   UNL     1       6.421   3.368  12.108  0.00  0.00    +0.000 C 
ENDBRANCH  26  27
ENDBRANCH  24  26
ENDBRANCH  22  24
ENDBRANCH   4  18
TORSDOF 5
ENDMDL
MODEL 4
REMARK VINA RESULT:      -8.5      2.125      3.877
REMARK  Name = 
REMARK  6 active torsions:
REMARK  status: ('A' for Active; 'I' for Inactive)
REMARK    1  A    between atoms: C_1  and  N_2
REMARK    2  A    between atoms: C_5  and  C_6
REMARK    3  A    between atoms: C_9  and  C_10
REMARK    4  A    between atoms: C_14  and  N_15
REMARK    5  A    between atoms: N_15  and  C_16
REMARK    6  A    between atoms: C_16  and  C_17
REMARK                            x       y       z     vdW  Elec       q    Type
REMARK                         _______ _______ _______ _____ _____    ______ ____
ROOT
ATOM      1  C   UNL     1       2.090   7.282  20.016  0.00  0.00    +0.000 A 
ATOM      2  C   UNL     1       2.970   6.817  19.057  0.00  0.00    +0.000 A 
ATOM      3  C   UNL     1       3.204   5.429  19.288  0.00  0.00    +0.000 A 
ATOM      4  C   UNL     1       3.980   4.408  18.688  0.00  0.00    +0.000 A 
ATOM      5  C   UNL     1       3.913   3.147  19.318  0.00  0.00    +0.000 A 
ATOM      6  C   UNL     1       3.125   2.963  20.447  0.00  0.00    +0.000 A 
ATOM      7  N   UNL     1       2.375   3.912  21.039  0.00  0.00    +0.000 NA
ATOM      8  C   UNL     1       2.459   5.101  20.417  0.00  0.00    +0.000 A 
ATOM      9  N   UNL     1       1.788   6.217  20.831  0.00  0.00    +0.000 N 
ATOM     10  H   UNL     1       1.175   6.229  21.631  0.00  0.00    +0.000 HD
ENDROOT
BRANCH   1  15
ATOM     11  C   UNL     1      -1.329  11.857  20.222  0.00  0.00    +0.000 C 
ATOM     12  N   UNL     1      -0.686  10.554  20.052  0.00  0.00    +0.000 NA
ATOM     13  C   UNL     1       0.459  10.663  19.138  0.00  0.00    +0.000 C 
ATOM     14  C   UNL     1       1.103   9.299  18.901  0.00  0.00    +0.000 C 
ATOM     15  C   UNL     1       1.518   8.652  20.226  0.00  0.00    +0.000 C 
ATOM     16  C   UNL     1       0.340   8.625  21.205  0.00  0.00    +0.000 C 
ATOM     17  C   UNL     1      -0.278  10.014  21.356  0.00  0.00    +0.000 C 
ENDBRANCH   1  15
BRANCH   4  18
ATOM     18  C   UNL     1       4.815   4.670  17.498  0.00  0.00    +0.000 A 
ATOM     19  C   UNL     1       4.649   3.953  16.315  0.00  0.00    +0.000 A 
ATOM     20  C   UNL     1       5.459   4.245  15.225  0.00  0.00    +0.000 A 
ATOM     21  C   UNL     1       6.432   5.228  15.349  0.00  0.00    +0.000 A 
ATOM     22  C   UNL     1       6.562   5.911  16.551  0.00  0.00    +0.000 A 
ATOM     23  N   UNL     1       5.761   5.644  17.603  0.00  0.00    +0.000 NA
BRANCH  22  24
ATOM     24  N   UNL     1       7.562   6.846  16.780  0.00  0.00    +0.000 N 
ATOM     25  H   UNL     1       8.440   6.341  16.866  0.00  0.00    +0.000 HD
BRANCH  24  26
ATOM     26  C   UNL     1       7.340   7.890  17.761  0.00  0.00    +0.000 C 
BRANCH  26  27
ATOM     27  C   UNL     1       8.464   8.886  17.706  0.00  0.00    +0.000 C 
ATOM     28  C   UNL     1       8.222  10.359  17.941  0.00  0.00    +0.000 C 
ATOM     29  C   UNL     1       8.958   9.551  18.971  0.00  0.00    +0.000 C 
ENDBRANCH  26  27
ENDBRANCH  24  26
ENDBRANCH  22  24
ENDBRANCH   4  18
TORSDOF 5
ENDMDL
MODEL 5
REMARK VINA RESULT:      -8.3      2.164      4.014
REMARK  Name = 
REMARK  6 active torsions:
REMARK  status: ('A' for Active; 'I' for Inactive)
REMARK    1  A    between atoms: C_1  and  N_2
REMARK    2  A    between atoms: C_5  and  C_6
REMARK    3  A    between atoms: C_9  and  C_10
REMARK    4  A    between atoms: C_14  and  N_15
REMARK    5  A    between atoms: N_15  and  C_16
REMARK    6  A    between atoms: C_16  and  C_17
REMARK                            x       y       z     vdW  Elec       q    Type
REMARK                         _______ _______ _______ _____ _____    ______ ____
ROOT
ATOM      1  C   UNL     1       1.888   6.855  20.068  0.00  0.00    +0.000 A 
ATOM      2  C   UNL     1       2.811   6.496  19.103  0.00  0.00    +0.000 A 
ATOM      3  C   UNL     1       3.239   5.159  19.356  0.00  0.00    +0.000 A 
ATOM      4  C   UNL     1       4.141   4.243  18.763  0.00  0.00    +0.000 A 
ATOM      5  C   UNL     1       4.259   2.999  19.418  0.00  0.00    +0.000 A 
ATOM      6  C   UNL     1       3.521   2.732  20.564  0.00  0.00    +0.000 A 
ATOM      7  N   UNL     1       2.655   3.579  21.150  0.00  0.00    +0.000 NA
ATOM      8  C   UNL     1       2.564   4.755  20.504  0.00  0.00    +0.000 A 
ATOM      9  N   UNL     1       1.750   5.776  20.909  0.00  0.00    +0.000 N 
ATOM     10  H   UNL     1       1.153   5.720  21.719  0.00  0.00    +0.000 HD
ENDROOT
BRANCH   1  15
ATOM     11  C   UNL     1       0.416  12.298  20.996  0.00  0.00    +0.000 C 
ATOM     12  N   UNL     1       1.065  11.002  20.796  0.00  0.00    +0.000 NA
ATOM     13  C   UNL     1       0.628  10.047  21.823  0.00  0.00    +0.000 C 
ATOM     14  C   UNL     1       1.344   8.708  21.667  0.00  0.00    +0.000 C 
ATOM     15  C   UNL     1       1.135   8.136  20.261  0.00  0.00    +0.000 C 
ATOM     16  C   UNL     1       1.509   9.173  19.197  0.00  0.00    +0.000 C 
ATOM     17  C   UNL     1       0.787  10.496  19.446  0.00  0.00    +0.000 C 
ENDBRANCH   1  15
BRANCH   4  18
ATOM     18  C   UNL     1       4.914   4.593  17.554  0.00  0.00    +0.000 A 
ATOM     19  C   UNL     1       4.701   3.949  16.337  0.00  0.00    +0.000 A 
ATOM     20  C   UNL     1       5.453   4.323  15.231  0.00  0.00    +0.000 A 
ATOM     21  C   UNL     1       6.418   5.312  15.371  0.00  0.00    +0.000 A 
ATOM     22  C   UNL     1       6.596   5.920  16.605  0.00  0.00    +0.000 A 
ATOM     23  N   UNL     1       5.850   5.574  17.676  0.00  0.00    +0.000 NA
BRANCH  22  24
ATOM     24  N   UNL     1       7.593   6.856  16.846  0.00  0.00    +0.000 N 
ATOM     25  H   UNL     1       8.448   6.347  17.050  0.00  0.00    +0.000 HD
BRANCH  24  26
ATOM     26  C   UNL     1       7.310   7.980  17.716  0.00  0.00    +0.000 C 
BRANCH  26  27
ATOM     27  C   UNL     1       8.483   8.919  17.730  0.00  0.00    +0.000 C 
ATOM     28  C   UNL     1       8.301  10.401  17.961  0.00  0.00    +0.000 C 
ATOM     29  C   UNL     1       8.938   9.554  19.025  0.00  0.00    +0.000 C 
ENDBRANCH  26  27
ENDBRANCH  24  26
ENDBRANCH  22  24
ENDBRANCH   4  18
TORSDOF 5
ENDMDL
MODEL 6
REMARK VINA RESULT:      -8.0      2.124      3.687
REMARK  Name = 
REMARK  6 active torsions:
REMARK  status: ('A' for Active; 'I' for Inactive)
REMARK    1  A    between atoms: C_1  and  N_2
REMARK    2  A    between atoms: C_5  and  C_6
REMARK    3  A    between atoms: C_9  and  C_10
REMARK    4  A    between atoms: C_14  and  N_15
REMARK    5  A    between atoms: N_15  and  C_16
REMARK    6  A    between atoms: C_16  and  C_17
REMARK                            x       y       z     vdW  Elec       q    Type
REMARK                         _______ _______ _______ _____ _____    ______ ____
ROOT
ATOM      1  C   UNL     1       1.675   6.793  20.266  0.00  0.00    +0.000 A 
ATOM      2  C   UNL     1       2.684   6.275  19.475  0.00  0.00    +0.000 A 
ATOM      3  C   UNL     1       2.905   4.917  19.852  0.00  0.00    +0.000 A 
ATOM      4  C   UNL     1       3.770   3.871  19.450  0.00  0.00    +0.000 A 
ATOM      5  C   UNL     1       3.638   2.664  20.170  0.00  0.00    +0.000 A 
ATOM      6  C   UNL     1       2.708   2.554  21.196  0.00  0.00    +0.000 A 
ATOM      7  N   UNL     1       1.871   3.527  21.600  0.00  0.00    +0.000 NA
ATOM      8  C   UNL     1       2.020   4.663  20.896  0.00  0.00    +0.000 A 
ATOM      9  N   UNL     1       1.283   5.792  21.121  0.00  0.00    +0.000 N 
ATOM     10  H   UNL     1       0.567   5.854  21.829  0.00  0.00    +0.000 HD
ENDROOT
BRANCH   1  15
ATOM     11  C   UNL     1       0.775  12.431  20.526  0.00  0.00    +0.000 C 
ATOM     12  N   UNL     1       1.285  11.060  20.501  0.00  0.00    +0.000 NA
ATOM     13  C   UNL     1       0.703  10.277  21.599  0.00  0.00    +0.000 C 
ATOM     14  C   UNL     1       1.273   8.861  21.626  0.00  0.00    +0.000 C 
ATOM     15  C   UNL     1       1.060   8.161  20.280  0.00  0.00    +0.000 C 
ATOM     16  C   UNL     1       1.590   9.027  19.132  0.00  0.00    +0.000 C 
ATOM     17  C   UNL     1       1.010  10.438  19.199  0.00  0.00    +0.000 C 
ENDBRANCH   1  15
BRANCH   4  18
ATOM     18  C   UNL     1       4.754   4.056  18.364  0.00  0.00    +0.000 A 
ATOM     19  C   UNL     1       4.478   3.672  17.053  0.00  0.00    +0.000 A 
ATOM     20  C   UNL     1       5.438   3.875  16.070  0.00  0.00    +0.000 A 
ATOM     21  C   UNL     1       6.661   4.432  16.423  0.00  0.00    +0.000 A 
ATOM     22  C   UNL     1       6.890   4.792  17.743  0.00  0.00    +0.000 A 
ATOM     23  N   UNL     1       5.949   4.617  18.695  0.00  0.00    +0.000 NA
BRANCH  22  24
ATOM     24  N   UNL     1       8.112   5.277  18.189  0.00  0.00    +0.000 N 
ATOM     25  H   UNL     1       8.556   4.538  18.727  0.00  0.00    +0.000 HD
BRANCH  24  26
ATOM     26  C   UNL     1       8.175   6.602  18.773  0.00  0.00    +0.000 C 
BRANCH  26  27
ATOM     27  C   UNL     1       8.115   7.638  17.685  0.00  0.00    +0.000 C 
ATOM     28  C   UNL     1       6.932   8.569  17.551  0.00  0.00    +0.000 C 
ATOM     29  C   UNL     1       8.254   9.106  18.021  0.00  0.00    +0.000 C 
ENDBRANCH  26  27
ENDBRANCH  24  26
ENDBRANCH  22  24
ENDBRANCH   4  18
TORSDOF 5
ENDMDL
MODEL 7
REMARK VINA RESULT:      -7.9      1.288      1.525
REMARK  Name = 
REMARK  6 active torsions:
REMARK  status: ('A' for Active; 'I' for Inactive)
REMARK    1  A    between atoms: C_1  and  N_2
REMARK    2  A    between atoms: C_5  and  C_6
REMARK    3  A    between atoms: C_9  and  C_10
REMARK    4  A    between atoms: C_14  and  N_15
REMARK    5  A    between atoms: N_15  and  C_16
REMARK    6  A    between atoms: C_16  and  C_17
REMARK                            x       y       z     vdW  Elec       q    Type
REMARK                         _______ _______ _______ _____ _____    ______ ____
ROOT
ATOM      1  C   UNL     1       1.725   7.548  20.461  0.00  0.00    +0.000 A 
ATOM      2  C   UNL     1       2.534   7.211  19.392  0.00  0.00    +0.000 A 
ATOM      3  C   UNL     1       2.696   5.794  19.373  0.00  0.00    +0.000 A 
ATOM      4  C   UNL     1       3.385   4.852  18.570  0.00  0.00    +0.000 A 
ATOM      5  C   UNL     1       3.271   3.507  18.981  0.00  0.00    +0.000 A 
ATOM      6  C   UNL     1       2.524   3.173  20.103  0.00  0.00    +0.000 A 
ATOM      7  N   UNL     1       1.857   4.042  20.884  0.00  0.00    +0.000 NA
ATOM      8  C   UNL     1       1.983   5.315  20.468  0.00  0.00    +0.000 A 
ATOM      9  N   UNL     1       1.397   6.376  21.100  0.00  0.00    +0.000 N 
ATOM     10  H   UNL     1       0.821   6.281  21.922  0.00  0.00    +0.000 HD
ENDROOT
BRANCH   1  15
ATOM     11  C   UNL     1      -1.405  12.192  21.601  0.00  0.00    +0.000 C 
ATOM     12  N   UNL     1      -0.847  10.906  21.181  0.00  0.00    +0.000 NA
ATOM     13  C   UNL     1       0.271  11.112  20.251  0.00  0.00    +0.000 C 
ATOM     14  C   UNL     1       0.825   9.778  19.754  0.00  0.00    +0.000 C 
ATOM     15  C   UNL     1       1.244   8.889  20.928  0.00  0.00    +0.000 C 
ATOM     16  C   UNL     1       0.099   8.754  21.938  0.00  0.00    +0.000 C 
ATOM     17  C   UNL     1      -0.429  10.126  22.353  0.00  0.00    +0.000 C 
ENDBRANCH   1  15
BRANCH   4  18
ATOM     18  C   UNL     1       4.181   5.272  17.399  0.00  0.00    +0.000 A 
ATOM     19  C   UNL     1       4.304   6.612  17.039  0.00  0.00    +0.000 A 
ATOM     20  C   UNL     1       5.070   6.950  15.931  0.00  0.00    +0.000 A 
ATOM     21  C   UNL     1       5.675   5.940  15.193  0.00  0.00    +0.000 A 
ATOM     22  C   UNL     1       5.518   4.619  15.588  0.00  0.00    +0.000 A 
ATOM     23  N   UNL     1       4.792   4.292  16.678  0.00  0.00    +0.000 NA
BRANCH  22  24
ATOM     24  N   UNL     1       6.020   3.551  14.858  0.00  0.00    +0.000 N 
ATOM     25  H   UNL     1       6.812   3.174  15.371  0.00  0.00    +0.000 HD
BRANCH  24  26
ATOM     26  C   UNL     1       6.213   3.703  13.429  0.00  0.00    +0.000 C 
BRANCH  26  27
ATOM     27  C   UNL     1       5.138   2.957  12.689  0.00  0.00    +0.000 C 
ATOM     28  C   UNL     1       4.623   3.441  11.354  0.00  0.00    +0.000 C 
ATOM     29  C   UNL     1       5.467   2.201  11.422  0.00  0.00    +0.000 C 
ENDBRANCH  26  27
ENDBRANCH  24  26
ENDBRANCH  22  24
ENDBRANCH   4  18
TORSDOF 5
ENDMDL
MODEL 8
REMARK VINA RESULT:      -7.8      1.330      1.781
REMARK  Name = 
REMARK  6 active torsions:
REMARK  status: ('A' for Active; 'I' for Inactive)
REMARK    1  A    between atoms: C_1  and  N_2
REMARK    2  A    between atoms: C_5  and  C_6
REMARK    3  A    between atoms: C_9  and  C_10
REMARK    4  A    between atoms: C_14  and  N_15
REMARK    5  A    between atoms: N_15  and  C_16
REMARK    6  A    between atoms: C_16  and  C_17
REMARK                            x       y       z     vdW  Elec       q    Type
REMARK                         _______ _______ _______ _____ _____    ______ ____
ROOT
ATOM      1  C   UNL     1       1.508   7.188  20.375  0.00  0.00    +0.000 A 
ATOM      2  C   UNL     1       2.365   6.918  19.325  0.00  0.00    +0.000 A 
ATOM      3  C   UNL     1       2.835   5.577  19.453  0.00  0.00    +0.000 A 
ATOM      4  C   UNL     1       3.708   4.725  18.735  0.00  0.00    +0.000 A 
ATOM      5  C   UNL     1       3.895   3.442  19.292  0.00  0.00    +0.000 A 
ATOM      6  C   UNL     1       3.247   3.080  20.466  0.00  0.00    +0.000 A 
ATOM      7  N   UNL     1       2.410   3.866  21.169  0.00  0.00    +0.000 NA
ATOM      8  C   UNL     1       2.251   5.080  20.615  0.00  0.00    +0.000 A 
ATOM      9  N   UNL     1       1.450   6.052  21.146  0.00  0.00    +0.000 N 
ATOM     10  H   UNL     1       0.914   5.927  21.990  0.00  0.00    +0.000 HD
ENDROOT
BRANCH   1  15
ATOM     11  C   UNL     1       0.005  12.537  21.715  0.00  0.00    +0.000 C 
ATOM     12  N   UNL     1       0.662  11.272  21.385  0.00  0.00    +0.000 NA
ATOM     13  C   UNL     1       0.365  10.259  22.406  0.00  0.00    +0.000 C 
ATOM     14  C   UNL     1       1.094   8.950  22.110  0.00  0.00    +0.000 C 
ATOM     15  C   UNL     1       0.747   8.436  20.709  0.00  0.00    +0.000 C 
ATOM     16  C   UNL     1       0.975   9.530  19.661  0.00  0.00    +0.000 C 
ATOM     17  C   UNL     1       0.251  10.818  20.050  0.00  0.00    +0.000 C 
ENDBRANCH   1  15
BRANCH   4  18
ATOM     18  C   UNL     1       4.385   5.174  17.502  0.00  0.00    +0.000 A 
ATOM     19  C   UNL     1       4.413   6.516  17.129  0.00  0.00    +0.000 A 
ATOM     20  C   UNL     1       5.070   6.882  15.961  0.00  0.00    +0.000 A 
ATOM     21  C   UNL     1       5.661   5.898  15.180  0.00  0.00    +0.000 A 
ATOM     22  C   UNL     1       5.602   4.573  15.591  0.00  0.00    +0.000 A 
ATOM     23  N   UNL     1       4.984   4.219  16.738  0.00  0.00    +0.000 NA
BRANCH  22  24
ATOM     24  N   UNL     1       6.095   3.526  14.826  0.00  0.00    +0.000 N 
ATOM     25  H   UNL     1       6.898   3.141  15.315  0.00  0.00    +0.000 HD
BRANCH  24  26
ATOM     26  C   UNL     1       6.261   3.713  13.398  0.00  0.00    +0.000 C 
BRANCH  26  27
ATOM     27  C   UNL     1       5.294   2.833  12.656  0.00  0.00    +0.000 C 
ATOM     28  C   UNL     1       4.532   3.342  11.455  0.00  0.00    +0.000 C 
ATOM     29  C   UNL     1       5.628   2.333  11.268  0.00  0.00    +0.000 C 
ENDBRANCH  26  27
ENDBRANCH  24  26
ENDBRANCH  22  24
ENDBRANCH   4  18
TORSDOF 5
ENDMDL
MODEL 9
REMARK VINA RESULT:      -7.8      1.553      8.639
REMARK  Name = 
REMARK  6 active torsions:
REMARK  status: ('A' for Active; 'I' for Inactive)
REMARK    1  A    between atoms: C_1  and  N_2
REMARK    2  A    between atoms: C_5  and  C_6
REMARK    3  A    between atoms: C_9  and  C_10
REMARK    4  A    between atoms: C_14  and  N_15
REMARK    5  A    between atoms: N_15  and  C_16
REMARK    6  A    between atoms: C_16  and  C_17
REMARK                            x       y       z     vdW  Elec       q    Type
REMARK                         _______ _______ _______ _____ _____    ______ ____
ROOT
ATOM      1  C   UNL     1       4.900   4.109  17.482  0.00  0.00    +0.000 A 
ATOM      2  C   UNL     1       4.149   5.163  17.969  0.00  0.00    +0.000 A 
ATOM      3  C   UNL     1       3.391   4.704  19.087  0.00  0.00    +0.000 A 
ATOM      4  C   UNL     1       2.457   5.265  19.991  0.00  0.00    +0.000 A 
ATOM      5  C   UNL     1       1.928   4.373  20.948  0.00  0.00    +0.000 A 
ATOM      6  C   UNL     1       2.326   3.042  20.968  0.00  0.00    +0.000 A 
ATOM      7  N   UNL     1       3.212   2.480  20.125  0.00  0.00    +0.000 NA
ATOM      8  C   UNL     1       3.698   3.354  19.226  0.00  0.00    +0.000 A 
ATOM      9  N   UNL     1       4.612   3.018  18.267  0.00  0.00    +0.000 N 
ATOM     10  H   UNL     1       4.995   2.091  18.167  0.00  0.00    +0.000 HD
ENDROOT
BRANCH   1  15
ATOM     11  C   UNL     1       7.904   5.218  12.749  0.00  0.00    +0.000 C 
ATOM     12  N   UNL     1       7.001   5.187  13.900  0.00  0.00    +0.000 NA
ATOM     13  C   UNL     1       6.118   4.015  13.826  0.00  0.00    +0.000 C 
ATOM     14  C   UNL     1       5.127   4.002  14.988  0.00  0.00    +0.000 C 
ATOM     15  C   UNL     1       5.859   4.052  16.332  0.00  0.00    +0.000 C 
ATOM     16  C   UNL     1       6.845   5.225  16.365  0.00  0.00    +0.000 C 
ATOM     17  C   UNL     1       7.772   5.194  15.151  0.00  0.00    +0.000 C 
ENDBRANCH   1  15
BRANCH   4  18
ATOM     18  C   UNL     1       2.058   6.685  19.907  0.00  0.00    +0.000 A 
ATOM     19  C   UNL     1       2.163   7.407  18.720  0.00  0.00    +0.000 A 
ATOM     20  C   UNL     1       1.767   8.738  18.698  0.00  0.00    +0.000 A 
ATOM     21  C   UNL     1       1.301   9.325  19.866  0.00  0.00    +0.000 A 
ATOM     22  C   UNL     1       1.220   8.566  21.025  0.00  0.00    +0.000 A 
ATOM     23  N   UNL     1       1.582   7.266  21.043  0.00  0.00    +0.000 NA
BRANCH  22  24
ATOM     24  N   UNL     1       0.843   9.101  22.250  0.00  0.00    +0.000 N 
ATOM     25  H   UNL     1       1.258   8.525  22.976  0.00  0.00    +0.000 HD
BRANCH  24  26
ATOM     26  C   UNL     1      -0.542   9.474  22.460  0.00  0.00    +0.000 C 
BRANCH  26  27
ATOM     27  C   UNL     1      -0.615  10.887  22.969  0.00  0.00    +0.000 C 
ATOM     28  C   UNL     1      -0.643  12.063  22.021  0.00  0.00    +0.000 C 
ATOM     29  C   UNL     1      -1.879  11.698  22.790  0.00  0.00    +0.000 C 
ENDBRANCH  26  27
ENDBRANCH  24  26
ENDBRANCH  22  24
ENDBRANCH   4  18
TORSDOF 5
ENDMDL
