MODEL 1
REMARK VINA RESULT:      -6.3      0.000      0.000
REMARK  Name = 
REMARK  4 active torsions:
REMARK  status: ('A' for Active; 'I' for Inactive)
REMARK    1  A    between atoms: C_1  and  C_2
REMARK    2  A    between atoms: N_10  and  C_11
REMARK    3  A    between atoms: C_11  and  C_12
REMARK    4  A    between atoms: C_25  and  C_26
REMARK                            x       y       z     vdW  Elec       q    Type
REMARK                         _______ _______ _______ _____ _____    ______ ____
ROOT
ATOM      1  C   UNL     1      -0.588  13.261  18.887  0.00  0.00    +0.000 C 
ATOM      2  C   UNL     1       0.654  14.022  19.256  0.00  0.00    +0.000 A 
ATOM      3  C   UNL     1       0.663  14.908  20.336  0.00  0.00    +0.000 A 
ATOM      4  C   UNL     1       1.824  15.612  20.683  0.00  0.00    +0.000 A 
ATOM      5  C   UNL     1       2.999  15.430  19.929  0.00  0.00    +0.000 A 
ATOM      6  N   UNL     1       4.222  16.048  20.150  0.00  0.00    +0.000 NA
ATOM      7  C   UNL     1       5.090  15.647  19.257  0.00  0.00    +0.000 A 
ATOM      8  N   UNL     1       6.388  16.130  19.306  0.00  0.00    +0.000 N 
ATOM      9  C   UNL     1       7.358  15.900  18.263  0.00  0.00    +0.000 C 
ATOM     10  N   UNL     1       8.568  15.373  18.848  0.00  0.00    +0.000 NA
ATOM     11  C   UNL     1       9.104  16.310  19.810  0.00  0.00    +0.000 C 
ATOM     12  N   UNL     1       8.124  16.537  20.850  0.00  0.00    +0.000 N 
ATOM     13  C   UNL     1       8.395  16.411  22.205  0.00  0.00    +0.000 A 
ATOM     14  N   UNL     1       7.431  16.577  23.076  0.00  0.00    +0.000 NA
ATOM     15  C   UNL     1       7.908  16.354  24.362  0.00  0.00    +0.000 A 
ATOM     16  C   UNL     1       7.157  16.404  25.553  0.00  0.00    +0.000 A 
ATOM     17  C   UNL     1       7.785  16.160  26.782  0.00  0.00    +0.000 A 
ATOM     18  C   UNL     1       9.150  15.874  26.848  0.00  0.00    +0.000 A 
ATOM     19  C   UNL     1       9.828  15.625  28.166  0.00  0.00    +0.000 C 
ATOM     20  C   UNL     1       9.910  15.820  25.670  0.00  0.00    +0.000 A 
ATOM     21  C   UNL     1       9.267  16.053  24.445  0.00  0.00    +0.000 A 
ATOM     22  S   UNL     1       9.927  16.027  22.862  0.00  0.00    +0.000 S 
ATOM     23  C   UNL     1       6.807  16.971  20.410  0.00  0.00    +0.000 C 
ATOM     24  S   UNL     1       4.507  14.532  18.100  0.00  0.00    +0.000 S 
ATOM     25  C   UNL     1       2.968  14.547  18.848  0.00  0.00    +0.000 A 
ATOM     26  C   UNL     1       1.817  13.830  18.499  0.00  0.00    +0.000 A 
ENDROOT
BRANCH  10  27
ATOM     27  C   UNL     1       8.434  14.013  19.394  0.00  0.00    +0.000 C 
BRANCH  27  28
ATOM     28  C   UNL     1       9.657  13.134  19.217  0.00  0.00    +0.000 A 
ATOM     29  C   UNL     1      10.065  12.675  17.955  0.00  0.00    +0.000 A 
ATOM     30  C   UNL     1      11.190  11.859  17.822  0.00  0.00    +0.000 A 
ATOM     31  C   UNL     1      11.947  11.525  18.942  0.00  0.00    +0.000 A 
ATOM     32  C   UNL     1      11.582  12.008  20.196  0.00  0.00    +0.000 A 
ATOM     33  C   UNL     1      10.445  12.809  20.334  0.00  0.00    +0.000 A 
ENDBRANCH  27  28
ENDBRANCH  10  27
TORSDOF 2
ENDMDL
MODEL 2
REMARK VINA RESULT:      -6.2      2.507      2.886
REMARK  Name = 
REMARK  4 active torsions:
REMARK  status: ('A' for Active; 'I' for Inactive)
REMARK    1  A    between atoms: C_1  and  C_2
REMARK    2  A    between atoms: N_10  and  C_11
REMARK    3  A    between atoms: C_11  and  C_12
REMARK    4  A    between atoms: C_25  and  C_26
REMARK                            x       y       z     vdW  Elec       q    Type
REMARK                         _______ _______ _______ _____ _____    ______ ____
ROOT
ATOM      1  C   UNL     1      -0.248  17.165  17.778  0.00  0.00    +0.000 C 
ATOM      2  C   UNL     1       0.918  17.137  18.726  0.00  0.00    +0.000 A 
ATOM      3  C   UNL     1       0.733  17.305  20.101  0.00  0.00    +0.000 A 
ATOM      4  C   UNL     1       1.820  17.272  20.985  0.00  0.00    +0.000 A 
ATOM      5  C   UNL     1       3.120  17.074  20.480  0.00  0.00    +0.000 A 
ATOM      6  N   UNL     1       4.290  17.012  21.225  0.00  0.00    +0.000 NA
ATOM      7  C   UNL     1       5.312  16.820  20.431  0.00  0.00    +0.000 A 
ATOM      8  N   UNL     1       6.583  16.709  20.973  0.00  0.00    +0.000 N 
ATOM      9  C   UNL     1       7.785  16.689  20.174  0.00  0.00    +0.000 C 
ATOM     10  N   UNL     1       8.584  15.547  20.549  0.00  0.00    +0.000 NA
ATOM     11  C   UNL     1       8.934  15.622  21.950  0.00  0.00    +0.000 C 
ATOM     12  N   UNL     1       7.723  15.645  22.742  0.00  0.00    +0.000 N 
ATOM     13  C   UNL     1       7.477  14.780  23.800  0.00  0.00    +0.000 A 
ATOM     14  N   UNL     1       6.327  14.833  24.425  0.00  0.00    +0.000 NA
ATOM     15  C   UNL     1       6.275  13.852  25.407  0.00  0.00    +0.000 A 
ATOM     16  C   UNL     1       5.185  13.577  26.258  0.00  0.00    +0.000 A 
ATOM     17  C   UNL     1       5.287  12.553  27.209  0.00  0.00    +0.000 A 
ATOM     18  C   UNL     1       6.457  11.800  27.334  0.00  0.00    +0.000 A 
ATOM     19  C   UNL     1       6.571  10.710  28.362  0.00  0.00    +0.000 C 
ATOM     20  C   UNL     1       7.548  12.062  26.493  0.00  0.00    +0.000 A 
ATOM     21  C   UNL     1       7.429  13.081  25.537  0.00  0.00    +0.000 A 
ATOM     22  S   UNL     1       8.576  13.600  24.370  0.00  0.00    +0.000 S 
ATOM     23  C   UNL     1       6.756  16.681  22.412  0.00  0.00    +0.000 C 
ATOM     24  S   UNL     1       4.951  16.716  18.763  0.00  0.00    +0.000 S 
ATOM     25  C   UNL     1       3.285  16.917  19.104  0.00  0.00    +0.000 A 
ATOM     26  C   UNL     1       2.205  16.937  18.213  0.00  0.00    +0.000 A 
ENDROOT
BRANCH  10  27
ATOM     27  C   UNL     1       7.995  14.249  20.181  0.00  0.00    +0.000 C 
BRANCH  27  28
ATOM     28  C   UNL     1       8.925  13.322  19.423  0.00  0.00    +0.000 A 
ATOM     29  C   UNL     1       9.365  12.104  19.966  0.00  0.00    +0.000 A 
ATOM     30  C   UNL     1      10.229  11.274  19.250  0.00  0.00    +0.000 A 
ATOM     31  C   UNL     1      10.632  11.627  17.965  0.00  0.00    +0.000 A 
ATOM     32  C   UNL     1      10.170  12.809  17.393  0.00  0.00    +0.000 A 
ATOM     33  C   UNL     1       9.321  13.652  18.116  0.00  0.00    +0.000 A 
ENDBRANCH  27  28
ENDBRANCH  10  27
TORSDOF 2
ENDMDL
MODEL 3
REMARK VINA RESULT:      -6.2      1.986      8.178
REMARK  Name = 
REMARK  4 active torsions:
REMARK  status: ('A' for Active; 'I' for Inactive)
REMARK    1  A    between atoms: C_1  and  C_2
REMARK    2  A    between atoms: N_10  and  C_11
REMARK    3  A    between atoms: C_11  and  C_12
REMARK    4  A    between atoms: C_25  and  C_26
REMARK                            x       y       z     vdW  Elec       q    Type
REMARK                         _______ _______ _______ _____ _____    ______ ____
ROOT
ATOM      1  C   UNL     1      11.928  11.541  18.697  0.00  0.00    +0.000 C 
ATOM      2  C   UNL     1      10.691  12.375  18.877  0.00  0.00    +0.000 A 
ATOM      3  C   UNL     1       9.780  12.547  17.832  0.00  0.00    +0.000 A 
ATOM      4  C   UNL     1       8.623  13.320  18.004  0.00  0.00    +0.000 A 
ATOM      5  C   UNL     1       8.378  13.938  19.245  0.00  0.00    +0.000 A 
ATOM      6  N   UNL     1       7.281  14.726  19.569  0.00  0.00    +0.000 NA
ATOM      7  C   UNL     1       7.380  15.137  20.806  0.00  0.00    +0.000 A 
ATOM      8  N   UNL     1       6.375  15.927  21.342  0.00  0.00    +0.000 N 
ATOM      9  C   UNL     1       6.484  16.584  22.623  0.00  0.00    +0.000 C 
ATOM     10  N   UNL     1       5.321  16.269  23.418  0.00  0.00    +0.000 NA
ATOM     11  C   UNL     1       4.122  16.715  22.744  0.00  0.00    +0.000 C 
ATOM     12  N   UNL     1       4.023  16.053  21.461  0.00  0.00    +0.000 N 
ATOM     13  C   UNL     1       2.897  15.363  21.033  0.00  0.00    +0.000 A 
ATOM     14  N   UNL     1       2.918  14.743  19.880  0.00  0.00    +0.000 NA
ATOM     15  C   UNL     1       1.714  14.079  19.676  0.00  0.00    +0.000 A 
ATOM     16  C   UNL     1       1.379  13.276  18.567  0.00  0.00    +0.000 A 
ATOM     17  C   UNL     1       0.116  12.673  18.502  0.00  0.00    +0.000 A 
ATOM     18  C   UNL     1      -0.824  12.861  19.518  0.00  0.00    +0.000 A 
ATOM     19  C   UNL     1      -2.184  12.225  19.442  0.00  0.00    +0.000 C 
ATOM     20  C   UNL     1      -0.504  13.657  20.627  0.00  0.00    +0.000 A 
ATOM     21  C   UNL     1       0.768  14.244  20.687  0.00  0.00    +0.000 A 
ATOM     22  S   UNL     1       1.440  15.233  21.918  0.00  0.00    +0.000 S 
ATOM     23  C   UNL     1       5.172  16.186  20.577  0.00  0.00    +0.000 C 
ATOM     24  S   UNL     1       8.778  14.631  21.650  0.00  0.00    +0.000 S 
ATOM     25  C   UNL     1       9.304  13.762  20.273  0.00  0.00    +0.000 A 
ATOM     26  C   UNL     1      10.457  12.983  20.117  0.00  0.00    +0.000 A 
ENDROOT
BRANCH  10  27
ATOM     27  C   UNL     1       5.243  14.862  23.844  0.00  0.00    +0.000 C 
BRANCH  27  28
ATOM     28  C   UNL     1       6.291  14.446  24.857  0.00  0.00    +0.000 A 
ATOM     29  C   UNL     1       6.486  15.149  26.057  0.00  0.00    +0.000 A 
ATOM     30  C   UNL     1       7.465  14.749  26.968  0.00  0.00    +0.000 A 
ATOM     31  C   UNL     1       8.235  13.617  26.713  0.00  0.00    +0.000 A 
ATOM     32  C   UNL     1       8.026  12.882  25.549  0.00  0.00    +0.000 A 
ATOM     33  C   UNL     1       7.060  13.292  24.626  0.00  0.00    +0.000 A 
ENDBRANCH  27  28
ENDBRANCH  10  27
TORSDOF 2
ENDMDL
MODEL 4
REMARK VINA RESULT:      -6.1      1.702      8.171
REMARK  Name = 
REMARK  4 active torsions:
REMARK  status: ('A' for Active; 'I' for Inactive)
REMARK    1  A    between atoms: C_1  and  C_2
REMARK    2  A    between atoms: N_10  and  C_11
REMARK    3  A    between atoms: C_11  and  C_12
REMARK    4  A    between atoms: C_25  and  C_26
REMARK                            x       y       z     vdW  Elec       q    Type
REMARK                         _______ _______ _______ _____ _____    ______ ____
ROOT
ATOM      1  C   UNL     1      11.973  11.645  18.999  0.00  0.00    +0.000 C 
ATOM      2  C   UNL     1      10.712  12.442  18.812  0.00  0.00    +0.000 A 
ATOM      3  C   UNL     1       9.788  12.106  17.819  0.00  0.00    +0.000 A 
ATOM      4  C   UNL     1       8.609  12.846  17.651  0.00  0.00    +0.000 A 
ATOM      5  C   UNL     1       8.355  13.948  18.489  0.00  0.00    +0.000 A 
ATOM      6  N   UNL     1       7.237  14.771  18.448  0.00  0.00    +0.000 NA
ATOM      7  C   UNL     1       7.333  15.695  19.368  0.00  0.00    +0.000 A 
ATOM      8  N   UNL     1       6.309  16.617  19.515  0.00  0.00    +0.000 N 
ATOM      9  C   UNL     1       6.407  17.781  20.363  0.00  0.00    +0.000 C 
ATOM     10  N   UNL     1       5.260  17.827  21.238  0.00  0.00    +0.000 NA
ATOM     11  C   UNL     1       4.043  17.895  20.461  0.00  0.00    +0.000 C 
ATOM     12  N   UNL     1       3.955  16.727  19.612  0.00  0.00    +0.000 N 
ATOM     13  C   UNL     1       2.847  15.892  19.562  0.00  0.00    +0.000 A 
ATOM     14  N   UNL     1       2.878  14.822  18.807  0.00  0.00    +0.000 NA
ATOM     15  C   UNL     1       1.694  14.108  18.947  0.00  0.00    +0.000 A 
ATOM     16  C   UNL     1       1.375  12.885  18.322  0.00  0.00    +0.000 A 
ATOM     17  C   UNL     1       0.130  12.287  18.559  0.00  0.00    +0.000 A 
ATOM     18  C   UNL     1      -0.807  12.887  19.403  0.00  0.00    +0.000 A 
ATOM     19  C   UNL     1      -2.148  12.253  19.647  0.00  0.00    +0.000 C 
ATOM     20  C   UNL     1      -0.503  14.103  20.031  0.00  0.00    +0.000 A 
ATOM     21  C   UNL     1       0.751  14.686  19.796  0.00  0.00    +0.000 A 
ATOM     22  S   UNL     1       1.401  16.137  20.441  0.00  0.00    +0.000 S 
ATOM     23  C   UNL     1       5.092  16.478  18.739  0.00  0.00    +0.000 C 
ATOM     24  S   UNL     1       8.752  15.655  20.321  0.00  0.00    +0.000 S 
ATOM     25  C   UNL     1       9.294  14.273  19.468  0.00  0.00    +0.000 A 
ATOM     26  C   UNL     1      10.469  13.535  19.653  0.00  0.00    +0.000 A 
ENDROOT
BRANCH  10  27
ATOM     27  C   UNL     1       5.228  16.759  22.251  0.00  0.00    +0.000 C 
BRANCH  27  28
ATOM     28  C   UNL     1       6.340  16.825  23.279  0.00  0.00    +0.000 A 
ATOM     29  C   UNL     1       6.642  18.008  23.973  0.00  0.00    +0.000 A 
ATOM     30  C   UNL     1       7.679  18.042  24.908  0.00  0.00    +0.000 A 
ATOM     31  C   UNL     1       8.399  16.885  25.194  0.00  0.00    +0.000 A 
ATOM     32  C   UNL     1       8.085  15.693  24.547  0.00  0.00    +0.000 A 
ATOM     33  C   UNL     1       7.062  15.661  23.596  0.00  0.00    +0.000 A 
ENDBRANCH  27  28
ENDBRANCH  10  27
TORSDOF 2
ENDMDL
MODEL 5
REMARK VINA RESULT:      -6.1      2.677      8.064
REMARK  Name = 
REMARK  4 active torsions:
REMARK  status: ('A' for Active; 'I' for Inactive)
REMARK    1  A    between atoms: C_1  and  C_2
REMARK    2  A    between atoms: N_10  and  C_11
REMARK    3  A    between atoms: C_11  and  C_12
REMARK    4  A    between atoms: C_25  and  C_26
REMARK                            x       y       z     vdW  Elec       q    Type
REMARK                         _______ _______ _______ _____ _____    ______ ____
ROOT
ATOM      1  C   UNL     1      11.932  11.286  18.328  0.00  0.00    +0.000 C 
ATOM      2  C   UNL     1      11.028  12.397  18.783  0.00  0.00    +0.000 A 
ATOM      3  C   UNL     1      10.542  13.346  17.879  0.00  0.00    +0.000 A 
ATOM      4  C   UNL     1       9.693  14.378  18.303  0.00  0.00    +0.000 A 
ATOM      5  C   UNL     1       9.330  14.465  19.660  0.00  0.00    +0.000 A 
ATOM      6  N   UNL     1       8.499  15.422  20.229  0.00  0.00    +0.000 NA
ATOM      7  C   UNL     1       8.382  15.201  21.512  0.00  0.00    +0.000 A 
ATOM      8  N   UNL     1       7.577  16.033  22.275  0.00  0.00    +0.000 N 
ATOM      9  C   UNL     1       7.536  15.991  23.717  0.00  0.00    +0.000 C 
ATOM     10  N   UNL     1       6.163  15.884  24.149  0.00  0.00    +0.000 NA
ATOM     11  C   UNL     1       5.403  17.019  23.675  0.00  0.00    +0.000 C 
ATOM     12  N   UNL     1       5.452  17.055  22.230  0.00  0.00    +0.000 N 
ATOM     13  C   UNL     1       4.327  17.136  21.421  0.00  0.00    +0.000 A 
ATOM     14  N   UNL     1       4.462  17.103  20.119  0.00  0.00    +0.000 NA
ATOM     15  C   UNL     1       3.214  17.145  19.510  0.00  0.00    +0.000 A 
ATOM     16  C   UNL     1       2.956  17.090  18.125  0.00  0.00    +0.000 A 
ATOM     17  C   UNL     1       1.635  17.149  17.662  0.00  0.00    +0.000 A 
ATOM     18  C   UNL     1       0.565  17.267  18.551  0.00  0.00    +0.000 A 
ATOM     19  C   UNL     1      -0.852  17.342  18.054  0.00  0.00    +0.000 C 
ATOM     20  C   UNL     1       0.807  17.321  19.931  0.00  0.00    +0.000 A 
ATOM     21  C   UNL     1       2.132  17.249  20.384  0.00  0.00    +0.000 A 
ATOM     22  S   UNL     1       2.721  17.263  21.995  0.00  0.00    +0.000 S 
ATOM     23  C   UNL     1       6.778  17.056  21.630  0.00  0.00    +0.000 C 
ATOM     24  S   UNL     1       9.257  13.865  22.122  0.00  0.00    +0.000 S 
ATOM     25  C   UNL     1       9.833  13.514  20.549  0.00  0.00    +0.000 A 
ATOM     26  C   UNL     1      10.672  12.472  20.135  0.00  0.00    +0.000 A 
ENDROOT
BRANCH  10  27
ATOM     27  C   UNL     1       5.525  14.598  23.824  0.00  0.00    +0.000 C 
BRANCH  27  28
ATOM     28  C   UNL     1       5.805  13.482  24.812  0.00  0.00    +0.000 A 
ATOM     29  C   UNL     1       5.616  13.648  26.193  0.00  0.00    +0.000 A 
ATOM     30  C   UNL     1       5.892  12.606  27.081  0.00  0.00    +0.000 A 
ATOM     31  C   UNL     1       6.317  11.371  26.599  0.00  0.00    +0.000 A 
ATOM     32  C   UNL     1       6.467  11.175  25.228  0.00  0.00    +0.000 A 
ATOM     33  C   UNL     1       6.212  12.223  24.339  0.00  0.00    +0.000 A 
ENDBRANCH  27  28
ENDBRANCH  10  27
TORSDOF 2
ENDMDL
MODEL 6
REMARK VINA RESULT:      -6.0      5.496     11.062
REMARK  Name = 
REMARK  4 active torsions:
REMARK  status: ('A' for Active; 'I' for Inactive)
REMARK    1  A    between atoms: C_1  and  C_2
REMARK    2  A    between atoms: N_10  and  C_11
REMARK    3  A    between atoms: C_11  and  C_12
REMARK    4  A    between atoms: C_25  and  C_26
REMARK                            x       y       z     vdW  Elec       q    Type
REMARK                         _______ _______ _______ _____ _____    ______ ____
ROOT
ATOM      1  C   UNL     1       6.021  17.293  18.986  0.00  0.00    +0.000 C 
ATOM      2  C   UNL     1       4.838  16.806  19.774  0.00  0.00    +0.000 A 
ATOM      3  C   UNL     1       4.265  17.595  20.775  0.00  0.00    +0.000 A 
ATOM      4  C   UNL     1       3.157  17.143  21.504  0.00  0.00    +0.000 A 
ATOM      5  C   UNL     1       2.616  15.873  21.230  0.00  0.00    +0.000 A 
ATOM      6  N   UNL     1       1.524  15.291  21.860  0.00  0.00    +0.000 NA
ATOM      7  C   UNL     1       1.300  14.105  21.355  0.00  0.00    +0.000 A 
ATOM      8  N   UNL     1       0.237  13.354  21.831  0.00  0.00    +0.000 N 
ATOM      9  C   UNL     1       0.026  11.970  21.478  0.00  0.00    +0.000 C 
ATOM     10  N   UNL     1      -1.330  11.801  21.011  0.00  0.00    +0.000 NA
ATOM     11  C   UNL     1      -2.264  12.186  22.046  0.00  0.00    +0.000 C 
ATOM     12  N   UNL     1      -2.042  13.572  22.395  0.00  0.00    +0.000 N 
ATOM     13  C   UNL     1      -3.046  14.531  22.419  0.00  0.00    +0.000 A 
ATOM     14  N   UNL     1      -2.744  15.777  22.689  0.00  0.00    +0.000 NA
ATOM     15  C   UNL     1      -3.882  16.570  22.608  0.00  0.00    +0.000 A 
ATOM     16  C   UNL     1      -3.945  17.965  22.796  0.00  0.00    +0.000 A 
ATOM     17  C   UNL     1      -5.176  18.627  22.687  0.00  0.00    +0.000 A 
ATOM     18  C   UNL     1      -6.347  17.924  22.399  0.00  0.00    +0.000 A 
ATOM     19  C   UNL     1      -7.670  18.631  22.294  0.00  0.00    +0.000 C 
ATOM     20  C   UNL     1      -6.299  16.535  22.209  0.00  0.00    +0.000 A 
ATOM     21  C   UNL     1      -5.060  15.887  22.308  0.00  0.00    +0.000 A 
ATOM     22  S   UNL     1      -4.697  14.222  22.099  0.00  0.00    +0.000 S 
ATOM     23  C   UNL     1      -0.687  13.930  22.787  0.00  0.00    +0.000 C 
ATOM     24  S   UNL     1       2.373  13.605  20.123  0.00  0.00    +0.000 S 
ATOM     25  C   UNL     1       3.207  15.096  20.233  0.00  0.00    +0.000 A 
ATOM     26  C   UNL     1       4.307  15.542  19.490  0.00  0.00    +0.000 A 
ENDROOT
BRANCH  10  27
ATOM     27  C   UNL     1      -1.611  12.453  19.722  0.00  0.00    +0.000 C 
BRANCH  27  28
ATOM     28  C   UNL     1      -2.242  11.551  18.679  0.00  0.00    +0.000 A 
ATOM     29  C   UNL     1      -3.616  11.594  18.392  0.00  0.00    +0.000 A 
ATOM     30  C   UNL     1      -4.171  10.745  17.433  0.00  0.00    +0.000 A 
ATOM     31  C   UNL     1      -3.356   9.873  16.717  0.00  0.00    +0.000 A 
ATOM     32  C   UNL     1      -1.985   9.848  16.956  0.00  0.00    +0.000 A 
ATOM     33  C   UNL     1      -1.429  10.682  17.930  0.00  0.00    +0.000 A 
ENDBRANCH  27  28
ENDBRANCH  10  27
TORSDOF 2
ENDMDL
MODEL 7
REMARK VINA RESULT:      -6.0      5.076      7.907
REMARK  Name = 
REMARK  4 active torsions:
REMARK  status: ('A' for Active; 'I' for Inactive)
REMARK    1  A    between atoms: C_1  and  C_2
REMARK    2  A    between atoms: N_10  and  C_11
REMARK    3  A    between atoms: C_11  and  C_12
REMARK    4  A    between atoms: C_25  and  C_26
REMARK                            x       y       z     vdW  Elec       q    Type
REMARK                         _______ _______ _______ _____ _____    ______ ____
ROOT
ATOM      1  C   UNL     1      -7.731  12.831  23.400  0.00  0.00    +0.000 C 
ATOM      2  C   UNL     1      -6.467  13.318  22.749  0.00  0.00    +0.000 A 
ATOM      3  C   UNL     1      -5.956  14.588  23.028  0.00  0.00    +0.000 A 
ATOM      4  C   UNL     1      -4.773  15.038  22.426  0.00  0.00    +0.000 A 
ATOM      5  C   UNL     1      -4.092  14.202  21.521  0.00  0.00    +0.000 A 
ATOM      6  N   UNL     1      -2.913  14.502  20.852  0.00  0.00    +0.000 NA
ATOM      7  C   UNL     1      -2.567  13.497  20.091  0.00  0.00    +0.000 A 
ATOM      8  N   UNL     1      -1.402  13.580  19.343  0.00  0.00    +0.000 N 
ATOM      9  C   UNL     1      -1.038  12.613  18.336  0.00  0.00    +0.000 C 
ATOM     10  N   UNL     1       0.309  12.155  18.583  0.00  0.00    +0.000 NA
ATOM     11  C   UNL     1       1.229  13.270  18.540  0.00  0.00    +0.000 C 
ATOM     12  N   UNL     1       0.854  14.234  19.551  0.00  0.00    +0.000 N 
ATOM     13  C   UNL     1       1.733  14.739  20.499  0.00  0.00    +0.000 A 
ATOM     14  N   UNL     1       1.293  15.565  21.415  0.00  0.00    +0.000 NA
ATOM     15  C   UNL     1       2.322  15.901  22.287  0.00  0.00    +0.000 A 
ATOM     16  C   UNL     1       2.221  16.736  23.418  0.00  0.00    +0.000 A 
ATOM     17  C   UNL     1       3.357  16.987  24.200  0.00  0.00    +0.000 A 
ATOM     18  C   UNL     1       4.593  16.426  23.874  0.00  0.00    +0.000 A 
ATOM     19  C   UNL     1       5.814  16.704  24.705  0.00  0.00    +0.000 C 
ATOM     20  C   UNL     1       4.708  15.592  22.752  0.00  0.00    +0.000 A 
ATOM     21  C   UNL     1       3.561  15.339  21.984  0.00  0.00    +0.000 A 
ATOM     22  S   UNL     1       3.396  14.350  20.591  0.00  0.00    +0.000 S 
ATOM     23  C   UNL     1      -0.518  14.717  19.504  0.00  0.00    +0.000 C 
ATOM     24  S   UNL     1      -3.619  12.150  20.110  0.00  0.00    +0.000 S 
ATOM     25  C   UNL     1      -4.623  12.941  21.249  0.00  0.00    +0.000 A 
ATOM     26  C   UNL     1      -5.797  12.476  21.853  0.00  0.00    +0.000 A 
ENDROOT
BRANCH  10  27
ATOM     27  C   UNL     1       0.458  11.343  19.801  0.00  0.00    +0.000 C 
BRANCH  27  28
ATOM     28  C   UNL     1       1.068   9.972  19.580  0.00  0.00    +0.000 A 
ATOM     29  C   UNL     1       1.681   9.619  18.367  0.00  0.00    +0.000 A 
ATOM     30  C   UNL     1       2.226   8.346  18.188  0.00  0.00    +0.000 A 
ATOM     31  C   UNL     1       2.205   7.424  19.231  0.00  0.00    +0.000 A 
ATOM     32  C   UNL     1       1.641   7.772  20.455  0.00  0.00    +0.000 A 
ATOM     33  C   UNL     1       1.076   9.038  20.630  0.00  0.00    +0.000 A 
ENDBRANCH  27  28
ENDBRANCH  10  27
TORSDOF 2
ENDMDL
MODEL 8
REMARK VINA RESULT:      -5.9      0.740      1.131
REMARK  Name = 
REMARK  4 active torsions:
REMARK  status: ('A' for Active; 'I' for Inactive)
REMARK    1  A    between atoms: C_1  and  C_2
REMARK    2  A    between atoms: N_10  and  C_11
REMARK    3  A    between atoms: C_11  and  C_12
REMARK    4  A    between atoms: C_25  and  C_26
REMARK                            x       y       z     vdW  Elec       q    Type
REMARK                         _______ _______ _______ _____ _____    ______ ____
ROOT
ATOM      1  C   UNL     1      -0.744  14.485  19.446  0.00  0.00    +0.000 C 
ATOM      2  C   UNL     1       0.600  15.120  19.667  0.00  0.00    +0.000 A 
ATOM      3  C   UNL     1       0.791  16.073  20.671  0.00  0.00    +0.000 A 
ATOM      4  C   UNL     1       2.047  16.659  20.881  0.00  0.00    +0.000 A 
ATOM      5  C   UNL     1       3.131  16.290  20.063  0.00  0.00    +0.000 A 
ATOM      6  N   UNL     1       4.429  16.775  20.149  0.00  0.00    +0.000 NA
ATOM      7  C   UNL     1       5.175  16.215  19.232  0.00  0.00    +0.000 A 
ATOM      8  N   UNL     1       6.518  16.546  19.153  0.00  0.00    +0.000 N 
ATOM      9  C   UNL     1       7.372  16.133  18.065  0.00  0.00    +0.000 C 
ATOM     10  N   UNL     1       8.559  15.511  18.604  0.00  0.00    +0.000 NA
ATOM     11  C   UNL     1       9.269  16.445  19.450  0.00  0.00    +0.000 C 
ATOM     12  N   UNL     1       8.404  16.856  20.535  0.00  0.00    +0.000 N 
ATOM     13  C   UNL     1       8.765  16.794  21.874  0.00  0.00    +0.000 A 
ATOM     14  N   UNL     1       7.896  17.131  22.794  0.00  0.00    +0.000 NA
ATOM     15  C   UNL     1       8.444  16.945  24.057  0.00  0.00    +0.000 A 
ATOM     16  C   UNL     1       7.798  17.165  25.290  0.00  0.00    +0.000 A 
ATOM     17  C   UNL     1       8.490  16.936  26.487  0.00  0.00    +0.000 A 
ATOM     18  C   UNL     1       9.816  16.498  26.480  0.00  0.00    +0.000 A 
ATOM     19  C   UNL     1      10.563  16.265  27.763  0.00  0.00    +0.000 C 
ATOM     20  C   UNL     1      10.471  16.275  25.260  0.00  0.00    +0.000 A 
ATOM     21  C   UNL     1       9.764  16.495  24.069  0.00  0.00    +0.000 A 
ATOM     22  S   UNL     1      10.291  16.281  22.450  0.00  0.00    +0.000 S 
ATOM     23  C   UNL     1       7.112  17.408  20.156  0.00  0.00    +0.000 C 
ATOM     24  S   UNL     1       4.384  15.098  18.209  0.00  0.00    +0.000 S 
ATOM     25  C   UNL     1       2.919  15.343  19.059  0.00  0.00    +0.000 A 
ATOM     26  C   UNL     1       1.672  14.742  18.849  0.00  0.00    +0.000 A 
ENDROOT
BRANCH  10  27
ATOM     27  C   UNL     1       8.318  14.218  19.263  0.00  0.00    +0.000 C 
BRANCH  27  28
ATOM     28  C   UNL     1       9.480  13.246  19.198  0.00  0.00    +0.000 A 
ATOM     29  C   UNL     1      10.254  12.936  20.328  0.00  0.00    +0.000 A 
ATOM     30  C   UNL     1      11.324  12.044  20.237  0.00  0.00    +0.000 A 
ATOM     31  C   UNL     1      11.611  11.418  19.027  0.00  0.00    +0.000 A 
ATOM     32  C   UNL     1      10.827  11.680  17.907  0.00  0.00    +0.000 A 
ATOM     33  C   UNL     1       9.767  12.587  17.990  0.00  0.00    +0.000 A 
ENDBRANCH  27  28
ENDBRANCH  10  27
TORSDOF 2
ENDMDL
MODEL 9
REMARK VINA RESULT:      -5.9      3.740      7.522
REMARK  Name = 
REMARK  4 active torsions:
REMARK  status: ('A' for Active; 'I' for Inactive)
REMARK    1  A    between atoms: C_1  and  C_2
REMARK    2  A    between atoms: N_10  and  C_11
REMARK    3  A    between atoms: C_11  and  C_12
REMARK    4  A    between atoms: C_25  and  C_26
REMARK                            x       y       z     vdW  Elec       q    Type
REMARK                         _______ _______ _______ _____ _____    ______ ____
ROOT
ATOM      1  C   UNL     1      -1.811   9.958  18.133  0.00  0.00    +0.000 C 
ATOM      2  C   UNL     1      -0.711  10.753  18.779  0.00  0.00    +0.000 A 
ATOM      3  C   UNL     1       0.543  10.186  19.018  0.00  0.00    +0.000 A 
ATOM      4  C   UNL     1       1.570  10.930  19.613  0.00  0.00    +0.000 A 
ATOM      5  C   UNL     1       1.334  12.268  19.983  0.00  0.00    +0.000 A 
ATOM      6  N   UNL     1       2.247  13.131  20.575  0.00  0.00    +0.000 NA
ATOM      7  C   UNL     1       1.688  14.295  20.782  0.00  0.00    +0.000 A 
ATOM      8  N   UNL     1       2.433  15.316  21.351  0.00  0.00    +0.000 N 
ATOM      9  C   UNL     1       1.858  16.564  21.793  0.00  0.00    +0.000 C 
ATOM     10  N   UNL     1       2.603  17.658  21.218  0.00  0.00    +0.000 NA
ATOM     11  C   UNL     1       3.987  17.589  21.631  0.00  0.00    +0.000 C 
ATOM     12  N   UNL     1       4.554  16.334  21.186  0.00  0.00    +0.000 N 
ATOM     13  C   UNL     1       5.729  16.235  20.454  0.00  0.00    +0.000 A 
ATOM     14  N   UNL     1       6.137  15.060  20.042  0.00  0.00    +0.000 NA
ATOM     15  C   UNL     1       7.296  15.197  19.288  0.00  0.00    +0.000 A 
ATOM     16  C   UNL     1       8.006  14.161  18.648  0.00  0.00    +0.000 A 
ATOM     17  C   UNL     1       9.168  14.458  17.925  0.00  0.00    +0.000 A 
ATOM     18  C   UNL     1       9.642  15.769  17.831  0.00  0.00    +0.000 A 
ATOM     19  C   UNL     1      10.896  16.087  17.066  0.00  0.00    +0.000 C 
ATOM     20  C   UNL     1       8.946  16.810  18.462  0.00  0.00    +0.000 A 
ATOM     21  C   UNL     1       7.776  16.501  19.172  0.00  0.00    +0.000 A 
ATOM     22  S   UNL     1       6.717  17.559  20.011  0.00  0.00    +0.000 S 
ATOM     23  C   UNL     1       3.850  15.128  21.596  0.00  0.00    +0.000 C 
ATOM     24  S   UNL     1       0.052  14.431  20.306  0.00  0.00    +0.000 S 
ATOM     25  C   UNL     1       0.072  12.814  19.744  0.00  0.00    +0.000 A 
ATOM     26  C   UNL     1      -0.958  12.084  19.140  0.00  0.00    +0.000 A 
ENDROOT
BRANCH  10  27
ATOM     27  C   UNL     1       2.452  17.794  19.761  0.00  0.00    +0.000 C 
BRANCH  27  28
ATOM     28  C   UNL     1       1.025  17.988  19.286  0.00  0.00    +0.000 A 
ATOM     29  C   UNL     1       0.017  18.470  20.137  0.00  0.00    +0.000 A 
ATOM     30  C   UNL     1      -1.291  18.631  19.675  0.00  0.00    +0.000 A 
ATOM     31  C   UNL     1      -1.601  18.352  18.347  0.00  0.00    +0.000 A 
ATOM     32  C   UNL     1      -0.606  17.915  17.478  0.00  0.00    +0.000 A 
ATOM     33  C   UNL     1       0.700  17.735  17.942  0.00  0.00    +0.000 A 
ENDBRANCH  27  28
ENDBRANCH  10  27
TORSDOF 2
ENDMDL
