MODEL 1
REMARK VINA RESULT:      -8.4      0.000      0.000
REMARK  Name = 
REMARK  3 active torsions:
REMARK  status: ('A' for Active; 'I' for Inactive)
REMARK    1  A    between atoms: C_2  and  C_21
REMARK    2  A    between atoms: C_7  and  C_8
REMARK    3  A    between atoms: C_14  and  C_15
REMARK                            x       y       z     vdW  Elec       q    Type
REMARK                         _______ _______ _______ _____ _____    ______ ____
ROOT
ATOM      1  O   UNL     1      -0.485  10.239  18.770  0.00  0.00    +0.000 OA
ATOM      2  C   UNL     1      -0.242  10.291  19.969  0.00  0.00    +0.000 C 
ATOM      3  N   UNL     1       0.671   9.502  20.635  0.00  0.00    +0.000 N 
ATOM      4  C   UNL     1       1.433   8.532  19.975  0.00  0.00    +0.000 A 
ATOM      5  C   UNL     1       2.087   8.766  18.771  0.00  0.00    +0.000 A 
ATOM      6  N   UNL     1       2.853   7.828  18.154  0.00  0.00    +0.000 NA
ATOM      7  C   UNL     1       2.872   6.586  18.717  0.00  0.00    +0.000 A 
ATOM      8  C   UNL     1       2.136   6.348  19.899  0.00  0.00    +0.000 A 
ATOM      9  N   UNL     1       1.496   7.339  20.589  0.00  0.00    +0.000 NA
ATOM     10  H   UNL     1       0.467   9.273  21.598  0.00  0.00    +0.000 HD
ENDROOT
BRANCH   2  11
ATOM     11  C   UNL     1      -1.023  11.213  20.832  0.00  0.00    +0.000 A 
ATOM     12  C   UNL     1      -0.887  11.135  22.225  0.00  0.00    +0.000 A 
ATOM     13  C   UNL     1      -1.669  11.952  23.045  0.00  0.00    +0.000 A 
ATOM     14  C   UNL     1      -2.589  12.822  22.470  0.00  0.00    +0.000 A 
ATOM     15  F   UNL     1      -3.356  13.586  23.258  0.00  0.00    +0.000 F 
ATOM     16  C   UNL     1      -2.734  12.904  21.089  0.00  0.00    +0.000 A 
ATOM     17  C   UNL     1      -1.945  12.102  20.262  0.00  0.00    +0.000 A 
ENDBRANCH   2  11
BRANCH   7  18
ATOM     18  C   UNL     1       3.702   5.589  17.996  0.00  0.00    +0.000 A 
ATOM     19  C   UNL     1       3.179   4.395  17.473  0.00  0.00    +0.000 A 
ATOM     20  C   UNL     1       3.996   3.551  16.734  0.00  0.00    +0.000 A 
ATOM     21  N   UNL     1       5.306   3.773  16.523  0.00  0.00    +0.000 NA
ATOM     22  C   UNL     1       5.821   4.889  17.079  0.00  0.00    +0.000 A 
ATOM     23  C   UNL     1       5.076   5.806  17.807  0.00  0.00    +0.000 A 
ENDBRANCH   7  18
BRANCH   8  24
ATOM     24  C   UNL     1       1.845   5.026  20.440  0.00  0.00    +0.000 A 
ATOM     25  C   UNL     1       0.862   4.083  20.214  0.00  0.00    +0.000 A 
ATOM     26  C   UNL     1       1.170   2.969  21.036  0.00  0.00    +0.000 A 
ATOM     27  C   UNL     1       2.335   3.287  21.691  0.00  0.00    +0.000 A 
ATOM     28  O   UNL     1       2.761   4.520  21.323  0.00  0.00    +0.000 OA
ENDBRANCH   8  24
TORSDOF 3
ENDMDL
MODEL 2
REMARK VINA RESULT:      -8.2      0.225      1.313
REMARK  Name = 
REMARK  3 active torsions:
REMARK  status: ('A' for Active; 'I' for Inactive)
REMARK    1  A    between atoms: C_2  and  C_21
REMARK    2  A    between atoms: C_7  and  C_8
REMARK    3  A    between atoms: C_14  and  C_15
REMARK                            x       y       z     vdW  Elec       q    Type
REMARK                         _______ _______ _______ _____ _____    ______ ____
ROOT
ATOM      1  O   UNL     1      -0.518  10.246  18.774  0.00  0.00    +0.000 OA
ATOM      2  C   UNL     1      -0.223  10.308  19.962  0.00  0.00    +0.000 C 
ATOM      3  N   UNL     1       0.722   9.529  20.593  0.00  0.00    +0.000 N 
ATOM      4  C   UNL     1       1.461   8.559  19.907  0.00  0.00    +0.000 A 
ATOM      5  C   UNL     1       2.061   8.788  18.675  0.00  0.00    +0.000 A 
ATOM      6  N   UNL     1       2.806   7.850  18.032  0.00  0.00    +0.000 NA
ATOM      7  C   UNL     1       2.857   6.612  18.602  0.00  0.00    +0.000 A 
ATOM      8  C   UNL     1       2.173   6.378  19.817  0.00  0.00    +0.000 A 
ATOM      9  N   UNL     1       1.558   7.370  20.527  0.00  0.00    +0.000 NA
ATOM     10  H   UNL     1       0.562   9.306  21.566  0.00  0.00    +0.000 HD
ENDROOT
BRANCH   2  11
ATOM     11  C   UNL     1      -0.972  11.232  20.851  0.00  0.00    +0.000 A 
ATOM     12  C   UNL     1      -1.815  12.199  20.287  0.00  0.00    +0.000 A 
ATOM     13  C   UNL     1      -2.469  13.116  21.114  0.00  0.00    +0.000 A 
ATOM     14  C   UNL     1      -2.263  13.069  22.488  0.00  0.00    +0.000 A 
ATOM     15  F   UNL     1      -2.871  13.964  23.278  0.00  0.00    +0.000 F 
ATOM     16  C   UNL     1      -1.426  12.114  23.058  0.00  0.00    +0.000 A 
ATOM     17  C   UNL     1      -0.780  11.185  22.239  0.00  0.00    +0.000 A 
ENDBRANCH   2  11
BRANCH   7  18
ATOM     18  C   UNL     1       3.660   5.615  17.853  0.00  0.00    +0.000 A 
ATOM     19  C   UNL     1       4.989   5.844  17.458  0.00  0.00    +0.000 A 
ATOM     20  C   UNL     1       5.707   4.834  16.837  0.00  0.00    +0.000 A 
ATOM     21  N   UNL     1       5.189   3.631  16.524  0.00  0.00    +0.000 NA
ATOM     22  C   UNL     1       3.895   3.435  16.847  0.00  0.00    +0.000 A 
ATOM     23  C   UNL     1       3.108   4.375  17.496  0.00  0.00    +0.000 A 
ENDBRANCH   7  18
BRANCH   8  24
ATOM     24  C   UNL     1       1.915   5.059  20.379  0.00  0.00    +0.000 A 
ATOM     25  C   UNL     1       0.864   4.166  20.307  0.00  0.00    +0.000 A 
ATOM     26  C   UNL     1       1.251   3.021  21.049  0.00  0.00    +0.000 A 
ATOM     27  C   UNL     1       2.523   3.272  21.504  0.00  0.00    +0.000 A 
ATOM     28  O   UNL     1       2.940   4.493  21.089  0.00  0.00    +0.000 OA
ENDBRANCH   8  24
TORSDOF 3
ENDMDL
MODEL 3
REMARK VINA RESULT:      -8.2      0.563      1.197
REMARK  Name = 
REMARK  3 active torsions:
REMARK  status: ('A' for Active; 'I' for Inactive)
REMARK    1  A    between atoms: C_2  and  C_21
REMARK    2  A    between atoms: C_7  and  C_8
REMARK    3  A    between atoms: C_14  and  C_15
REMARK                            x       y       z     vdW  Elec       q    Type
REMARK                         _______ _______ _______ _____ _____    ______ ____
ROOT
ATOM      1  O   UNL     1      -0.457  10.174  18.637  0.00  0.00    +0.000 OA
ATOM      2  C   UNL     1      -0.204  10.248  19.833  0.00  0.00    +0.000 C 
ATOM      3  N   UNL     1       0.736   9.493  20.500  0.00  0.00    +0.000 N 
ATOM      4  C   UNL     1       1.519   8.536  19.845  0.00  0.00    +0.000 A 
ATOM      5  C   UNL     1       2.156   8.772  18.632  0.00  0.00    +0.000 A 
ATOM      6  N   UNL     1       2.942   7.848  18.019  0.00  0.00    +0.000 NA
ATOM      7  C   UNL     1       3.000   6.615  18.597  0.00  0.00    +0.000 A 
ATOM      8  C   UNL     1       2.281   6.371  19.789  0.00  0.00    +0.000 A 
ATOM      9  N   UNL     1       1.621   7.352  20.473  0.00  0.00    +0.000 NA
ATOM     10  H   UNL     1       0.548   9.271  21.468  0.00  0.00    +0.000 HD
ENDROOT
BRANCH   2  11
ATOM     11  C   UNL     1      -1.002  11.159  20.692  0.00  0.00    +0.000 A 
ATOM     12  C   UNL     1      -1.865  12.089  20.095  0.00  0.00    +0.000 A 
ATOM     13  C   UNL     1      -2.567  12.995  20.894  0.00  0.00    +0.000 A 
ATOM     14  C   UNL     1      -2.388  12.976  22.273  0.00  0.00    +0.000 A 
ATOM     15  F   UNL     1      -3.043  13.861  23.036  0.00  0.00    +0.000 F 
ATOM     16  C   UNL     1      -1.532  12.059  22.875  0.00  0.00    +0.000 A 
ATOM     17  C   UNL     1      -0.838  11.140  22.085  0.00  0.00    +0.000 A 
ENDBRANCH   2  11
BRANCH   7  18
ATOM     18  C   UNL     1       3.850   5.632  17.880  0.00  0.00    +0.000 A 
ATOM     19  C   UNL     1       3.352   4.427  17.359  0.00  0.00    +0.000 A 
ATOM     20  C   UNL     1       4.186   3.597  16.625  0.00  0.00    +0.000 A 
ATOM     21  N   UNL     1       5.492   3.843  16.416  0.00  0.00    +0.000 NA
ATOM     22  C   UNL     1       5.984   4.970  16.971  0.00  0.00    +0.000 A 
ATOM     23  C   UNL     1       5.220   5.874  17.695  0.00  0.00    +0.000 A 
ENDBRANCH   7  18
BRANCH   8  24
ATOM     24  C   UNL     1       2.032   5.048  20.349  0.00  0.00    +0.000 A 
ATOM     25  C   UNL     1       2.550   4.335  21.412  0.00  0.00    +0.000 A 
ATOM     26  C   UNL     1       1.843   3.107  21.461  0.00  0.00    +0.000 A 
ATOM     27  C   UNL     1       0.920   3.156  20.446  0.00  0.00    +0.000 A 
ATOM     28  O   UNL     1       1.013   4.334  19.779  0.00  0.00    +0.000 OA
ENDBRANCH   8  24
TORSDOF 3
ENDMDL
MODEL 4
REMARK VINA RESULT:      -8.2      0.539      1.158
REMARK  Name = 
REMARK  3 active torsions:
REMARK  status: ('A' for Active; 'I' for Inactive)
REMARK    1  A    between atoms: C_2  and  C_21
REMARK    2  A    between atoms: C_7  and  C_8
REMARK    3  A    between atoms: C_14  and  C_15
REMARK                            x       y       z     vdW  Elec       q    Type
REMARK                         _______ _______ _______ _____ _____    ______ ____
ROOT
ATOM      1  O   UNL     1      -0.530  10.217  18.757  0.00  0.00    +0.000 OA
ATOM      2  C   UNL     1      -0.242  10.284  19.946  0.00  0.00    +0.000 C 
ATOM      3  N   UNL     1       0.720   9.528  20.580  0.00  0.00    +0.000 N 
ATOM      4  C   UNL     1       1.485   8.577  19.896  0.00  0.00    +0.000 A 
ATOM      5  C   UNL     1       2.085   8.822  18.666  0.00  0.00    +0.000 A 
ATOM      6  N   UNL     1       2.854   7.904  18.024  0.00  0.00    +0.000 NA
ATOM      7  C   UNL     1       2.933   6.667  18.593  0.00  0.00    +0.000 A 
ATOM      8  C   UNL     1       2.251   6.414  19.804  0.00  0.00    +0.000 A 
ATOM      9  N   UNL     1       1.609   7.390  20.514  0.00  0.00    +0.000 NA
ATOM     10  H   UNL     1       0.561   9.299  21.552  0.00  0.00    +0.000 HD
ENDROOT
BRANCH   2  11
ATOM     11  C   UNL     1      -1.017  11.188  20.834  0.00  0.00    +0.000 A 
ATOM     12  C   UNL     1      -0.898  11.055  22.224  0.00  0.00    +0.000 A 
ATOM     13  C   UNL     1      -1.675  11.855  23.066  0.00  0.00    +0.000 A 
ATOM     14  C   UNL     1      -2.573  12.763  22.513  0.00  0.00    +0.000 A 
ATOM     15  F   UNL     1      -3.336  13.511  23.320  0.00  0.00    +0.000 F 
ATOM     16  C   UNL     1      -2.700  12.899  21.134  0.00  0.00    +0.000 A 
ATOM     17  C   UNL     1      -1.916  12.114  20.287  0.00  0.00    +0.000 A 
ENDBRANCH   2  11
BRANCH   7  18
ATOM     18  C   UNL     1       3.764   5.691  17.845  0.00  0.00    +0.000 A 
ATOM     19  C   UNL     1       5.110   5.924  17.519  0.00  0.00    +0.000 A 
ATOM     20  C   UNL     1       5.849   4.931  16.894  0.00  0.00    +0.000 A 
ATOM     21  N   UNL     1       5.340   3.744  16.516  0.00  0.00    +0.000 NA
ATOM     22  C   UNL     1       4.031   3.546  16.774  0.00  0.00    +0.000 A 
ATOM     23  C   UNL     1       3.221   4.469  17.420  0.00  0.00    +0.000 A 
ENDBRANCH   7  18
BRANCH   8  24
ATOM     24  C   UNL     1       2.023   5.088  20.364  0.00  0.00    +0.000 A 
ATOM     25  C   UNL     1       2.577   4.368  21.404  0.00  0.00    +0.000 A 
ATOM     26  C   UNL     1       1.873   3.139  21.469  0.00  0.00    +0.000 A 
ATOM     27  C   UNL     1       0.916   3.193  20.485  0.00  0.00    +0.000 A 
ATOM     28  O   UNL     1       0.985   4.375  19.824  0.00  0.00    +0.000 OA
ENDBRANCH   8  24
TORSDOF 3
ENDMDL
MODEL 5
REMARK VINA RESULT:      -8.1      1.954      2.628
REMARK  Name = 
REMARK  3 active torsions:
REMARK  status: ('A' for Active; 'I' for Inactive)
REMARK    1  A    between atoms: C_2  and  C_21
REMARK    2  A    between atoms: C_7  and  C_8
REMARK    3  A    between atoms: C_14  and  C_15
REMARK                            x       y       z     vdW  Elec       q    Type
REMARK                         _______ _______ _______ _____ _____    ______ ____
ROOT
ATOM      1  O   UNL     1       0.844   9.401  18.311  0.00  0.00    +0.000 OA
ATOM      2  C   UNL     1       1.059   9.063  19.468  0.00  0.00    +0.000 C 
ATOM      3  N   UNL     1       1.976   8.114  19.868  0.00  0.00    +0.000 N 
ATOM      4  C   UNL     1       2.777   7.426  18.950  0.00  0.00    +0.000 A 
ATOM      5  C   UNL     1       3.453   8.050  17.909  0.00  0.00    +0.000 A 
ATOM      6  N   UNL     1       4.256   7.378  17.043  0.00  0.00    +0.000 NA
ATOM      7  C   UNL     1       4.294   6.021  17.170  0.00  0.00    +0.000 A 
ATOM      8  C   UNL     1       3.536   5.398  18.187  0.00  0.00    +0.000 A 
ATOM      9  N   UNL     1       2.856   6.098  19.144  0.00  0.00    +0.000 NA
ATOM     10  H   UNL     1       1.756   7.580  20.697  0.00  0.00    +0.000 HD
ENDROOT
BRANCH   2  11
ATOM     11  C   UNL     1       0.235   9.639  20.561  0.00  0.00    +0.000 A 
ATOM     12  C   UNL     1      -0.377  10.886  20.378  0.00  0.00    +0.000 A 
ATOM     13  C   UNL     1      -1.097  11.466  21.425  0.00  0.00    +0.000 A 
ATOM     14  C   UNL     1      -1.182  10.807  22.647  0.00  0.00    +0.000 A 
ATOM     15  F   UNL     1      -1.851  11.375  23.658  0.00  0.00    +0.000 F 
ATOM     16  C   UNL     1      -0.575   9.570  22.840  0.00  0.00    +0.000 A 
ATOM     17  C   UNL     1       0.133   8.977  21.793  0.00  0.00    +0.000 A 
ENDBRANCH   2  11
BRANCH   7  18
ATOM     18  C   UNL     1       5.164   5.329  16.188  0.00  0.00    +0.000 A 
ATOM     19  C   UNL     1       4.659   4.612  15.091  0.00  0.00    +0.000 A 
ATOM     20  C   UNL     1       5.535   4.063  14.166  0.00  0.00    +0.000 A 
ATOM     21  N   UNL     1       6.874   4.121  14.276  0.00  0.00    +0.000 NA
ATOM     22  C   UNL     1       7.358   4.756  15.363  0.00  0.00    +0.000 A 
ATOM     23  C   UNL     1       6.561   5.361  16.325  0.00  0.00    +0.000 A 
ENDBRANCH   7  18
BRANCH   8  24
ATOM     24  C   UNL     1       3.267   3.967  18.259  0.00  0.00    +0.000 A 
ATOM     25  C   UNL     1       2.374   3.119  17.635  0.00  0.00    +0.000 A 
ATOM     26  C   UNL     1       2.655   1.812  18.109  0.00  0.00    +0.000 A 
ATOM     27  C   UNL     1       3.717   1.938  18.971  0.00  0.00    +0.000 A 
ATOM     28  O   UNL     1       4.107   3.234  19.053  0.00  0.00    +0.000 OA
ENDBRANCH   8  24
TORSDOF 3
ENDMDL
MODEL 6
REMARK VINA RESULT:      -8.1      1.464      1.890
REMARK  Name = 
REMARK  3 active torsions:
REMARK  status: ('A' for Active; 'I' for Inactive)
REMARK    1  A    between atoms: C_2  and  C_21
REMARK    2  A    between atoms: C_7  and  C_8
REMARK    3  A    between atoms: C_14  and  C_15
REMARK                            x       y       z     vdW  Elec       q    Type
REMARK                         _______ _______ _______ _____ _____    ______ ____
ROOT
ATOM      1  O   UNL     1       0.425   9.867  18.521  0.00  0.00    +0.000 OA
ATOM      2  C   UNL     1       0.582   9.582  19.702  0.00  0.00    +0.000 C 
ATOM      3  N   UNL     1       1.427   8.607  20.184  0.00  0.00    +0.000 N 
ATOM      4  C   UNL     1       2.216   7.824  19.334  0.00  0.00    +0.000 A 
ATOM      5  C   UNL     1       2.961   8.350  18.285  0.00  0.00    +0.000 A 
ATOM      6  N   UNL     1       3.751   7.586  17.485  0.00  0.00    +0.000 NA
ATOM      7  C   UNL     1       3.704   6.238  17.687  0.00  0.00    +0.000 A 
ATOM      8  C   UNL     1       2.879   5.716  18.708  0.00  0.00    +0.000 A 
ATOM      9  N   UNL     1       2.211   6.507  19.601  0.00  0.00    +0.000 NA
ATOM     10  H   UNL     1       1.150   8.133  21.032  0.00  0.00    +0.000 HD
ENDROOT
BRANCH   2  11
ATOM     11  C   UNL     1      -0.242  10.265  20.732  0.00  0.00    +0.000 A 
ATOM     12  C   UNL     1      -0.964  11.415  20.385  0.00  0.00    +0.000 A 
ATOM     13  C   UNL     1      -1.685  12.102  21.365  0.00  0.00    +0.000 A 
ATOM     14  C   UNL     1      -1.665  11.645  22.678  0.00  0.00    +0.000 A 
ATOM     15  F   UNL     1      -2.337  12.319  23.622  0.00  0.00    +0.000 F 
ATOM     16  C   UNL     1      -0.949  10.506  23.033  0.00  0.00    +0.000 A 
ATOM     17  C   UNL     1      -0.237   9.806  22.057  0.00  0.00    +0.000 A 
ENDBRANCH   2  11
BRANCH   7  18
ATOM     18  C   UNL     1       4.564   5.443  16.775  0.00  0.00    +0.000 A 
ATOM     19  C   UNL     1       4.871   4.091  16.999  0.00  0.00    +0.000 A 
ATOM     20  C   UNL     1       5.609   3.388  16.059  0.00  0.00    +0.000 A 
ATOM     21  N   UNL     1       6.116   3.938  14.940  0.00  0.00    +0.000 NA
ATOM     22  C   UNL     1       5.873   5.252  14.758  0.00  0.00    +0.000 A 
ATOM     23  C   UNL     1       5.121   6.028  15.627  0.00  0.00    +0.000 A 
ENDBRANCH   7  18
BRANCH   8  24
ATOM     24  C   UNL     1       2.524   4.310  18.847  0.00  0.00    +0.000 A 
ATOM     25  C   UNL     1       1.667   3.458  18.178  0.00  0.00    +0.000 A 
ATOM     26  C   UNL     1       1.814   2.180  18.775  0.00  0.00    +0.000 A 
ATOM     27  C   UNL     1       2.770   2.323  19.752  0.00  0.00    +0.000 A 
ATOM     28  O   UNL     1       3.219   3.602  19.791  0.00  0.00    +0.000 OA
ENDBRANCH   8  24
TORSDOF 3
ENDMDL
MODEL 7
REMARK VINA RESULT:      -7.8      3.714      9.101
REMARK  Name = 
REMARK  3 active torsions:
REMARK  status: ('A' for Active; 'I' for Inactive)
REMARK    1  A    between atoms: C_2  and  C_21
REMARK    2  A    between atoms: C_7  and  C_8
REMARK    3  A    between atoms: C_14  and  C_15
REMARK                            x       y       z     vdW  Elec       q    Type
REMARK                         _______ _______ _______ _____ _____    ______ ____
ROOT
ATOM      1  O   UNL     1       2.433   6.621  19.691  0.00  0.00    +0.000 OA
ATOM      2  C   UNL     1       2.756   7.028  18.582  0.00  0.00    +0.000 C 
ATOM      3  N   UNL     1       2.315   8.197  17.999  0.00  0.00    +0.000 N 
ATOM      4  C   UNL     1       1.423   9.058  18.647  0.00  0.00    +0.000 A 
ATOM      5  C   UNL     1       1.562   9.441  19.976  0.00  0.00    +0.000 A 
ATOM      6  N   UNL     1       0.710  10.304  20.588  0.00  0.00    +0.000 NA
ATOM      7  C   UNL     1      -0.374  10.709  19.866  0.00  0.00    +0.000 A 
ATOM      8  C   UNL     1      -0.540  10.245  18.542  0.00  0.00    +0.000 A 
ATOM      9  N   UNL     1       0.404   9.501  17.891  0.00  0.00    +0.000 NA
ATOM     10  H   UNL     1       2.230   8.207  16.992  0.00  0.00    +0.000 HD
ENDROOT
BRANCH   2  11
ATOM     11  C   UNL     1       3.636   6.192  17.726  0.00  0.00    +0.000 A 
ATOM     12  C   UNL     1       4.555   6.813  16.869  0.00  0.00    +0.000 A 
ATOM     13  C   UNL     1       5.337   6.036  16.011  0.00  0.00    +0.000 A 
ATOM     14  C   UNL     1       5.182   4.654  16.004  0.00  0.00    +0.000 A 
ATOM     15  F   UNL     1       5.915   3.912  15.164  0.00  0.00    +0.000 F 
ATOM     16  C   UNL     1       4.270   4.029  16.848  0.00  0.00    +0.000 A 
ATOM     17  C   UNL     1       3.495   4.797  17.720  0.00  0.00    +0.000 A 
ENDBRANCH   2  11
BRANCH   7  18
ATOM     18  C   UNL     1      -1.289  11.631  20.584  0.00  0.00    +0.000 A 
ATOM     19  C   UNL     1      -1.944  12.702  19.953  0.00  0.00    +0.000 A 
ATOM     20  C   UNL     1      -2.852  13.469  20.667  0.00  0.00    +0.000 A 
ATOM     21  N   UNL     1      -3.118  13.292  21.974  0.00  0.00    +0.000 NA
ATOM     22  C   UNL     1      -2.441  12.303  22.594  0.00  0.00    +0.000 A 
ATOM     23  C   UNL     1      -1.537  11.467  21.955  0.00  0.00    +0.000 A 
ENDBRANCH   7  18
BRANCH   8  24
ATOM     24  C   UNL     1      -1.770  10.369  17.770  0.00  0.00    +0.000 A 
ATOM     25  C   UNL     1      -3.009   9.763  17.821  0.00  0.00    +0.000 A 
ATOM     26  C   UNL     1      -3.800  10.367  16.811  0.00  0.00    +0.000 A 
ATOM     27  C   UNL     1      -3.006  11.322  16.224  0.00  0.00    +0.000 A 
ATOM     28  O   UNL     1      -1.783  11.345  16.809  0.00  0.00    +0.000 OA
ENDBRANCH   8  24
TORSDOF 3
ENDMDL
MODEL 8
REMARK VINA RESULT:      -7.7      3.492      9.015
REMARK  Name = 
REMARK  3 active torsions:
REMARK  status: ('A' for Active; 'I' for Inactive)
REMARK    1  A    between atoms: C_2  and  C_21
REMARK    2  A    between atoms: C_7  and  C_8
REMARK    3  A    between atoms: C_14  and  C_15
REMARK                            x       y       z     vdW  Elec       q    Type
REMARK                         _______ _______ _______ _____ _____    ______ ____
ROOT
ATOM      1  O   UNL     1       1.739   5.967  20.951  0.00  0.00    +0.000 OA
ATOM      2  C   UNL     1       2.273   6.402  19.938  0.00  0.00    +0.000 C 
ATOM      3  N   UNL     1       2.192   7.701  19.485  0.00  0.00    +0.000 N 
ATOM      4  C   UNL     1       1.463   8.680  20.170  0.00  0.00    +0.000 A 
ATOM      5  C   UNL     1       1.539   8.865  21.545  0.00  0.00    +0.000 A 
ATOM      6  N   UNL     1       0.853   9.841  22.197  0.00  0.00    +0.000 NA
ATOM      7  C   UNL     1      -0.014  10.582  21.450  0.00  0.00    +0.000 A 
ATOM      8  C   UNL     1      -0.135  10.325  20.066  0.00  0.00    +0.000 A 
ATOM      9  N   UNL     1       0.671   9.446  19.400  0.00  0.00    +0.000 NA
ATOM     10  H   UNL     1       2.226   7.844  18.485  0.00  0.00    +0.000 HD
ENDROOT
BRANCH   2  11
ATOM     11  C   UNL     1       3.019   5.473  19.052  0.00  0.00    +0.000 A 
ATOM     12  C   UNL     1       4.420   5.508  19.040  0.00  0.00    +0.000 A 
ATOM     13  C   UNL     1       5.127   4.686  18.160  0.00  0.00    +0.000 A 
ATOM     14  C   UNL     1       4.431   3.853  17.290  0.00  0.00    +0.000 A 
ATOM     15  F   UNL     1       5.109   3.084  16.428  0.00  0.00    +0.000 F 
ATOM     16  C   UNL     1       3.040   3.814  17.291  0.00  0.00    +0.000 A 
ATOM     17  C   UNL     1       2.327   4.622  18.179  0.00  0.00    +0.000 A 
ENDBRANCH   2  11
BRANCH   7  18
ATOM     18  C   UNL     1      -0.758  11.618  22.208  0.00  0.00    +0.000 A 
ATOM     19  C   UNL     1      -0.394  12.975  22.208  0.00  0.00    +0.000 A 
ATOM     20  C   UNL     1      -1.187  13.901  22.870  0.00  0.00    +0.000 A 
ATOM     21  N   UNL     1      -2.283  13.576  23.581  0.00  0.00    +0.000 NA
ATOM     22  C   UNL     1      -2.596  12.265  23.632  0.00  0.00    +0.000 A 
ATOM     23  C   UNL     1      -1.880  11.273  22.978  0.00  0.00    +0.000 A 
ENDBRANCH   7  18
BRANCH   8  24
ATOM     24  C   UNL     1      -1.205  10.839  19.219  0.00  0.00    +0.000 A 
ATOM     25  C   UNL     1      -1.635  12.103  18.866  0.00  0.00    +0.000 A 
ATOM     26  C   UNL     1      -2.711  11.927  17.958  0.00  0.00    +0.000 A 
ATOM     27  C   UNL     1      -2.853  10.571  17.792  0.00  0.00    +0.000 A 
ATOM     28  O   UNL     1      -1.935   9.905  18.535  0.00  0.00    +0.000 OA
ENDBRANCH   8  24
TORSDOF 3
ENDMDL
MODEL 9
REMARK VINA RESULT:      -7.7      1.185      1.647
REMARK  Name = 
REMARK  3 active torsions:
REMARK  status: ('A' for Active; 'I' for Inactive)
REMARK    1  A    between atoms: C_2  and  C_21
REMARK    2  A    between atoms: C_7  and  C_8
REMARK    3  A    between atoms: C_14  and  C_15
REMARK                            x       y       z     vdW  Elec       q    Type
REMARK                         _______ _______ _______ _____ _____    ______ ____
ROOT
ATOM      1  O   UNL     1       0.294   9.870  17.805  0.00  0.00    +0.000 OA
ATOM      2  C   UNL     1       0.362   9.821  19.028  0.00  0.00    +0.000 C 
ATOM      3  N   UNL     1       1.209   9.008  19.749  0.00  0.00    +0.000 N 
ATOM      4  C   UNL     1       2.104   8.131  19.126  0.00  0.00    +0.000 A 
ATOM      5  C   UNL     1       2.910   8.497  18.055  0.00  0.00    +0.000 A 
ATOM      6  N   UNL     1       3.800   7.648  17.478  0.00  0.00    +0.000 NA
ATOM      7  C   UNL     1       3.800   6.362  17.929  0.00  0.00    +0.000 A 
ATOM      8  C   UNL     1       2.916   5.989  18.967  0.00  0.00    +0.000 A 
ATOM      9  N   UNL     1       2.138   6.889  19.639  0.00  0.00    +0.000 NA
ATOM     10  H   UNL     1       0.883   8.685  20.649  0.00  0.00    +0.000 HD
ENDROOT
BRANCH   2  11
ATOM     11  C   UNL     1      -0.578  10.631  19.843  0.00  0.00    +0.000 A 
ATOM     12  C   UNL     1      -1.558  11.401  19.203  0.00  0.00    +0.000 A 
ATOM     13  C   UNL     1      -2.401  12.219  19.960  0.00  0.00    +0.000 A 
ATOM     14  C   UNL     1      -2.246  12.273  21.341  0.00  0.00    +0.000 A 
ATOM     15  F   UNL     1      -3.038  13.076  22.063  0.00  0.00    +0.000 F 
ATOM     16  C   UNL     1      -1.273  11.515  21.985  0.00  0.00    +0.000 A 
ATOM     17  C   UNL     1      -0.437  10.684  21.237  0.00  0.00    +0.000 A 
ENDBRANCH   2  11
BRANCH   7  18
ATOM     18  C   UNL     1       4.771   5.466  17.253  0.00  0.00    +0.000 A 
ATOM     19  C   UNL     1       4.443   4.693  16.128  0.00  0.00    +0.000 A 
ATOM     20  C   UNL     1       5.425   3.945  15.496  0.00  0.00    +0.000 A 
ATOM     21  N   UNL     1       6.696   3.859  15.929  0.00  0.00    +0.000 NA
ATOM     22  C   UNL     1       6.995   4.554  17.046  0.00  0.00    +0.000 A 
ATOM     23  C   UNL     1       6.087   5.351  17.728  0.00  0.00    +0.000 A 
ENDBRANCH   7  18
BRANCH   8  24
ATOM     24  C   UNL     1       2.617   4.614  19.345  0.00  0.00    +0.000 A 
ATOM     25  C   UNL     1       1.695   3.675  18.928  0.00  0.00    +0.000 A 
ATOM     26  C   UNL     1       1.955   2.492  19.666  0.00  0.00    +0.000 A 
ATOM     27  C   UNL     1       3.036   2.772  20.467  0.00  0.00    +0.000 A 
ATOM     28  O   UNL     1       3.456   4.045  20.266  0.00  0.00    +0.000 OA
ENDBRANCH   8  24
TORSDOF 3
ENDMDL
