MODEL 1
REMARK VINA RESULT:      -6.8      0.000      0.000
REMARK  Name = 
REMARK  16 active torsions:
REMARK  status: ('A' for Active; 'I' for Inactive)
REMARK    1  A    between atoms: C_1  and  O_2
REMARK    2  A    between atoms: O_2  and  C_3
REMARK    3  A    between atoms: C_6  and  N_7
REMARK    4  A    between atoms: N_7  and  C_8
REMARK    5  A    between atoms: C_8  and  N_10
REMARK    6  A    between atoms: N_10  and  C_11
REMARK    7  A    between atoms: C_11  and  C_12
REMARK    8  A    between atoms: C_12  and  C_13
REMARK    9  A    between atoms: C_13  and  N_14
REMARK   10  A    between atoms: C_18  and  C_19
REMARK   11  A    between atoms: C_21  and  O_22
REMARK   12  A    between atoms: O_22  and  C_23
REMARK   13  A    between atoms: C_23  and  C_24
REMARK   14  A    between atoms: C_24  and  C_25
REMARK   15  A    between atoms: C_25  and  C_26
REMARK   16  A    between atoms: C_26  and  N_27
REMARK                            x       y       z     vdW  Elec       q    Type
REMARK                         _______ _______ _______ _____ _____    ______ ____
ROOT
ATOM      1  C   UNL     1       7.159   6.368  17.364  0.00  0.00    +0.000 A 
ATOM      2  C   UNL     1       7.073   6.025  18.718  0.00  0.00    +0.000 A 
ATOM      3  C   UNL     1       6.255   4.991  19.147  0.00  0.00    +0.000 A 
ATOM      4  C   UNL     1       5.532   4.233  18.235  0.00  0.00    +0.000 A 
ATOM      5  C   UNL     1       5.670   4.499  16.868  0.00  0.00    +0.000 A 
ATOM      6  C   UNL     1       6.469   5.570  16.427  0.00  0.00    +0.000 A 
ENDROOT
BRANCH   1   8
ATOM      7  C   UNL     1       7.984   8.616  17.724  0.00  0.00    +0.000 C 
ATOM      8  O   UNL     1       7.895   7.436  16.929  0.00  0.00    +0.000 OA
ENDBRANCH   1   8
BRANCH   4   9
ATOM      9  N   UNL     1       4.740   3.159  18.671  0.00  0.00    +0.000 N 
ATOM     10  H   UNL     1       5.160   2.238  18.606  0.00  0.00    +0.000 HD
BRANCH   9  11
ATOM     11  C   UNL     1       3.350   3.136  18.776  0.00  0.00    +0.000 C 
ATOM     12  S   UNL     1       2.361   1.804  18.530  0.00  0.00    +0.000 S 
BRANCH  11  13
ATOM     13  N   UNL     1       2.902   4.364  19.223  0.00  0.00    +0.000 N 
ATOM     14  H   UNL     1       3.337   5.162  18.778  0.00  0.00    +0.000 HD
BRANCH  13  15
ATOM     15  C   UNL     1       1.667   4.609  19.963  0.00  0.00    +0.000 C 
BRANCH  15  16
ATOM     16  C   UNL     1       1.752   5.917  20.749  0.00  0.00    +0.000 C 
BRANCH  16  17
ATOM     17  C   UNL     1       2.224   7.056  19.850  0.00  0.00    +0.000 C 
BRANCH  17  18
ATOM     18  N   UNL     1       1.580   8.311  20.163  0.00  0.00    +0.000 N 
ATOM     19  C   UNL     1       1.098   8.651  21.396  0.00  0.00    +0.000 A 
ATOM     20  N   UNL     1       0.546   9.839  21.384  0.00  0.00    +0.000 NA
ATOM     21  C   UNL     1       0.668  10.281  20.089  0.00  0.00    +0.000 A 
ATOM     22  C   UNL     1       1.301   9.345  19.299  0.00  0.00    +0.000 A 
ATOM     23  C   UNL     1       1.647   9.362  17.859  0.00  0.00    +0.000 C 
ENDBRANCH  17  18
ENDBRANCH  16  17
ENDBRANCH  15  16
ENDBRANCH  13  15
ENDBRANCH  11  13
ENDBRANCH   9  11
ENDBRANCH   4   9
BRANCH   6  24
ATOM     24  O   UNL     1       6.406   5.751  15.056  0.00  0.00    +0.000 OA
BRANCH  24  25
ATOM     25  C   UNL     1       6.735   4.606  14.271  0.00  0.00    +0.000 C 
BRANCH  25  26
ATOM     26  C   UNL     1       7.469   5.006  12.986  0.00  0.00    +0.000 C 
BRANCH  26  27
ATOM     27  C   UNL     1       7.119   3.990  11.899  0.00  0.00    +0.000 C 
BRANCH  27  28
ATOM     28  C   UNL     1       5.855   3.185  12.175  0.00  0.00    +0.000 C 
BRANCH  28  29
ATOM     29  N   UNL     1       6.040   1.829  11.663  0.00  0.00    +0.000 NA
ATOM     30  H   UNL     1       6.429   1.867  10.720  0.00  0.00    +0.000 HD
ATOM     31  H   UNL     1       5.137   1.368  11.581  0.00  0.00    +0.000 HD
ENDBRANCH  28  29
ENDBRANCH  27  28
ENDBRANCH  26  27
ENDBRANCH  25  26
ENDBRANCH  24  25
ENDBRANCH   6  24
TORSDOF 14
ENDMDL
MODEL 2
REMARK VINA RESULT:      -6.6      1.221      1.694
REMARK  Name = 
REMARK  16 active torsions:
REMARK  status: ('A' for Active; 'I' for Inactive)
REMARK    1  A    between atoms: C_1  and  O_2
REMARK    2  A    between atoms: O_2  and  C_3
REMARK    3  A    between atoms: C_6  and  N_7
REMARK    4  A    between atoms: N_7  and  C_8
REMARK    5  A    between atoms: C_8  and  N_10
REMARK    6  A    between atoms: N_10  and  C_11
REMARK    7  A    between atoms: C_11  and  C_12
REMARK    8  A    between atoms: C_12  and  C_13
REMARK    9  A    between atoms: C_13  and  N_14
REMARK   10  A    between atoms: C_18  and  C_19
REMARK   11  A    between atoms: C_21  and  O_22
REMARK   12  A    between atoms: O_22  and  C_23
REMARK   13  A    between atoms: C_23  and  C_24
REMARK   14  A    between atoms: C_24  and  C_25
REMARK   15  A    between atoms: C_25  and  C_26
REMARK   16  A    between atoms: C_26  and  N_27
REMARK                            x       y       z     vdW  Elec       q    Type
REMARK                         _______ _______ _______ _____ _____    ______ ____
ROOT
ATOM      1  C   UNL     1       6.581   5.717  17.248  0.00  0.00    +0.000 A 
ATOM      2  C   UNL     1       6.306   5.515  18.606  0.00  0.00    +0.000 A 
ATOM      3  C   UNL     1       5.283   4.674  19.014  0.00  0.00    +0.000 A 
ATOM      4  C   UNL     1       4.531   3.967  18.085  0.00  0.00    +0.000 A 
ATOM      5  C   UNL     1       4.845   4.084  16.726  0.00  0.00    +0.000 A 
ATOM      6  C   UNL     1       5.856   4.964  16.301  0.00  0.00    +0.000 A 
ENDROOT
BRANCH   1   8
ATOM      7  C   UNL     1       7.670   7.869  17.468  0.00  0.00    +0.000 C 
ATOM      8  O   UNL     1       7.530   6.605  16.823  0.00  0.00    +0.000 OA
ENDBRANCH   1   8
BRANCH   4   9
ATOM      9  N   UNL     1       3.525   3.083  18.507  0.00  0.00    +0.000 N 
ATOM     10  H   UNL     1       3.112   2.500  17.788  0.00  0.00    +0.000 HD
BRANCH   9  11
ATOM     11  C   UNL     1       2.744   3.195  19.656  0.00  0.00    +0.000 C 
ATOM     12  S   UNL     1       3.037   2.446  21.128  0.00  0.00    +0.000 S 
BRANCH  11  13
ATOM     13  N   UNL     1       1.733   4.111  19.439  0.00  0.00    +0.000 N 
ATOM     14  H   UNL     1       1.119   3.889  18.665  0.00  0.00    +0.000 HD
BRANCH  13  15
ATOM     15  C   UNL     1       1.264   5.113  20.391  0.00  0.00    +0.000 C 
BRANCH  15  16
ATOM     16  C   UNL     1       2.266   6.260  20.514  0.00  0.00    +0.000 C 
BRANCH  16  17
ATOM     17  C   UNL     1       1.542   7.591  20.697  0.00  0.00    +0.000 C 
BRANCH  17  18
ATOM     18  N   UNL     1       1.615   8.426  19.521  0.00  0.00    +0.000 N 
ATOM     19  C   UNL     1       2.322   8.119  18.392  0.00  0.00    +0.000 A 
ATOM     20  N   UNL     1       2.227   9.068  17.493  0.00  0.00    +0.000 NA
ATOM     21  C   UNL     1       1.433  10.031  18.068  0.00  0.00    +0.000 A 
ATOM     22  C   UNL     1       1.043   9.664  19.338  0.00  0.00    +0.000 A 
ATOM     23  C   UNL     1       0.206  10.366  20.338  0.00  0.00    +0.000 C 
ENDBRANCH  17  18
ENDBRANCH  16  17
ENDBRANCH  15  16
ENDBRANCH  13  15
ENDBRANCH  11  13
ENDBRANCH   9  11
ENDBRANCH   4   9
BRANCH   6  24
ATOM     24  O   UNL     1       5.958   5.030  14.921  0.00  0.00    +0.000 OA
BRANCH  24  25
ATOM     25  C   UNL     1       5.781   3.792  14.234  0.00  0.00    +0.000 C 
BRANCH  25  26
ATOM     26  C   UNL     1       6.443   3.826  12.852  0.00  0.00    +0.000 C 
BRANCH  26  27
ATOM     27  C   UNL     1       5.481   3.197  11.845  0.00  0.00    +0.000 C 
BRANCH  27  28
ATOM     28  C   UNL     1       5.810   1.754  11.478  0.00  0.00    +0.000 C 
BRANCH  28  29
ATOM     29  N   UNL     1       7.251   1.640  11.267  0.00  0.00    +0.000 NA
ATOM     30  H   UNL     1       7.696   1.283  12.113  0.00  0.00    +0.000 HD
ATOM     31  H   UNL     1       7.648   2.562  11.104  0.00  0.00    +0.000 HD
ENDBRANCH  28  29
ENDBRANCH  27  28
ENDBRANCH  26  27
ENDBRANCH  25  26
ENDBRANCH  24  25
ENDBRANCH   6  24
TORSDOF 14
ENDMDL
MODEL 3
REMARK VINA RESULT:      -6.3      0.946      1.013
REMARK  Name = 
REMARK  16 active torsions:
REMARK  status: ('A' for Active; 'I' for Inactive)
REMARK    1  A    between atoms: C_1  and  O_2
REMARK    2  A    between atoms: O_2  and  C_3
REMARK    3  A    between atoms: C_6  and  N_7
REMARK    4  A    between atoms: N_7  and  C_8
REMARK    5  A    between atoms: C_8  and  N_10
REMARK    6  A    between atoms: N_10  and  C_11
REMARK    7  A    between atoms: C_11  and  C_12
REMARK    8  A    between atoms: C_12  and  C_13
REMARK    9  A    between atoms: C_13  and  N_14
REMARK   10  A    between atoms: C_18  and  C_19
REMARK   11  A    between atoms: C_21  and  O_22
REMARK   12  A    between atoms: O_22  and  C_23
REMARK   13  A    between atoms: C_23  and  C_24
REMARK   14  A    between atoms: C_24  and  C_25
REMARK   15  A    between atoms: C_25  and  C_26
REMARK   16  A    between atoms: C_26  and  N_27
REMARK                            x       y       z     vdW  Elec       q    Type
REMARK                         _______ _______ _______ _____ _____    ______ ____
ROOT
ATOM      1  C   UNL     1       7.144   6.570  17.452  0.00  0.00    +0.000 A 
ATOM      2  C   UNL     1       7.347   6.152  18.773  0.00  0.00    +0.000 A 
ATOM      3  C   UNL     1       6.646   5.079  19.302  0.00  0.00    +0.000 A 
ATOM      4  C   UNL     1       5.756   4.356  18.519  0.00  0.00    +0.000 A 
ATOM      5  C   UNL     1       5.602   4.700  17.172  0.00  0.00    +0.000 A 
ATOM      6  C   UNL     1       6.280   5.809  16.636  0.00  0.00    +0.000 A 
ENDROOT
BRANCH   1   8
ATOM      7  C   UNL     1       7.949   8.835  17.744  0.00  0.00    +0.000 C 
ATOM      8  O   UNL     1       7.762   7.675  16.937  0.00  0.00    +0.000 OA
ENDBRANCH   1   8
BRANCH   4   9
ATOM      9  N   UNL     1       5.083   3.243  19.048  0.00  0.00    +0.000 N 
ATOM     10  H   UNL     1       5.463   2.335  18.807  0.00  0.00    +0.000 HD
BRANCH   9  11
ATOM     11  C   UNL     1       3.761   3.200  19.491  0.00  0.00    +0.000 C 
ATOM     12  S   UNL     1       3.237   2.665  20.991  0.00  0.00    +0.000 S 
BRANCH  11  13
ATOM     13  N   UNL     1       2.938   3.769  18.538  0.00  0.00    +0.000 N 
ATOM     14  H   UNL     1       2.726   3.172  17.749  0.00  0.00    +0.000 HD
BRANCH  13  15
ATOM     15  C   UNL     1       2.091   4.943  18.727  0.00  0.00    +0.000 C 
BRANCH  15  16
ATOM     16  C   UNL     1       2.851   6.054  19.451  0.00  0.00    +0.000 C 
BRANCH  16  17
ATOM     17  C   UNL     1       2.503   7.418  18.863  0.00  0.00    +0.000 C 
BRANCH  17  18
ATOM     18  N   UNL     1       1.688   8.213  19.752  0.00  0.00    +0.000 N 
ATOM     19  C   UNL     1       1.330   7.841  21.018  0.00  0.00    +0.000 A 
ATOM     20  N   UNL     1       0.572   8.745  21.587  0.00  0.00    +0.000 NA
ATOM     21  C   UNL     1       0.427   9.738  20.648  0.00  0.00    +0.000 A 
ATOM     22  C   UNL     1       1.105   9.430  19.488  0.00  0.00    +0.000 A 
ATOM     23  C   UNL     1       1.236  10.172  18.213  0.00  0.00    +0.000 C 
ENDBRANCH  17  18
ENDBRANCH  16  17
ENDBRANCH  15  16
ENDBRANCH  13  15
ENDBRANCH  11  13
ENDBRANCH   9  11
ENDBRANCH   4   9
BRANCH   6  24
ATOM     24  O   UNL     1       5.930   6.064  15.321  0.00  0.00    +0.000 OA
BRANCH  24  25
ATOM     25  C   UNL     1       5.464   4.936  14.582  0.00  0.00    +0.000 C 
BRANCH  25  26
ATOM     26  C   UNL     1       6.632   4.076  14.085  0.00  0.00    +0.000 C 
BRANCH  26  27
ATOM     27  C   UNL     1       6.887   4.417  12.618  0.00  0.00    +0.000 C 
BRANCH  27  28
ATOM     28  C   UNL     1       6.967   3.206  11.696  0.00  0.00    +0.000 C 
BRANCH  28  29
ATOM     29  N   UNL     1       5.881   2.288  12.031  0.00  0.00    +0.000 NA
ATOM     30  H   UNL     1       5.012   2.613  11.608  0.00  0.00    +0.000 HD
ATOM     31  H   UNL     1       5.728   2.291  13.037  0.00  0.00    +0.000 HD
ENDBRANCH  28  29
ENDBRANCH  27  28
ENDBRANCH  26  27
ENDBRANCH  25  26
ENDBRANCH  24  25
ENDBRANCH   6  24
TORSDOF 14
ENDMDL
MODEL 4
REMARK VINA RESULT:      -6.2      3.193      8.681
REMARK  Name = 
REMARK  16 active torsions:
REMARK  status: ('A' for Active; 'I' for Inactive)
REMARK    1  A    between atoms: C_1  and  O_2
REMARK    2  A    between atoms: O_2  and  C_3
REMARK    3  A    between atoms: C_6  and  N_7
REMARK    4  A    between atoms: N_7  and  C_8
REMARK    5  A    between atoms: C_8  and  N_10
REMARK    6  A    between atoms: N_10  and  C_11
REMARK    7  A    between atoms: C_11  and  C_12
REMARK    8  A    between atoms: C_12  and  C_13
REMARK    9  A    between atoms: C_13  and  N_14
REMARK   10  A    between atoms: C_18  and  C_19
REMARK   11  A    between atoms: C_21  and  O_22
REMARK   12  A    between atoms: O_22  and  C_23
REMARK   13  A    between atoms: C_23  and  C_24
REMARK   14  A    between atoms: C_24  and  C_25
REMARK   15  A    between atoms: C_25  and  C_26
REMARK   16  A    between atoms: C_26  and  N_27
REMARK                            x       y       z     vdW  Elec       q    Type
REMARK                         _______ _______ _______ _____ _____    ______ ____
ROOT
ATOM      1  C   UNL     1       1.379   9.348  18.865  0.00  0.00    +0.000 A 
ATOM      2  C   UNL     1       2.299   8.514  18.219  0.00  0.00    +0.000 A 
ATOM      3  C   UNL     1       2.718   7.324  18.793  0.00  0.00    +0.000 A 
ATOM      4  C   UNL     1       2.196   6.901  20.009  0.00  0.00    +0.000 A 
ATOM      5  C   UNL     1       1.210   7.673  20.632  0.00  0.00    +0.000 A 
ATOM      6  C   UNL     1       0.807   8.900  20.075  0.00  0.00    +0.000 A 
ENDROOT
BRANCH   1   8
ATOM      7  C   UNL     1       1.917  11.667  18.423  0.00  0.00    +0.000 C 
ATOM      8  O   UNL     1       1.016  10.564  18.356  0.00  0.00    +0.000 OA
ENDBRANCH   1   8
BRANCH   4   9
ATOM      9  N   UNL     1       2.591   5.673  20.564  0.00  0.00    +0.000 N 
ATOM     10  H   UNL     1       3.547   5.620  20.898  0.00  0.00    +0.000 HD
BRANCH   9  11
ATOM     11  C   UNL     1       2.006   4.428  20.337  0.00  0.00    +0.000 C 
ATOM     12  S   UNL     1       1.915   3.162  21.433  0.00  0.00    +0.000 S 
BRANCH  11  13
ATOM     13  N   UNL     1       1.407   4.421  19.092  0.00  0.00    +0.000 N 
ATOM     14  H   UNL     1       0.861   5.246  18.878  0.00  0.00    +0.000 HD
BRANCH  13  15
ATOM     15  C   UNL     1       1.768   3.557  17.971  0.00  0.00    +0.000 C 
BRANCH  15  16
ATOM     16  C   UNL     1       3.284   3.374  17.890  0.00  0.00    +0.000 C 
BRANCH  16  17
ATOM     17  C   UNL     1       3.938   4.585  17.231  0.00  0.00    +0.000 C 
BRANCH  17  18
ATOM     18  N   UNL     1       5.360   4.648  17.478  0.00  0.00    +0.000 N 
ATOM     19  C   UNL     1       5.927   5.039  18.659  0.00  0.00    +0.000 A 
ATOM     20  N   UNL     1       7.235   5.020  18.592  0.00  0.00    +0.000 NA
ATOM     21  C   UNL     1       7.526   4.609  17.314  0.00  0.00    +0.000 A 
ATOM     22  C   UNL     1       6.376   4.378  16.590  0.00  0.00    +0.000 A 
ATOM     23  C   UNL     1       6.181   3.938  15.190  0.00  0.00    +0.000 C 
ENDBRANCH  17  18
ENDBRANCH  16  17
ENDBRANCH  15  16
ENDBRANCH  13  15
ENDBRANCH  11  13
ENDBRANCH   9  11
ENDBRANCH   4   9
BRANCH   6  24
ATOM     24  O   UNL     1      -0.097   9.577  20.876  0.00  0.00    +0.000 OA
BRANCH  24  25
ATOM     25  C   UNL     1       0.362   9.889  22.190  0.00  0.00    +0.000 C 
BRANCH  25  26
ATOM     26  C   UNL     1      -0.800  10.304  23.100  0.00  0.00    +0.000 C 
BRANCH  26  27
ATOM     27  C   UNL     1      -1.082  11.789  22.870  0.00  0.00    +0.000 C 
BRANCH  27  28
ATOM     28  C   UNL     1      -2.562  12.142  22.791  0.00  0.00    +0.000 C 
BRANCH  28  29
ATOM     29  N   UNL     1      -2.858  13.155  23.802  0.00  0.00    +0.000 NA
ATOM     30  H   UNL     1      -3.850  13.128  24.037  0.00  0.00    +0.000 HD
ATOM     31  H   UNL     1      -2.680  14.082  23.420  0.00  0.00    +0.000 HD
ENDBRANCH  28  29
ENDBRANCH  27  28
ENDBRANCH  26  27
ENDBRANCH  25  26
ENDBRANCH  24  25
ENDBRANCH   6  24
TORSDOF 14
ENDMDL
MODEL 5
REMARK VINA RESULT:      -6.1      1.299      1.767
REMARK  Name = 
REMARK  16 active torsions:
REMARK  status: ('A' for Active; 'I' for Inactive)
REMARK    1  A    between atoms: C_1  and  O_2
REMARK    2  A    between atoms: O_2  and  C_3
REMARK    3  A    between atoms: C_6  and  N_7
REMARK    4  A    between atoms: N_7  and  C_8
REMARK    5  A    between atoms: C_8  and  N_10
REMARK    6  A    between atoms: N_10  and  C_11
REMARK    7  A    between atoms: C_11  and  C_12
REMARK    8  A    between atoms: C_12  and  C_13
REMARK    9  A    between atoms: C_13  and  N_14
REMARK   10  A    between atoms: C_18  and  C_19
REMARK   11  A    between atoms: C_21  and  O_22
REMARK   12  A    between atoms: O_22  and  C_23
REMARK   13  A    between atoms: C_23  and  C_24
REMARK   14  A    between atoms: C_24  and  C_25
REMARK   15  A    between atoms: C_25  and  C_26
REMARK   16  A    between atoms: C_26  and  N_27
REMARK                            x       y       z     vdW  Elec       q    Type
REMARK                         _______ _______ _______ _____ _____    ______ ____
ROOT
ATOM      1  C   UNL     1       7.080   6.410  17.297  0.00  0.00    +0.000 A 
ATOM      2  C   UNL     1       6.608   6.241  18.605  0.00  0.00    +0.000 A 
ATOM      3  C   UNL     1       5.813   5.158  18.947  0.00  0.00    +0.000 A 
ATOM      4  C   UNL     1       5.502   4.181  18.010  0.00  0.00    +0.000 A 
ATOM      5  C   UNL     1       6.035   4.282  16.721  0.00  0.00    +0.000 A 
ATOM      6  C   UNL     1       6.810   5.396  16.354  0.00  0.00    +0.000 A 
ENDROOT
BRANCH   1   8
ATOM      7  C   UNL     1       8.013   8.578  17.842  0.00  0.00    +0.000 C 
ATOM      8  O   UNL     1       7.795   7.512  16.919  0.00  0.00    +0.000 OA
ENDBRANCH   1   8
BRANCH   4   9
ATOM      9  N   UNL     1       4.734   3.064  18.375  0.00  0.00    +0.000 N 
ATOM     10  H   UNL     1       4.162   2.657  17.644  0.00  0.00    +0.000 HD
BRANCH   9  11
ATOM     11  C   UNL     1       4.332   2.712  19.663  0.00  0.00    +0.000 C 
ATOM     12  S   UNL     1       5.024   1.525  20.626  0.00  0.00    +0.000 S 
BRANCH  11  13
ATOM     13  N   UNL     1       3.332   3.567  20.083  0.00  0.00    +0.000 N 
ATOM     14  H   UNL     1       3.656   4.456  20.443  0.00  0.00    +0.000 HD
BRANCH  13  15
ATOM     15  C   UNL     1       1.917   3.470  19.733  0.00  0.00    +0.000 C 
BRANCH  15  16
ATOM     16  C   UNL     1       1.125   4.630  20.335  0.00  0.00    +0.000 C 
BRANCH  16  17
ATOM     17  C   UNL     1       2.062   5.751  20.775  0.00  0.00    +0.000 C 
BRANCH  17  18
ATOM     18  N   UNL     1       2.036   6.880  19.873  0.00  0.00    +0.000 N 
ATOM     19  C   UNL     1       2.516   6.862  18.593  0.00  0.00    +0.000 A 
ATOM     20  N   UNL     1       2.382   8.030  18.015  0.00  0.00    +0.000 NA
ATOM     21  C   UNL     1       1.799   8.837  18.962  0.00  0.00    +0.000 A 
ATOM     22  C   UNL     1       1.579   8.150  20.137  0.00  0.00    +0.000 A 
ATOM     23  C   UNL     1       0.993   8.589  21.424  0.00  0.00    +0.000 C 
ENDBRANCH  17  18
ENDBRANCH  16  17
ENDBRANCH  15  16
ENDBRANCH  13  15
ENDBRANCH  11  13
ENDBRANCH   9  11
ENDBRANCH   4   9
BRANCH   6  24
ATOM     24  O   UNL     1       7.165   5.381  15.015  0.00  0.00    +0.000 OA
BRANCH  24  25
ATOM     25  C   UNL     1       6.989   4.132  14.349  0.00  0.00    +0.000 C 
BRANCH  25  26
ATOM     26  C   UNL     1       6.498   4.335  12.911  0.00  0.00    +0.000 C 
BRANCH  26  27
ATOM     27  C   UNL     1       5.357   3.352  12.651  0.00  0.00    +0.000 C 
BRANCH  27  28
ATOM     28  C   UNL     1       5.472   2.589  11.337  0.00  0.00    +0.000 C 
BRANCH  28  29
ATOM     29  N   UNL     1       6.032   1.267  11.607  0.00  0.00    +0.000 NA
ATOM     30  H   UNL     1       5.352   0.547  11.363  0.00  0.00    +0.000 HD
ATOM     31  H   UNL     1       6.208   1.167  12.605  0.00  0.00    +0.000 HD
ENDBRANCH  28  29
ENDBRANCH  27  28
ENDBRANCH  26  27
ENDBRANCH  25  26
ENDBRANCH  24  25
ENDBRANCH   6  24
TORSDOF 14
ENDMDL
MODEL 6
REMARK VINA RESULT:      -6.1      2.508      5.135
REMARK  Name = 
REMARK  16 active torsions:
REMARK  status: ('A' for Active; 'I' for Inactive)
REMARK    1  A    between atoms: C_1  and  O_2
REMARK    2  A    between atoms: O_2  and  C_3
REMARK    3  A    between atoms: C_6  and  N_7
REMARK    4  A    between atoms: N_7  and  C_8
REMARK    5  A    between atoms: C_8  and  N_10
REMARK    6  A    between atoms: N_10  and  C_11
REMARK    7  A    between atoms: C_11  and  C_12
REMARK    8  A    between atoms: C_12  and  C_13
REMARK    9  A    between atoms: C_13  and  N_14
REMARK   10  A    between atoms: C_18  and  C_19
REMARK   11  A    between atoms: C_21  and  O_22
REMARK   12  A    between atoms: O_22  and  C_23
REMARK   13  A    between atoms: C_23  and  C_24
REMARK   14  A    between atoms: C_24  and  C_25
REMARK   15  A    between atoms: C_25  and  C_26
REMARK   16  A    between atoms: C_26  and  N_27
REMARK                            x       y       z     vdW  Elec       q    Type
REMARK                         _______ _______ _______ _____ _____    ______ ____
ROOT
ATOM      1  C   UNL     1       6.506   5.375  16.090  0.00  0.00    +0.000 A 
ATOM      2  C   UNL     1       5.654   4.310  16.406  0.00  0.00    +0.000 A 
ATOM      3  C   UNL     1       4.930   4.295  17.589  0.00  0.00    +0.000 A 
ATOM      4  C   UNL     1       4.994   5.364  18.473  0.00  0.00    +0.000 A 
ATOM      5  C   UNL     1       5.770   6.479  18.138  0.00  0.00    +0.000 A 
ATOM      6  C   UNL     1       6.536   6.486  16.959  0.00  0.00    +0.000 A 
ENDROOT
BRANCH   1   8
ATOM      7  C   UNL     1       6.935   4.565  13.848  0.00  0.00    +0.000 C 
ATOM      8  O   UNL     1       7.290   5.371  14.970  0.00  0.00    +0.000 OA
ENDBRANCH   1   8
BRANCH   4   9
ATOM      9  N   UNL     1       4.225   5.363  19.648  0.00  0.00    +0.000 N 
ATOM     10  H   UNL     1       4.652   4.935  20.461  0.00  0.00    +0.000 HD
BRANCH   9  11
ATOM     11  C   UNL     1       2.838   5.479  19.737  0.00  0.00    +0.000 C 
ATOM     12  S   UNL     1       1.725   4.243  19.521  0.00  0.00    +0.000 S 
BRANCH  11  13
ATOM     13  N   UNL     1       2.508   6.759  20.140  0.00  0.00    +0.000 N 
ATOM     14  H   UNL     1       2.826   7.007  21.068  0.00  0.00    +0.000 HD
BRANCH  13  15
ATOM     15  C   UNL     1       2.097   7.854  19.265  0.00  0.00    +0.000 C 
BRANCH  15  16
ATOM     16  C   UNL     1       1.337   8.923  20.050  0.00  0.00    +0.000 C 
BRANCH  16  17
ATOM     17  C   UNL     1       0.636   9.892  19.102  0.00  0.00    +0.000 C 
BRANCH  17  18
ATOM     18  N   UNL     1       1.257  11.197  19.088  0.00  0.00    +0.000 N 
ATOM     19  C   UNL     1       2.190  11.603  18.175  0.00  0.00    +0.000 A 
ATOM     20  N   UNL     1       2.594  12.826  18.415  0.00  0.00    +0.000 NA
ATOM     21  C   UNL     1       1.901  13.223  19.533  0.00  0.00    +0.000 A 
ATOM     22  C   UNL     1       1.064  12.224  19.982  0.00  0.00    +0.000 A 
ATOM     23  C   UNL     1       0.139  12.177  21.138  0.00  0.00    +0.000 C 
ENDBRANCH  17  18
ENDBRANCH  16  17
ENDBRANCH  15  16
ENDBRANCH  13  15
ENDBRANCH  11  13
ENDBRANCH   9  11
ENDBRANCH   4   9
BRANCH   6  24
ATOM     24  O   UNL     1       7.320   7.622  16.840  0.00  0.00    +0.000 OA
BRANCH  24  25
ATOM     25  C   UNL     1       8.048   7.989  18.011  0.00  0.00    +0.000 C 
BRANCH  25  26
ATOM     26  C   UNL     1       8.297   9.501  18.058  0.00  0.00    +0.000 C 
BRANCH  26  27
ATOM     27  C   UNL     1       9.321   9.783  19.157  0.00  0.00    +0.000 C 
BRANCH  27  28
ATOM     28  C   UNL     1       9.266  11.199  19.719  0.00  0.00    +0.000 C 
BRANCH  28  29
ATOM     29  N   UNL     1       9.464  11.139  21.165  0.00  0.00    +0.000 NA
ATOM     30  H   UNL     1       8.634  11.490  21.642  0.00  0.00    +0.000 HD
ATOM     31  H   UNL     1      10.229  11.755  21.431  0.00  0.00    +0.000 HD
ENDBRANCH  28  29
ENDBRANCH  27  28
ENDBRANCH  26  27
ENDBRANCH  25  26
ENDBRANCH  24  25
ENDBRANCH   6  24
TORSDOF 14
ENDMDL
MODEL 7
REMARK VINA RESULT:      -6.1      1.415      1.957
REMARK  Name = 
REMARK  16 active torsions:
REMARK  status: ('A' for Active; 'I' for Inactive)
REMARK    1  A    between atoms: C_1  and  O_2
REMARK    2  A    between atoms: O_2  and  C_3
REMARK    3  A    between atoms: C_6  and  N_7
REMARK    4  A    between atoms: N_7  and  C_8
REMARK    5  A    between atoms: C_8  and  N_10
REMARK    6  A    between atoms: N_10  and  C_11
REMARK    7  A    between atoms: C_11  and  C_12
REMARK    8  A    between atoms: C_12  and  C_13
REMARK    9  A    between atoms: C_13  and  N_14
REMARK   10  A    between atoms: C_18  and  C_19
REMARK   11  A    between atoms: C_21  and  O_22
REMARK   12  A    between atoms: O_22  and  C_23
REMARK   13  A    between atoms: C_23  and  C_24
REMARK   14  A    between atoms: C_24  and  C_25
REMARK   15  A    between atoms: C_25  and  C_26
REMARK   16  A    between atoms: C_26  and  N_27
REMARK                            x       y       z     vdW  Elec       q    Type
REMARK                         _______ _______ _______ _____ _____    ______ ____
ROOT
ATOM      1  C   UNL     1       7.009   6.305  17.483  0.00  0.00    +0.000 A 
ATOM      2  C   UNL     1       7.166   6.071  18.855  0.00  0.00    +0.000 A 
ATOM      3  C   UNL     1       6.481   5.047  19.491  0.00  0.00    +0.000 A 
ATOM      4  C   UNL     1       5.655   4.191  18.774  0.00  0.00    +0.000 A 
ATOM      5  C   UNL     1       5.551   4.350  17.388  0.00  0.00    +0.000 A 
ATOM      6  C   UNL     1       6.212   5.409  16.740  0.00  0.00    +0.000 A 
ENDROOT
BRANCH   1   8
ATOM      7  C   UNL     1       7.903   8.553  17.574  0.00  0.00    +0.000 C 
ATOM      8  O   UNL     1       7.609   7.359  16.853  0.00  0.00    +0.000 OA
ENDBRANCH   1   8
BRANCH   4   9
ATOM      9  N   UNL     1       5.000   3.128  19.417  0.00  0.00    +0.000 N 
ATOM     10  H   UNL     1       5.557   2.590  20.071  0.00  0.00    +0.000 HD
BRANCH   9  11
ATOM     11  C   UNL     1       3.854   2.466  18.978  0.00  0.00    +0.000 C 
ATOM     12  S   UNL     1       3.786   1.297  17.777  0.00  0.00    +0.000 S 
BRANCH  11  13
ATOM     13  N   UNL     1       2.778   2.841  19.758  0.00  0.00    +0.000 N 
ATOM     14  H   UNL     1       1.871   2.611  19.371  0.00  0.00    +0.000 HD
BRANCH  13  15
ATOM     15  C   UNL     1       2.825   3.182  21.178  0.00  0.00    +0.000 C 
BRANCH  15  16
ATOM     16  C   UNL     1       2.333   4.610  21.413  0.00  0.00    +0.000 C 
BRANCH  16  17
ATOM     17  C   UNL     1       1.388   5.045  20.297  0.00  0.00    +0.000 C 
BRANCH  17  18
ATOM     18  N   UNL     1       1.907   6.155  19.533  0.00  0.00    +0.000 N 
ATOM     19  C   UNL     1       2.590   6.035  18.354  0.00  0.00    +0.000 A 
ATOM     20  N   UNL     1       2.961   7.204  17.894  0.00  0.00    +0.000 NA
ATOM     21  C   UNL     1       2.508   8.116  18.816  0.00  0.00    +0.000 A 
ATOM     22  C   UNL     1       1.854   7.491  19.856  0.00  0.00    +0.000 A 
ATOM     23  C   UNL     1       1.211   8.042  21.071  0.00  0.00    +0.000 C 
ENDBRANCH  17  18
ENDBRANCH  16  17
ENDBRANCH  15  16
ENDBRANCH  13  15
ENDBRANCH  11  13
ENDBRANCH   9  11
ENDBRANCH   4   9
BRANCH   6  24
ATOM     24  O   UNL     1       5.914   5.475  15.389  0.00  0.00    +0.000 OA
BRANCH  24  25
ATOM     25  C   UNL     1       6.406   4.394  14.599  0.00  0.00    +0.000 C 
BRANCH  25  26
ATOM     26  C   UNL     1       5.496   4.127  13.394  0.00  0.00    +0.000 C 
BRANCH  26  27
ATOM     27  C   UNL     1       6.323   3.429  12.315  0.00  0.00    +0.000 C 
BRANCH  27  28
ATOM     28  C   UNL     1       5.622   2.249  11.653  0.00  0.00    +0.000 C 
BRANCH  28  29
ATOM     29  N   UNL     1       6.630   1.280  11.230  0.00  0.00    +0.000 NA
ATOM     30  H   UNL     1       6.241   0.338  11.268  0.00  0.00    +0.000 HD
ATOM     31  H   UNL     1       7.412   1.293  11.881  0.00  0.00    +0.000 HD
ENDBRANCH  28  29
ENDBRANCH  27  28
ENDBRANCH  26  27
ENDBRANCH  25  26
ENDBRANCH  24  25
ENDBRANCH   6  24
TORSDOF 14
ENDMDL
MODEL 8
REMARK VINA RESULT:      -6.1      2.536      4.998
REMARK  Name = 
REMARK  16 active torsions:
REMARK  status: ('A' for Active; 'I' for Inactive)
REMARK    1  A    between atoms: C_1  and  O_2
REMARK    2  A    between atoms: O_2  and  C_3
REMARK    3  A    between atoms: C_6  and  N_7
REMARK    4  A    between atoms: N_7  and  C_8
REMARK    5  A    between atoms: C_8  and  N_10
REMARK    6  A    between atoms: N_10  and  C_11
REMARK    7  A    between atoms: C_11  and  C_12
REMARK    8  A    between atoms: C_12  and  C_13
REMARK    9  A    between atoms: C_13  and  N_14
REMARK   10  A    between atoms: C_18  and  C_19
REMARK   11  A    between atoms: C_21  and  O_22
REMARK   12  A    between atoms: O_22  and  C_23
REMARK   13  A    between atoms: C_23  and  C_24
REMARK   14  A    between atoms: C_24  and  C_25
REMARK   15  A    between atoms: C_25  and  C_26
REMARK   16  A    between atoms: C_26  and  N_27
REMARK                            x       y       z     vdW  Elec       q    Type
REMARK                         _______ _______ _______ _____ _____    ______ ____
ROOT
ATOM      1  C   UNL     1       6.496   5.306  15.618  0.00  0.00    +0.000 A 
ATOM      2  C   UNL     1       5.382   4.464  15.728  0.00  0.00    +0.000 A 
ATOM      3  C   UNL     1       4.606   4.446  16.876  0.00  0.00    +0.000 A 
ATOM      4  C   UNL     1       4.884   5.302  17.935  0.00  0.00    +0.000 A 
ATOM      5  C   UNL     1       5.937   6.214  17.812  0.00  0.00    +0.000 A 
ATOM      6  C   UNL     1       6.753   6.213  16.667  0.00  0.00    +0.000 A 
ENDROOT
BRANCH   1   8
ATOM      7  C   UNL     1       7.025   4.430  13.423  0.00  0.00    +0.000 C 
ATOM      8  O   UNL     1       7.322   5.280  14.529  0.00  0.00    +0.000 OA
ENDBRANCH   1   8
BRANCH   4   9
ATOM      9  N   UNL     1       4.067   5.310  19.077  0.00  0.00    +0.000 N 
ATOM     10  H   UNL     1       4.239   4.576  19.754  0.00  0.00    +0.000 HD
BRANCH   9  11
ATOM     11  C   UNL     1       2.813   5.908  19.201  0.00  0.00    +0.000 C 
ATOM     12  S   UNL     1       1.793   5.799  20.528  0.00  0.00    +0.000 S 
BRANCH  11  13
ATOM     13  N   UNL     1       2.570   6.703  18.098  0.00  0.00    +0.000 N 
ATOM     14  H   UNL     1       1.926   6.308  17.423  0.00  0.00    +0.000 HD
BRANCH  13  15
ATOM     15  C   UNL     1       2.843   8.133  17.995  0.00  0.00    +0.000 C 
BRANCH  15  16
ATOM     16  C   UNL     1       1.545   8.930  17.876  0.00  0.00    +0.000 C 
BRANCH  16  17
ATOM     17  C   UNL     1       1.114   9.465  19.238  0.00  0.00    +0.000 C 
BRANCH  17  18
ATOM     18  N   UNL     1      -0.100  10.246  19.167  0.00  0.00    +0.000 N 
ATOM     19  C   UNL     1      -0.921  10.309  18.076  0.00  0.00    +0.000 A 
ATOM     20  N   UNL     1      -1.936  11.110  18.285  0.00  0.00    +0.000 NA
ATOM     21  C   UNL     1      -1.759  11.592  19.560  0.00  0.00    +0.000 A 
ATOM     22  C   UNL     1      -0.616  11.078  20.134  0.00  0.00    +0.000 A 
ATOM     23  C   UNL     1      -0.011  11.305  21.466  0.00  0.00    +0.000 C 
ENDBRANCH  17  18
ENDBRANCH  16  17
ENDBRANCH  15  16
ENDBRANCH  13  15
ENDBRANCH  11  13
ENDBRANCH   9  11
ENDBRANCH   4   9
BRANCH   6  24
ATOM     24  O   UNL     1       7.806   7.108  16.763  0.00  0.00    +0.000 OA
BRANCH  24  25
ATOM     25  C   UNL     1       7.958   7.742  18.031  0.00  0.00    +0.000 C 
BRANCH  25  26
ATOM     26  C   UNL     1       8.164   9.253  17.875  0.00  0.00    +0.000 C 
BRANCH  26  27
ATOM     27  C   UNL     1       9.183   9.708  18.920  0.00  0.00    +0.000 C 
BRANCH  27  28
ATOM     28  C   UNL     1       9.222  11.215  19.144  0.00  0.00    +0.000 C 
BRANCH  28  29
ATOM     29  N   UNL     1       8.861  11.885  17.897  0.00  0.00    +0.000 NA
ATOM     30  H   UNL     1       8.167  12.609  18.084  0.00  0.00    +0.000 HD
ATOM     31  H   UNL     1       8.419  11.221  17.267  0.00  0.00    +0.000 HD
ENDBRANCH  28  29
ENDBRANCH  27  28
ENDBRANCH  26  27
ENDBRANCH  25  26
ENDBRANCH  24  25
ENDBRANCH   6  24
TORSDOF 14
ENDMDL
MODEL 9
REMARK VINA RESULT:      -6.0      3.091      8.696
REMARK  Name = 
REMARK  16 active torsions:
REMARK  status: ('A' for Active; 'I' for Inactive)
REMARK    1  A    between atoms: C_1  and  O_2
REMARK    2  A    between atoms: O_2  and  C_3
REMARK    3  A    between atoms: C_6  and  N_7
REMARK    4  A    between atoms: N_7  and  C_8
REMARK    5  A    between atoms: C_8  and  N_10
REMARK    6  A    between atoms: N_10  and  C_11
REMARK    7  A    between atoms: C_11  and  C_12
REMARK    8  A    between atoms: C_12  and  C_13
REMARK    9  A    between atoms: C_13  and  N_14
REMARK   10  A    between atoms: C_18  and  C_19
REMARK   11  A    between atoms: C_21  and  O_22
REMARK   12  A    between atoms: O_22  and  C_23
REMARK   13  A    between atoms: C_23  and  C_24
REMARK   14  A    between atoms: C_24  and  C_25
REMARK   15  A    between atoms: C_25  and  C_26
REMARK   16  A    between atoms: C_26  and  N_27
REMARK                            x       y       z     vdW  Elec       q    Type
REMARK                         _______ _______ _______ _____ _____    ______ ____
ROOT
ATOM      1  C   UNL     1       1.462   9.191  18.836  0.00  0.00    +0.000 A 
ATOM      2  C   UNL     1       2.293   8.282  18.171  0.00  0.00    +0.000 A 
ATOM      3  C   UNL     1       2.738   7.127  18.795  0.00  0.00    +0.000 A 
ATOM      4  C   UNL     1       2.331   6.815  20.086  0.00  0.00    +0.000 A 
ATOM      5  C   UNL     1       1.431   7.664  20.739  0.00  0.00    +0.000 A 
ATOM      6  C   UNL     1       1.004   8.856  20.128  0.00  0.00    +0.000 A 
ENDROOT
BRANCH   1   8
ATOM      7  C   UNL     1       1.756  11.584  18.606  0.00  0.00    +0.000 C 
ATOM      8  O   UNL     1       1.079  10.375  18.270  0.00  0.00    +0.000 OA
ENDBRANCH   1   8
BRANCH   4   9
ATOM      9  N   UNL     1       2.751   5.621  20.696  0.00  0.00    +0.000 N 
ATOM     10  H   UNL     1       3.603   5.674  21.241  0.00  0.00    +0.000 HD
BRANCH   9  11
ATOM     11  C   UNL     1       2.406   4.325  20.316  0.00  0.00    +0.000 C 
ATOM     12  S   UNL     1       0.867   3.785  19.924  0.00  0.00    +0.000 S 
BRANCH  11  13
ATOM     13  N   UNL     1       3.550   3.558  20.205  0.00  0.00    +0.000 N 
ATOM     14  H   UNL     1       3.518   2.674  20.697  0.00  0.00    +0.000 HD
BRANCH  13  15
ATOM     15  C   UNL     1       4.596   3.719  19.199  0.00  0.00    +0.000 C 
BRANCH  15  16
ATOM     16  C   UNL     1       4.101   3.280  17.821  0.00  0.00    +0.000 C 
BRANCH  16  17
ATOM     17  C   UNL     1       4.026   4.471  16.870  0.00  0.00    +0.000 C 
BRANCH  17  18
ATOM     18  N   UNL     1       5.219   4.615  16.069  0.00  0.00    +0.000 N 
ATOM     19  C   UNL     1       5.530   3.833  14.991  0.00  0.00    +0.000 A 
ATOM     20  N   UNL     1       6.682   4.174  14.468  0.00  0.00    +0.000 NA
ATOM     21  C   UNL     1       7.138   5.212  15.244  0.00  0.00    +0.000 A 
ATOM     22  C   UNL     1       6.250   5.505  16.258  0.00  0.00    +0.000 A 
ATOM     23  C   UNL     1       6.306   6.519  17.335  0.00  0.00    +0.000 C 
ENDBRANCH  17  18
ENDBRANCH  16  17
ENDBRANCH  15  16
ENDBRANCH  13  15
ENDBRANCH  11  13
ENDBRANCH   9  11
ENDBRANCH   4   9
BRANCH   6  24
ATOM     24  O   UNL     1       0.200   9.620  20.958  0.00  0.00    +0.000 OA
BRANCH  24  25
ATOM     25  C   UNL     1       0.170   9.216  22.325  0.00  0.00    +0.000 C 
BRANCH  25  26
ATOM     26  C   UNL     1      -0.725  10.140  23.158  0.00  0.00    +0.000 C 
BRANCH  26  27
ATOM     27  C   UNL     1      -0.766  11.508  22.477  0.00  0.00    +0.000 C 
BRANCH  27  28
ATOM     28  C   UNL     1      -1.591  12.554  23.218  0.00  0.00    +0.000 C 
BRANCH  28  29
ATOM     29  N   UNL     1      -0.745  13.713  23.491  0.00  0.00    +0.000 NA
ATOM     30  H   UNL     1      -0.565  13.781  24.493  0.00  0.00    +0.000 HD
ATOM     31  H   UNL     1      -1.237  14.565  23.231  0.00  0.00    +0.000 HD
ENDBRANCH  28  29
ENDBRANCH  27  28
ENDBRANCH  26  27
ENDBRANCH  25  26
ENDBRANCH  24  25
ENDBRANCH   6  24
TORSDOF 14
ENDMDL
