MODEL 1
REMARK VINA RESULT:      -8.6      0.000      0.000
REMARK  Name = 
REMARK  6 active torsions:
REMARK  status: ('A' for Active; 'I' for Inactive)
REMARK    1  A    between atoms: C_1  and  O_2
REMARK    2  A    between atoms: O_2  and  C_3
REMARK    3  A    between atoms: C_6  and  C_7
REMARK    4  A    between atoms: C_19  and  C_20
REMARK    5  A    between atoms: C_27  and  O_28
REMARK    6  A    between atoms: O_28  and  C_29
REMARK                            x       y       z     vdW  Elec       q    Type
REMARK                         _______ _______ _______ _____ _____    ______ ____
ROOT
ATOM      1  C   UNL     1       5.611   4.441  18.089  0.00  0.00    +0.000 C 
ATOM      2  O   UNL     1       6.443   4.217  18.966  0.00  0.00    +0.000 OA
ATOM      3  N   UNL     1       4.275   4.702  18.422  0.00  0.00    +0.000 N 
ATOM      4  C   UNL     1       3.883   4.767  19.831  0.00  0.00    +0.000 C 
ATOM      5  C   UNL     1       2.358   4.977  19.844  0.00  0.00    +0.000 C 
ATOM      6  C   UNL     1       1.842   6.137  20.711  0.00  0.00    +0.000 C 
ATOM      7  N   UNL     1       1.802   7.274  19.808  0.00  0.00    +0.000 N 
ATOM      8  C   UNL     1       1.384   8.535  20.098  0.00  0.00    +0.000 A 
ATOM      9  N   UNL     1       1.428   9.493  19.195  0.00  0.00    +0.000 NA
ATOM     10  C   UNL     1       0.976  10.687  19.704  0.00  0.00    +0.000 A 
ATOM     11  C   UNL     1       0.916  11.900  18.991  0.00  0.00    +0.000 A 
ATOM     12  C   UNL     1       0.450  13.056  19.619  0.00  0.00    +0.000 A 
ATOM     13  C   UNL     1       0.020  13.027  20.945  0.00  0.00    +0.000 A 
ATOM     14  C   UNL     1      -0.452  14.295  21.600  0.00  0.00    +0.000 C 
ATOM     15  C   UNL     1       0.064  11.819  21.672  0.00  0.00    +0.000 A 
ATOM     16  C   UNL     1       0.546  10.659  21.027  0.00  0.00    +0.000 A 
ATOM     17  S   UNL     1       0.747   9.049  21.623  0.00  0.00    +0.000 S 
ATOM     18  C   UNL     1       2.190   6.923  18.450  0.00  0.00    +0.000 C 
ATOM     19  C   UNL     1       2.039   5.401  18.411  0.00  0.00    +0.000 C 
ATOM     20  C   UNL     1       3.088   4.694  17.575  0.00  0.00    +0.000 C 
ENDROOT
BRANCH   1  24
ATOM     21  C   UNL     1       6.836   4.521  13.943  0.00  0.00    +0.000 A 
ATOM     22  C   UNL     1       5.802   3.696  14.371  0.00  0.00    +0.000 A 
ATOM     23  C   UNL     1       5.387   3.723  15.703  0.00  0.00    +0.000 A 
ATOM     24  C   UNL     1       6.058   4.502  16.658  0.00  0.00    +0.000 A 
ATOM     25  C   UNL     1       7.052   5.396  16.213  0.00  0.00    +0.000 A 
ATOM     26  C   UNL     1       7.434   5.389  14.857  0.00  0.00    +0.000 A 
BRANCH  21  28
ATOM     27  C   UNL     1       6.616   3.290  11.923  0.00  0.00    +0.000 C 
ATOM     28  O   UNL     1       7.165   4.403  12.620  0.00  0.00    +0.000 OA
ENDBRANCH  21  28
BRANCH  25  29
ATOM     29  O   UNL     1       7.667   6.225  17.120  0.00  0.00    +0.000 OA
ATOM     30  C   UNL     1       7.096   7.524  17.281  0.00  0.00    +0.000 C 
ENDBRANCH  25  29
ENDBRANCH   1  24
TORSDOF 3
ENDMDL
MODEL 2
REMARK VINA RESULT:      -7.7      4.762     10.449
REMARK  Name = 
REMARK  6 active torsions:
REMARK  status: ('A' for Active; 'I' for Inactive)
REMARK    1  A    between atoms: C_1  and  O_2
REMARK    2  A    between atoms: O_2  and  C_3
REMARK    3  A    between atoms: C_6  and  C_7
REMARK    4  A    between atoms: C_19  and  C_20
REMARK    5  A    between atoms: C_27  and  O_28
REMARK    6  A    between atoms: O_28  and  C_29
REMARK                            x       y       z     vdW  Elec       q    Type
REMARK                         _______ _______ _______ _____ _____    ______ ____
ROOT
ATOM      1  C   UNL     1       0.425  12.536  20.843  0.00  0.00    +0.000 C 
ATOM      2  O   UNL     1       1.366  13.272  21.136  0.00  0.00    +0.000 OA
ATOM      3  N   UNL     1       0.552  11.584  19.823  0.00  0.00    +0.000 N 
ATOM      4  C   UNL     1       1.838  11.428  19.140  0.00  0.00    +0.000 C 
ATOM      5  C   UNL     1       1.613  10.382  18.033  0.00  0.00    +0.000 C 
ATOM      6  C   UNL     1       2.614   9.216  17.990  0.00  0.00    +0.000 C 
ATOM      7  N   UNL     1       2.011   8.190  18.823  0.00  0.00    +0.000 N 
ATOM      8  C   UNL     1       2.504   6.949  19.076  0.00  0.00    +0.000 A 
ATOM      9  N   UNL     1       1.875   6.116  19.880  0.00  0.00    +0.000 NA
ATOM     10  C   UNL     1       2.555   4.928  20.009  0.00  0.00    +0.000 A 
ATOM     11  C   UNL     1       2.147   3.845  20.811  0.00  0.00    +0.000 A 
ATOM     12  C   UNL     1       2.929   2.691  20.875  0.00  0.00    +0.000 A 
ATOM     13  C   UNL     1       4.106   2.582  20.136  0.00  0.00    +0.000 A 
ATOM     14  C   UNL     1       4.939   1.335  20.245  0.00  0.00    +0.000 C 
ATOM     15  C   UNL     1       4.526   3.653  19.319  0.00  0.00    +0.000 A 
ATOM     16  C   UNL     1       3.730   4.818  19.272  0.00  0.00    +0.000 A 
ATOM     17  S   UNL     1       3.958   6.296  18.404  0.00  0.00    +0.000 S 
ATOM     18  C   UNL     1       0.706   8.581  19.335  0.00  0.00    +0.000 C 
ATOM     19  C   UNL     1       0.285   9.730  18.416  0.00  0.00    +0.000 C 
ATOM     20  C   UNL     1      -0.480  10.836  19.116  0.00  0.00    +0.000 C 
ENDROOT
BRANCH   1  24
ATOM     21  C   UNL     1      -3.252  12.877  23.093  0.00  0.00    +0.000 A 
ATOM     22  C   UNL     1      -3.013  13.676  21.982  0.00  0.00    +0.000 A 
ATOM     23  C   UNL     1      -1.843  13.515  21.238  0.00  0.00    +0.000 A 
ATOM     24  C   UNL     1      -0.842  12.619  21.643  0.00  0.00    +0.000 A 
ATOM     25  C   UNL     1      -1.116  11.753  22.721  0.00  0.00    +0.000 A 
ATOM     26  C   UNL     1      -2.319  11.898  23.438  0.00  0.00    +0.000 A 
BRANCH  21  28
ATOM     27  C   UNL     1      -5.519  13.576  22.957  0.00  0.00    +0.000 C 
ATOM     28  O   UNL     1      -4.425  13.129  23.751  0.00  0.00    +0.000 OA
ENDBRANCH  21  28
BRANCH  25  29
ATOM     29  O   UNL     1      -0.181  10.814  23.085  0.00  0.00    +0.000 OA
ATOM     30  C   UNL     1      -0.499   9.454  22.788  0.00  0.00    +0.000 C 
ENDBRANCH  25  29
ENDBRANCH   1  24
TORSDOF 3
ENDMDL
MODEL 3
REMARK VINA RESULT:      -7.5      2.877      4.236
REMARK  Name = 
REMARK  6 active torsions:
REMARK  status: ('A' for Active; 'I' for Inactive)
REMARK    1  A    between atoms: C_1  and  O_2
REMARK    2  A    between atoms: O_2  and  C_3
REMARK    3  A    between atoms: C_6  and  C_7
REMARK    4  A    between atoms: C_19  and  C_20
REMARK    5  A    between atoms: C_27  and  O_28
REMARK    6  A    between atoms: O_28  and  C_29
REMARK                            x       y       z     vdW  Elec       q    Type
REMARK                         _______ _______ _______ _____ _____    ______ ____
ROOT
ATOM      1  C   UNL     1       3.127   6.605  18.982  0.00  0.00    +0.000 C 
ATOM      2  O   UNL     1       3.245   6.064  20.081  0.00  0.00    +0.000 OA
ATOM      3  N   UNL     1       2.231   7.666  18.802  0.00  0.00    +0.000 N 
ATOM      4  C   UNL     1       1.471   8.172  19.948  0.00  0.00    +0.000 C 
ATOM      5  C   UNL     1       0.530   9.257  19.395  0.00  0.00    +0.000 C 
ATOM      6  C   UNL     1       0.556  10.610  20.125  0.00  0.00    +0.000 C 
ATOM      7  N   UNL     1       1.560  11.385  19.416  0.00  0.00    +0.000 N 
ATOM      8  C   UNL     1       1.931  12.668  19.668  0.00  0.00    +0.000 A 
ATOM      9  N   UNL     1       2.883  13.252  18.970  0.00  0.00    +0.000 NA
ATOM     10  C   UNL     1       3.109  14.538  19.401  0.00  0.00    +0.000 A 
ATOM     11  C   UNL     1       4.074  15.414  18.867  0.00  0.00    +0.000 A 
ATOM     12  C   UNL     1       4.221  16.696  19.397  0.00  0.00    +0.000 A 
ATOM     13  C   UNL     1       3.409  17.137  20.441  0.00  0.00    +0.000 A 
ATOM     14  C   UNL     1       3.610  18.516  21.007  0.00  0.00    +0.000 C 
ATOM     15  C   UNL     1       2.430  16.277  20.982  0.00  0.00    +0.000 A 
ATOM     16  C   UNL     1       2.298  14.980  20.442  0.00  0.00    +0.000 A 
ATOM     17  S   UNL     1       1.231  13.690  20.876  0.00  0.00    +0.000 S 
ATOM     18  C   UNL     1       2.122  10.666  18.282  0.00  0.00    +0.000 C 
ATOM     19  C   UNL     1       1.101   9.560  18.010  0.00  0.00    +0.000 C 
ATOM     20  C   UNL     1       1.712   8.245  17.568  0.00  0.00    +0.000 C 
ENDROOT
BRANCH   1  24
ATOM     21  C   UNL     1       5.712   5.440  15.718  0.00  0.00    +0.000 A 
ATOM     22  C   UNL     1       5.857   6.671  16.344  0.00  0.00    +0.000 A 
ATOM     23  C   UNL     1       5.046   7.008  17.430  0.00  0.00    +0.000 A 
ATOM     24  C   UNL     1       4.010   6.163  17.853  0.00  0.00    +0.000 A 
ATOM     25  C   UNL     1       3.913   4.882  17.273  0.00  0.00    +0.000 A 
ATOM     26  C   UNL     1       4.764   4.539  16.205  0.00  0.00    +0.000 A 
BRANCH  21  28
ATOM     27  C   UNL     1       6.272   4.088  13.847  0.00  0.00    +0.000 C 
ATOM     28  O   UNL     1       6.551   5.222  14.660  0.00  0.00    +0.000 OA
ENDBRANCH  21  28
BRANCH  25  29
ATOM     29  O   UNL     1       2.954   4.008  17.727  0.00  0.00    +0.000 OA
ATOM     30  C   UNL     1       3.345   2.639  17.835  0.00  0.00    +0.000 C 
ENDBRANCH  25  29
ENDBRANCH   1  24
TORSDOF 3
ENDMDL
MODEL 4
REMARK VINA RESULT:      -7.4      6.668     12.225
REMARK  Name = 
REMARK  6 active torsions:
REMARK  status: ('A' for Active; 'I' for Inactive)
REMARK    1  A    between atoms: C_1  and  O_2
REMARK    2  A    between atoms: O_2  and  C_3
REMARK    3  A    between atoms: C_6  and  C_7
REMARK    4  A    between atoms: C_19  and  C_20
REMARK    5  A    between atoms: C_27  and  O_28
REMARK    6  A    between atoms: O_28  and  C_29
REMARK                            x       y       z     vdW  Elec       q    Type
REMARK                         _______ _______ _______ _____ _____    ______ ____
ROOT
ATOM      1  C   UNL     1      -5.534  13.292  21.955  0.00  0.00    +0.000 C 
ATOM      2  O   UNL     1      -6.326  12.555  22.541  0.00  0.00    +0.000 OA
ATOM      3  N   UNL     1      -4.162  13.225  22.224  0.00  0.00    +0.000 N 
ATOM      4  C   UNL     1      -3.661  12.226  23.172  0.00  0.00    +0.000 C 
ATOM      5  C   UNL     1      -2.149  12.479  23.304  0.00  0.00    +0.000 C 
ATOM      6  C   UNL     1      -1.238  11.254  23.116  0.00  0.00    +0.000 C 
ATOM      7  N   UNL     1      -0.924  11.252  21.698  0.00  0.00    +0.000 N 
ATOM      8  C   UNL     1      -0.120  10.375  21.039  0.00  0.00    +0.000 A 
ATOM      9  N   UNL     1       0.061  10.460  19.737  0.00  0.00    +0.000 NA
ATOM     10  C   UNL     1       0.893   9.467  19.277  0.00  0.00    +0.000 A 
ATOM     11  C   UNL     1       1.265   9.281  17.932  0.00  0.00    +0.000 A 
ATOM     12  C   UNL     1       2.107   8.226  17.580  0.00  0.00    +0.000 A 
ATOM     13  C   UNL     1       2.608   7.357  18.549  0.00  0.00    +0.000 A 
ATOM     14  C   UNL     1       3.494   6.214  18.135  0.00  0.00    +0.000 C 
ATOM     15  C   UNL     1       2.254   7.533  19.903  0.00  0.00    +0.000 A 
ATOM     16  C   UNL     1       1.394   8.600  20.243  0.00  0.00    +0.000 A 
ATOM     17  S   UNL     1       0.759   9.080  21.777  0.00  0.00    +0.000 S 
ATOM     18  C   UNL     1      -1.503  12.387  20.994  0.00  0.00    +0.000 C 
ATOM     19  C   UNL     1      -1.826  13.380  22.113  0.00  0.00    +0.000 C 
ATOM     20  C   UNL     1      -3.102  14.169  21.892  0.00  0.00    +0.000 C 
ENDROOT
BRANCH   1  24
ATOM     21  C   UNL     1      -7.062  16.026  18.973  0.00  0.00    +0.000 A 
ATOM     22  C   UNL     1      -6.993  16.389  20.312  0.00  0.00    +0.000 A 
ATOM     23  C   UNL     1      -6.449  15.511  21.252  0.00  0.00    +0.000 A 
ATOM     24  C   UNL     1      -6.050  14.216  20.891  0.00  0.00    +0.000 A 
ATOM     25  C   UNL     1      -6.046  13.874  19.523  0.00  0.00    +0.000 A 
ATOM     26  C   UNL     1      -6.560  14.785  18.580  0.00  0.00    +0.000 A 
BRANCH  21  28
ATOM     27  C   UNL     1      -6.732  17.871  17.515  0.00  0.00    +0.000 C 
ATOM     28  O   UNL     1      -7.624  16.958  18.145  0.00  0.00    +0.000 OA
ENDBRANCH  21  28
BRANCH  25  29
ATOM     29  O   UNL     1      -5.586  12.637  19.140  0.00  0.00    +0.000 OA
ATOM     30  C   UNL     1      -5.942  12.208  17.826  0.00  0.00    +0.000 C 
ENDBRANCH  25  29
ENDBRANCH   1  24
TORSDOF 3
ENDMDL
MODEL 5
REMARK VINA RESULT:      -7.3      4.835     10.675
REMARK  Name = 
REMARK  6 active torsions:
REMARK  status: ('A' for Active; 'I' for Inactive)
REMARK    1  A    between atoms: C_1  and  O_2
REMARK    2  A    between atoms: O_2  and  C_3
REMARK    3  A    between atoms: C_6  and  C_7
REMARK    4  A    between atoms: C_19  and  C_20
REMARK    5  A    between atoms: C_27  and  O_28
REMARK    6  A    between atoms: O_28  and  C_29
REMARK                            x       y       z     vdW  Elec       q    Type
REMARK                         _______ _______ _______ _____ _____    ______ ____
ROOT
ATOM      1  C   UNL     1       0.632  13.336  20.752  0.00  0.00    +0.000 C 
ATOM      2  O   UNL     1       1.636  14.031  20.904  0.00  0.00    +0.000 OA
ATOM      3  N   UNL     1       0.598  12.335  19.773  0.00  0.00    +0.000 N 
ATOM      4  C   UNL     1       1.793  12.076  18.965  0.00  0.00    +0.000 C 
ATOM      5  C   UNL     1       1.395  10.996  17.943  0.00  0.00    +0.000 C 
ATOM      6  C   UNL     1       2.325   9.776  17.851  0.00  0.00    +0.000 C 
ATOM      7  N   UNL     1       1.765   8.823  18.794  0.00  0.00    +0.000 N 
ATOM      8  C   UNL     1       2.219   7.568  19.056  0.00  0.00    +0.000 A 
ATOM      9  N   UNL     1       1.640   6.809  19.964  0.00  0.00    +0.000 NA
ATOM     10  C   UNL     1       2.269   5.592  20.079  0.00  0.00    +0.000 A 
ATOM     11  C   UNL     1       1.896   4.570  20.974  0.00  0.00    +0.000 A 
ATOM     12  C   UNL     1       2.620   3.377  21.011  0.00  0.00    +0.000 A 
ATOM     13  C   UNL     1       3.703   3.170  20.157  0.00  0.00    +0.000 A 
ATOM     14  C   UNL     1       4.478   1.885  20.239  0.00  0.00    +0.000 C 
ATOM     15  C   UNL     1       4.085   4.179  19.247  0.00  0.00    +0.000 A 
ATOM     16  C   UNL     1       3.348   5.383  19.227  0.00  0.00    +0.000 A 
ATOM     17  S   UNL     1       3.556   6.805  18.266  0.00  0.00    +0.000 S 
ATOM     18  C   UNL     1       0.546   9.309  19.423  0.00  0.00    +0.000 C 
ATOM     19  C   UNL     1       0.085  10.437  18.498  0.00  0.00    +0.000 C 
ATOM     20  C   UNL     1      -0.542  11.614  19.219  0.00  0.00    +0.000 C 
ENDROOT
BRANCH   1  24
ATOM     21  C   UNL     1      -2.739  13.994  23.379  0.00  0.00    +0.000 A 
ATOM     22  C   UNL     1      -2.435  14.891  22.362  0.00  0.00    +0.000 A 
ATOM     23  C   UNL     1      -1.374  14.634  21.492  0.00  0.00    +0.000 A 
ATOM     24  C   UNL     1      -0.534  13.526  21.677  0.00  0.00    +0.000 A 
ATOM     25  C   UNL     1      -0.886  12.575  22.656  0.00  0.00    +0.000 A 
ATOM     26  C   UNL     1      -1.985  12.826  23.501  0.00  0.00    +0.000 A 
BRANCH  21  28
ATOM     27  C   UNL     1      -3.574  15.442  25.066  0.00  0.00    +0.000 C 
ATOM     28  O   UNL     1      -3.791  14.352  24.177  0.00  0.00    +0.000 OA
ENDBRANCH  21  28
BRANCH  25  29
ATOM     29  O   UNL     1      -0.122  11.443  22.801  0.00  0.00    +0.000 OA
ATOM     30  C   UNL     1      -0.825  10.237  23.101  0.00  0.00    +0.000 C 
ENDBRANCH  25  29
ENDBRANCH   1  24
TORSDOF 3
ENDMDL
MODEL 6
REMARK VINA RESULT:      -7.2      2.247      2.902
REMARK  Name = 
REMARK  6 active torsions:
REMARK  status: ('A' for Active; 'I' for Inactive)
REMARK    1  A    between atoms: C_1  and  O_2
REMARK    2  A    between atoms: O_2  and  C_3
REMARK    3  A    between atoms: C_6  and  C_7
REMARK    4  A    between atoms: C_19  and  C_20
REMARK    5  A    between atoms: C_27  and  O_28
REMARK    6  A    between atoms: O_28  and  C_29
REMARK                            x       y       z     vdW  Elec       q    Type
REMARK                         _______ _______ _______ _____ _____    ______ ____
ROOT
ATOM      1  C   UNL     1       4.159   5.904  18.690  0.00  0.00    +0.000 C 
ATOM      2  O   UNL     1       4.574   5.516  19.781  0.00  0.00    +0.000 OA
ATOM      3  N   UNL     1       3.033   6.733  18.608  0.00  0.00    +0.000 N 
ATOM      4  C   UNL     1       2.382   7.188  19.839  0.00  0.00    +0.000 C 
ATOM      5  C   UNL     1       1.146   7.993  19.399  0.00  0.00    +0.000 C 
ATOM      6  C   UNL     1       0.992   9.391  20.021  0.00  0.00    +0.000 C 
ATOM      7  N   UNL     1       1.668  10.277  19.089  0.00  0.00    +0.000 N 
ATOM      8  C   UNL     1       1.782  11.629  19.182  0.00  0.00    +0.000 A 
ATOM      9  N   UNL     1       2.453  12.320  18.284  0.00  0.00    +0.000 NA
ATOM     10  C   UNL     1       2.457  13.663  18.580  0.00  0.00    +0.000 A 
ATOM     11  C   UNL     1       3.102  14.658  17.820  0.00  0.00    +0.000 A 
ATOM     12  C   UNL     1       3.048  15.991  18.228  0.00  0.00    +0.000 A 
ATOM     13  C   UNL     1       2.344  16.362  19.372  0.00  0.00    +0.000 A 
ATOM     14  C   UNL     1       2.326  17.804  19.799  0.00  0.00    +0.000 C 
ATOM     15  C   UNL     1       1.683  15.380  20.141  0.00  0.00    +0.000 A 
ATOM     16  C   UNL     1       1.753  14.034  19.721  0.00  0.00    +0.000 A 
ATOM     17  S   UNL     1       1.085  12.605  20.429  0.00  0.00    +0.000 S 
ATOM     18  C   UNL     1       2.179   9.576  17.921  0.00  0.00    +0.000 C 
ATOM     19  C   UNL     1       1.397   8.261  17.916  0.00  0.00    +0.000 C 
ATOM     20  C   UNL     1       2.202   7.061  17.456  0.00  0.00    +0.000 C 
ENDROOT
BRANCH   1  24
ATOM     21  C   UNL     1       6.295   4.741  15.115  0.00  0.00    +0.000 A 
ATOM     22  C   UNL     1       5.244   3.975  15.605  0.00  0.00    +0.000 A 
ATOM     23  C   UNL     1       4.534   4.395  16.731  0.00  0.00    +0.000 A 
ATOM     24  C   UNL     1       4.918   5.537  17.448  0.00  0.00    +0.000 A 
ATOM     25  C   UNL     1       5.930   6.357  16.910  0.00  0.00    +0.000 A 
ATOM     26  C   UNL     1       6.612   5.942  15.749  0.00  0.00    +0.000 A 
BRANCH  21  28
ATOM     27  C   UNL     1       6.094   3.645  13.016  0.00  0.00    +0.000 C 
ATOM     28  O   UNL     1       6.925   4.228  14.014  0.00  0.00    +0.000 OA
ENDBRANCH  21  28
BRANCH  25  29
ATOM     29  O   UNL     1       6.268   7.521  17.555  0.00  0.00    +0.000 OA
ATOM     30  C   UNL     1       7.662   7.825  17.628  0.00  0.00    +0.000 C 
ENDBRANCH  25  29
ENDBRANCH   1  24
TORSDOF 3
ENDMDL
MODEL 7
REMARK VINA RESULT:      -7.1      4.812     10.618
REMARK  Name = 
REMARK  6 active torsions:
REMARK  status: ('A' for Active; 'I' for Inactive)
REMARK    1  A    between atoms: C_1  and  O_2
REMARK    2  A    between atoms: O_2  and  C_3
REMARK    3  A    between atoms: C_6  and  C_7
REMARK    4  A    between atoms: C_19  and  C_20
REMARK    5  A    between atoms: C_27  and  O_28
REMARK    6  A    between atoms: O_28  and  C_29
REMARK                            x       y       z     vdW  Elec       q    Type
REMARK                         _______ _______ _______ _____ _____    ______ ____
ROOT
ATOM      1  C   UNL     1       0.355  12.486  20.847  0.00  0.00    +0.000 C 
ATOM      2  O   UNL     1       1.284  13.229  21.161  0.00  0.00    +0.000 OA
ATOM      3  N   UNL     1       0.512  11.538  19.828  0.00  0.00    +0.000 N 
ATOM      4  C   UNL     1       1.815  11.392  19.174  0.00  0.00    +0.000 C 
ATOM      5  C   UNL     1       1.622  10.346  18.061  0.00  0.00    +0.000 C 
ATOM      6  C   UNL     1       2.633   9.188  18.038  0.00  0.00    +0.000 C 
ATOM      7  N   UNL     1       2.020   8.156  18.856  0.00  0.00    +0.000 N 
ATOM      8  C   UNL     1       2.516   6.918  19.119  0.00  0.00    +0.000 A 
ATOM      9  N   UNL     1       1.876   6.079  19.907  0.00  0.00    +0.000 NA
ATOM     10  C   UNL     1       2.562   4.896  20.050  0.00  0.00    +0.000 A 
ATOM     11  C   UNL     1       2.144   3.809  20.841  0.00  0.00    +0.000 A 
ATOM     12  C   UNL     1       2.933   2.660  20.920  0.00  0.00    +0.000 A 
ATOM     13  C   UNL     1       4.127   2.562  20.207  0.00  0.00    +0.000 A 
ATOM     14  C   UNL     1       4.967   1.321  20.333  0.00  0.00    +0.000 C 
ATOM     15  C   UNL     1       4.557   3.638  19.402  0.00  0.00    +0.000 A 
ATOM     16  C   UNL     1       3.753   4.797  19.338  0.00  0.00    +0.000 A 
ATOM     17  S   UNL     1       3.990   6.277  18.478  0.00  0.00    +0.000 S 
ATOM     18  C   UNL     1       0.701   8.536  19.340  0.00  0.00    +0.000 C 
ATOM     19  C   UNL     1       0.291   9.683  18.413  0.00  0.00    +0.000 C 
ATOM     20  C   UNL     1      -0.498  10.782  19.098  0.00  0.00    +0.000 C 
ENDROOT
BRANCH   1  24
ATOM     21  C   UNL     1      -3.320  12.594  23.123  0.00  0.00    +0.000 A 
ATOM     22  C   UNL     1      -2.307  11.696  23.437  0.00  0.00    +0.000 A 
ATOM     23  C   UNL     1      -1.107  11.712  22.723  0.00  0.00    +0.000 A 
ATOM     24  C   UNL     1      -0.930  12.559  21.619  0.00  0.00    +0.000 A 
ATOM     25  C   UNL     1      -1.922  13.523  21.349  0.00  0.00    +0.000 A 
ATOM     26  C   UNL     1      -3.111  13.523  22.103  0.00  0.00    +0.000 A 
BRANCH  21  28
ATOM     27  C   UNL     1      -5.481  13.435  23.637  0.00  0.00    +0.000 C 
ATOM     28  O   UNL     1      -4.454  12.480  23.880  0.00  0.00    +0.000 OA
ENDBRANCH  21  28
BRANCH  25  29
ATOM     29  O   UNL     1      -1.733  14.414  20.320  0.00  0.00    +0.000 OA
ATOM     30  C   UNL     1      -1.497  15.772  20.693  0.00  0.00    +0.000 C 
ENDBRANCH  25  29
ENDBRANCH   1  24
TORSDOF 3
ENDMDL
MODEL 8
REMARK VINA RESULT:      -7.1      7.112     10.335
REMARK  Name = 
REMARK  6 active torsions:
REMARK  status: ('A' for Active; 'I' for Inactive)
REMARK    1  A    between atoms: C_1  and  O_2
REMARK    2  A    between atoms: O_2  and  C_3
REMARK    3  A    between atoms: C_6  and  C_7
REMARK    4  A    between atoms: C_19  and  C_20
REMARK    5  A    between atoms: C_27  and  O_28
REMARK    6  A    between atoms: O_28  and  C_29
REMARK                            x       y       z     vdW  Elec       q    Type
REMARK                         _______ _______ _______ _____ _____    ______ ____
ROOT
ATOM      1  C   UNL     1       0.504  12.998  20.763  0.00  0.00    +0.000 C 
ATOM      2  O   UNL     1       0.410  12.753  21.965  0.00  0.00    +0.000 OA
ATOM      3  N   UNL     1       1.333  14.030  20.307  0.00  0.00    +0.000 N 
ATOM      4  C   UNL     1       2.139  14.786  21.268  0.00  0.00    +0.000 C 
ATOM      5  C   UNL     1       2.852  15.885  20.462  0.00  0.00    +0.000 C 
ATOM      6  C   UNL     1       4.373  15.994  20.662  0.00  0.00    +0.000 C 
ATOM      7  N   UNL     1       4.936  15.135  19.634  0.00  0.00    +0.000 N 
ATOM      8  C   UNL     1       6.253  14.919  19.381  0.00  0.00    +0.000 A 
ATOM      9  N   UNL     1       6.639  14.087  18.435  0.00  0.00    +0.000 NA
ATOM     10  C   UNL     1       8.009  14.004  18.362  0.00  0.00    +0.000 A 
ATOM     11  C   UNL     1       8.724  13.189  17.464  0.00  0.00    +0.000 A 
ATOM     12  C   UNL     1      10.120  13.178  17.492  0.00  0.00    +0.000 A 
ATOM     13  C   UNL     1      10.824  13.982  18.386  0.00  0.00    +0.000 A 
ATOM     14  C   UNL     1      12.327  13.929  18.408  0.00  0.00    +0.000 C 
ATOM     15  C   UNL     1      10.124  14.814  19.286  0.00  0.00    +0.000 A 
ATOM     16  C   UNL     1       8.713  14.808  19.253  0.00  0.00    +0.000 A 
ATOM     17  S   UNL     1       7.568  15.677  20.213  0.00  0.00    +0.000 S 
ATOM     18  C   UNL     1       3.917  14.547  18.777  0.00  0.00    +0.000 C 
ATOM     19  C   UNL     1       2.691  15.433  19.011  0.00  0.00    +0.000 C 
ATOM     20  C   UNL     1       1.373  14.683  19.004  0.00  0.00    +0.000 C 
ENDROOT
BRANCH   1  24
ATOM     21  C   UNL     1      -1.497  10.439  17.908  0.00  0.00    +0.000 A 
ATOM     22  C   UNL     1      -0.175  10.214  18.271  0.00  0.00    +0.000 A 
ATOM     23  C   UNL     1       0.438  11.020  19.233  0.00  0.00    +0.000 A 
ATOM     24  C   UNL     1      -0.226  12.127  19.783  0.00  0.00    +0.000 A 
ATOM     25  C   UNL     1      -1.590  12.309  19.477  0.00  0.00    +0.000 A 
ATOM     26  C   UNL     1      -2.207  11.463  18.535  0.00  0.00    +0.000 A 
BRANCH  21  28
ATOM     27  C   UNL     1      -2.684  10.201  15.865  0.00  0.00    +0.000 C 
ATOM     28  O   UNL     1      -1.989   9.596  16.950  0.00  0.00    +0.000 OA
ENDBRANCH  21  28
BRANCH  25  29
ATOM     29  O   UNL     1      -2.280  13.341  20.066  0.00  0.00    +0.000 OA
ATOM     30  C   UNL     1      -3.583  13.032  20.560  0.00  0.00    +0.000 C 
ENDBRANCH  25  29
ENDBRANCH   1  24
TORSDOF 3
ENDMDL
MODEL 9
REMARK VINA RESULT:      -7.0      6.885     12.240
REMARK  Name = 
REMARK  6 active torsions:
REMARK  status: ('A' for Active; 'I' for Inactive)
REMARK    1  A    between atoms: C_1  and  O_2
REMARK    2  A    between atoms: O_2  and  C_3
REMARK    3  A    between atoms: C_6  and  C_7
REMARK    4  A    between atoms: C_19  and  C_20
REMARK    5  A    between atoms: C_27  and  O_28
REMARK    6  A    between atoms: O_28  and  C_29
REMARK                            x       y       z     vdW  Elec       q    Type
REMARK                         _______ _______ _______ _____ _____    ______ ____
ROOT
ATOM      1  C   UNL     1      -5.597  13.173  21.260  0.00  0.00    +0.000 C 
ATOM      2  O   UNL     1      -6.399  12.474  21.879  0.00  0.00    +0.000 OA
ATOM      3  N   UNL     1      -4.236  13.158  21.588  0.00  0.00    +0.000 N 
ATOM      4  C   UNL     1      -3.757  12.257  22.639  0.00  0.00    +0.000 C 
ATOM      5  C   UNL     1      -2.256  12.551  22.807  0.00  0.00    +0.000 C 
ATOM      6  C   UNL     1      -1.318  11.334  22.764  0.00  0.00    +0.000 C 
ATOM      7  N   UNL     1      -0.946  11.213  21.365  0.00  0.00    +0.000 N 
ATOM      8  C   UNL     1      -0.102  10.298  20.819  0.00  0.00    +0.000 A 
ATOM      9  N   UNL     1       0.130  10.271  19.523  0.00  0.00    +0.000 NA
ATOM     10  C   UNL     1       0.997   9.259  19.186  0.00  0.00    +0.000 A 
ATOM     11  C   UNL     1       1.427   8.963  17.877  0.00  0.00    +0.000 A 
ATOM     12  C   UNL     1       2.301   7.898  17.654  0.00  0.00    +0.000 A 
ATOM     13  C   UNL     1       2.776   7.128  18.715  0.00  0.00    +0.000 A 
ATOM     14  C   UNL     1       3.697   5.972  18.439  0.00  0.00    +0.000 C 
ATOM     15  C   UNL     1       2.365   7.416  20.034  0.00  0.00    +0.000 A 
ATOM     16  C   UNL     1       1.474   8.491  20.243  0.00  0.00    +0.000 A 
ATOM     17  S   UNL     1       0.768   9.091  21.703  0.00  0.00    +0.000 S 
ATOM     18  C   UNL     1      -1.516  12.269  20.542  0.00  0.00    +0.000 C 
ATOM     19  C   UNL     1      -1.901  13.351  21.554  0.00  0.00    +0.000 C 
ATOM     20  C   UNL     1      -3.180  14.091  21.215  0.00  0.00    +0.000 C 
ENDROOT
BRANCH   1  24
ATOM     21  C   UNL     1      -6.970  15.437  17.842  0.00  0.00    +0.000 A 
ATOM     22  C   UNL     1      -6.632  14.094  17.725  0.00  0.00    +0.000 A 
ATOM     23  C   UNL     1      -6.241  13.367  18.851  0.00  0.00    +0.000 A 
ATOM     24  C   UNL     1      -6.085  13.988  20.099  0.00  0.00    +0.000 A 
ATOM     25  C   UNL     1      -6.502  15.328  20.237  0.00  0.00    +0.000 A 
ATOM     26  C   UNL     1      -6.934  16.039  19.100  0.00  0.00    +0.000 A 
BRANCH  21  28
ATOM     27  C   UNL     1      -7.313  17.474  16.670  0.00  0.00    +0.000 C 
ATOM     28  O   UNL     1      -7.327  16.051  16.673  0.00  0.00    +0.000 OA
ENDBRANCH  21  28
BRANCH  25  29
ATOM     29  O   UNL     1      -6.431  15.932  21.469  0.00  0.00    +0.000 OA
ATOM     30  C   UNL     1      -6.107  17.322  21.475  0.00  0.00    +0.000 C 
ENDBRANCH  25  29
ENDBRANCH   1  24
TORSDOF 3
ENDMDL
