MODEL 1
REMARK VINA RESULT:      -7.9      0.000      0.000
REMARK  Name = 
REMARK  6 active torsions:
REMARK  status: ('A' for Active; 'I' for Inactive)
REMARK    1  A    between atoms: C_2  and  C_3
REMARK    2  A    between atoms: C_6  and  N_7
REMARK    3  A    between atoms: C_11  and  C_12
REMARK    4  A    between atoms: N_14  and  C_15
REMARK    5  A    between atoms: C_15  and  C_16
REMARK    6  A    between atoms: C_22  and  C_23
REMARK                            x       y       z     vdW  Elec       q    Type
REMARK                         _______ _______ _______ _____ _____    ______ ____
ROOT
ATOM      1  N   UNL     1       2.870   6.416  18.814  0.00  0.00    +0.000 N 
ATOM      2  C   UNL     1       2.178   7.621  18.876  0.00  0.00    +0.000 A 
ATOM      3  N   UNL     1       1.963   8.370  17.790  0.00  0.00    +0.000 NA
ATOM      4  C   UNL     1       1.282   9.522  17.940  0.00  0.00    +0.000 A 
ATOM      5  C   UNL     1       0.828  10.001  19.149  0.00  0.00    +0.000 A 
ATOM      6  C   UNL     1       1.113   9.200  20.242  0.00  0.00    +0.000 A 
ATOM      7  N   UNL     1       1.772   8.000  20.090  0.00  0.00    +0.000 NA
ATOM      8  H   UNL     1       2.928   6.010  19.737  0.00  0.00    +0.000 HD
ENDROOT
BRANCH   1  12
ATOM      9  C   UNL     1       5.258   4.870  15.686  0.00  0.00    +0.000 A 
ATOM     10  C   UNL     1       5.271   6.233  15.993  0.00  0.00    +0.000 A 
ATOM     11  C   UNL     1       4.496   6.722  17.053  0.00  0.00    +0.000 A 
ATOM     12  C   UNL     1       3.688   5.867  17.818  0.00  0.00    +0.000 A 
ATOM     13  C   UNL     1       3.711   4.504  17.508  0.00  0.00    +0.000 A 
ATOM     14  C   UNL     1       4.482   4.004  16.453  0.00  0.00    +0.000 A 
BRANCH   9  16
ATOM     15  N   UNL     1       6.659   3.960  13.701  0.00  0.00    +0.000 NA
ATOM     16  C   UNL     1       6.031   4.366  14.596  0.00  0.00    +0.000 C 
ENDBRANCH   9  16
ENDBRANCH   1  12
BRANCH   5  17
ATOM     17  C   UNL     1      -0.003  11.216  19.182  0.00  0.00    +0.000 C 
ATOM     18  O   UNL     1       0.551  12.308  19.119  0.00  0.00    +0.000 OA
ATOM     19  N   UNL     1      -1.366  11.061  19.332  0.00  0.00    +0.000 N 
ATOM     20  H   UNL     1      -1.801  10.161  19.484  0.00  0.00    +0.000 HD
BRANCH  19  21
ATOM     21  C   UNL     1      -2.237  12.221  19.376  0.00  0.00    +0.000 C 
BRANCH  21  22
ATOM     22  C   UNL     1      -2.828  12.411  20.747  0.00  0.00    +0.000 A 
ATOM     23  C   UNL     1      -4.173  12.774  20.915  0.00  0.00    +0.000 A 
ATOM     24  C   UNL     1      -4.705  12.947  22.196  0.00  0.00    +0.000 A 
ATOM     25  C   UNL     1      -3.899  12.765  23.318  0.00  0.00    +0.000 A 
ATOM     26  C   UNL     1      -2.560  12.412  23.164  0.00  0.00    +0.000 A 
ATOM     27  C   UNL     1      -2.026  12.241  21.887  0.00  0.00    +0.000 A 
ENDBRANCH  21  22
ENDBRANCH  19  21
ENDBRANCH   5  17
BRANCH   6  28
ATOM     28  C   UNL     1       0.784   9.577  21.676  0.00  0.00    +0.000 C 
ATOM     29  F   UNL     1       1.467   8.930  22.656  0.00  0.00    +0.000 F 
ATOM     30  F   UNL     1       0.927  10.911  21.918  0.00  0.00    +0.000 F 
ATOM     31  F   UNL     1      -0.530   9.302  21.963  0.00  0.00    +0.000 F 
ENDBRANCH   6  28
TORSDOF 6
ENDMDL
MODEL 2
REMARK VINA RESULT:      -7.9      1.255      2.206
REMARK  Name = 
REMARK  6 active torsions:
REMARK  status: ('A' for Active; 'I' for Inactive)
REMARK    1  A    between atoms: C_2  and  C_3
REMARK    2  A    between atoms: C_6  and  N_7
REMARK    3  A    between atoms: C_11  and  C_12
REMARK    4  A    between atoms: N_14  and  C_15
REMARK    5  A    between atoms: C_15  and  C_16
REMARK    6  A    between atoms: C_22  and  C_23
REMARK                            x       y       z     vdW  Elec       q    Type
REMARK                         _______ _______ _______ _____ _____    ______ ____
ROOT
ATOM      1  N   UNL     1       2.859   6.364  18.818  0.00  0.00    +0.000 N 
ATOM      2  C   UNL     1       2.188   7.578  18.923  0.00  0.00    +0.000 A 
ATOM      3  N   UNL     1       2.014   8.385  17.872  0.00  0.00    +0.000 NA
ATOM      4  C   UNL     1       1.351   9.541  18.064  0.00  0.00    +0.000 A 
ATOM      5  C   UNL     1       0.877   9.968  19.284  0.00  0.00    +0.000 A 
ATOM      6  C   UNL     1       1.119   9.107  20.342  0.00  0.00    +0.000 A 
ATOM      7  N   UNL     1       1.758   7.903  20.145  0.00  0.00    +0.000 NA
ATOM      8  H   UNL     1       2.886   5.911  19.719  0.00  0.00    +0.000 HD
ENDROOT
BRANCH   1  12
ATOM      9  C   UNL     1       5.291   4.926  15.672  0.00  0.00    +0.000 A 
ATOM     10  C   UNL     1       5.292   6.279  16.019  0.00  0.00    +0.000 A 
ATOM     11  C   UNL     1       4.502   6.732  17.085  0.00  0.00    +0.000 A 
ATOM     12  C   UNL     1       3.691   5.850  17.815  0.00  0.00    +0.000 A 
ATOM     13  C   UNL     1       3.726   4.496  17.466  0.00  0.00    +0.000 A 
ATOM     14  C   UNL     1       4.512   4.033  16.405  0.00  0.00    +0.000 A 
BRANCH   9  16
ATOM     15  N   UNL     1       6.722   4.084  13.679  0.00  0.00    +0.000 NA
ATOM     16  C   UNL     1       6.079   4.458  14.577  0.00  0.00    +0.000 C 
ENDBRANCH   9  16
ENDBRANCH   1  12
BRANCH   5  17
ATOM     17  C   UNL     1       0.067  11.195  19.359  0.00  0.00    +0.000 C 
ATOM     18  O   UNL     1       0.642  12.279  19.349  0.00  0.00    +0.000 OA
ATOM     19  N   UNL     1      -1.300  11.060  19.485  0.00  0.00    +0.000 N 
ATOM     20  H   UNL     1      -1.753  10.163  19.594  0.00  0.00    +0.000 HD
BRANCH  19  21
ATOM     21  C   UNL     1      -2.150  12.234  19.568  0.00  0.00    +0.000 C 
BRANCH  21  22
ATOM     22  C   UNL     1      -3.484  11.993  18.913  0.00  0.00    +0.000 A 
ATOM     23  C   UNL     1      -3.572  11.458  17.619  0.00  0.00    +0.000 A 
ATOM     24  C   UNL     1      -4.819  11.241  17.027  0.00  0.00    +0.000 A 
ATOM     25  C   UNL     1      -5.987  11.560  17.718  0.00  0.00    +0.000 A 
ATOM     26  C   UNL     1      -5.912  12.099  19.000  0.00  0.00    +0.000 A 
ATOM     27  C   UNL     1      -4.668  12.318  19.593  0.00  0.00    +0.000 A 
ENDBRANCH  21  22
ENDBRANCH  19  21
ENDBRANCH   5  17
BRANCH   6  28
ATOM     28  C   UNL     1       0.760   9.418  21.785  0.00  0.00    +0.000 C 
ATOM     29  F   UNL     1       0.636  10.729  22.120  0.00  0.00    +0.000 F 
ATOM     30  F   UNL     1      -0.388   8.803  22.188  0.00  0.00    +0.000 F 
ATOM     31  F   UNL     1       1.730   8.956  22.639  0.00  0.00    +0.000 F 
ENDBRANCH   6  28
TORSDOF 6
ENDMDL
MODEL 3
REMARK VINA RESULT:      -7.7      6.452      9.334
REMARK  Name = 
REMARK  6 active torsions:
REMARK  status: ('A' for Active; 'I' for Inactive)
REMARK    1  A    between atoms: C_2  and  C_3
REMARK    2  A    between atoms: C_6  and  N_7
REMARK    3  A    between atoms: C_11  and  C_12
REMARK    4  A    between atoms: N_14  and  C_15
REMARK    5  A    between atoms: C_15  and  C_16
REMARK    6  A    between atoms: C_22  and  C_23
REMARK                            x       y       z     vdW  Elec       q    Type
REMARK                         _______ _______ _______ _____ _____    ______ ____
ROOT
ATOM      1  N   UNL     1       9.491   9.820  18.997  0.00  0.00    +0.000 N 
ATOM      2  C   UNL     1       8.540   8.954  18.469  0.00  0.00    +0.000 A 
ATOM      3  N   UNL     1       7.587   9.375  17.631  0.00  0.00    +0.000 NA
ATOM      4  C   UNL     1       6.708   8.467  17.165  0.00  0.00    +0.000 A 
ATOM      5  C   UNL     1       6.700   7.139  17.531  0.00  0.00    +0.000 A 
ATOM      6  C   UNL     1       7.687   6.771  18.429  0.00  0.00    +0.000 A 
ATOM      7  N   UNL     1       8.616   7.685  18.875  0.00  0.00    +0.000 NA
ATOM      8  H   UNL     1      10.114   9.311  19.607  0.00  0.00    +0.000 HD
ENDROOT
BRANCH   1  12
ATOM      9  C   UNL     1       9.815  14.035  19.099  0.00  0.00    +0.000 A 
ATOM     10  C   UNL     1      10.010  13.328  17.910  0.00  0.00    +0.000 A 
ATOM     11  C   UNL     1       9.868  11.935  17.889  0.00  0.00    +0.000 A 
ATOM     12  C   UNL     1       9.541  11.220  19.052  0.00  0.00    +0.000 A 
ATOM     13  C   UNL     1       9.327  11.950  20.225  0.00  0.00    +0.000 A 
ATOM     14  C   UNL     1       9.465  13.342  20.256  0.00  0.00    +0.000 A 
BRANCH   9  16
ATOM     15  N   UNL     1      10.113  16.612  19.158  0.00  0.00    +0.000 NA
ATOM     16  C   UNL     1       9.975  15.454  19.134  0.00  0.00    +0.000 C 
ENDBRANCH   9  16
ENDBRANCH   1  12
BRANCH   5  17
ATOM     17  C   UNL     1       5.763   6.212  16.874  0.00  0.00    +0.000 C 
ATOM     18  O   UNL     1       5.924   5.962  15.684  0.00  0.00    +0.000 OA
ATOM     19  N   UNL     1       4.720   5.710  17.624  0.00  0.00    +0.000 N 
ATOM     20  H   UNL     1       4.539   6.002  18.574  0.00  0.00    +0.000 HD
BRANCH  19  21
ATOM     21  C   UNL     1       3.762   4.796  17.030  0.00  0.00    +0.000 C 
BRANCH  21  22
ATOM     22  C   UNL     1       2.759   4.316  18.045  0.00  0.00    +0.000 A 
ATOM     23  C   UNL     1       2.054   3.117  17.860  0.00  0.00    +0.000 A 
ATOM     24  C   UNL     1       1.126   2.687  18.813  0.00  0.00    +0.000 A 
ATOM     25  C   UNL     1       0.892   3.450  19.955  0.00  0.00    +0.000 A 
ATOM     26  C   UNL     1       1.580   4.646  20.146  0.00  0.00    +0.000 A 
ATOM     27  C   UNL     1       2.505   5.079  19.196  0.00  0.00    +0.000 A 
ENDBRANCH  21  22
ENDBRANCH  19  21
ENDBRANCH   5  17
BRANCH   6  28
ATOM     28  C   UNL     1       7.809   5.382  19.030  0.00  0.00    +0.000 C 
ATOM     29  F   UNL     1       7.941   4.345  18.163  0.00  0.00    +0.000 F 
ATOM     30  F   UNL     1       8.838   5.279  19.919  0.00  0.00    +0.000 F 
ATOM     31  F   UNL     1       6.685   5.061  19.749  0.00  0.00    +0.000 F 
ENDBRANCH   6  28
TORSDOF 6
ENDMDL
MODEL 4
REMARK VINA RESULT:      -7.7      6.482      9.345
REMARK  Name = 
REMARK  6 active torsions:
REMARK  status: ('A' for Active; 'I' for Inactive)
REMARK    1  A    between atoms: C_2  and  C_3
REMARK    2  A    between atoms: C_6  and  N_7
REMARK    3  A    between atoms: C_11  and  C_12
REMARK    4  A    between atoms: N_14  and  C_15
REMARK    5  A    between atoms: C_15  and  C_16
REMARK    6  A    between atoms: C_22  and  C_23
REMARK                            x       y       z     vdW  Elec       q    Type
REMARK                         _______ _______ _______ _____ _____    ______ ____
ROOT
ATOM      1  N   UNL     1       9.495   9.772  18.972  0.00  0.00    +0.000 N 
ATOM      2  C   UNL     1       8.536   8.912  18.450  0.00  0.00    +0.000 A 
ATOM      3  N   UNL     1       7.584   9.336  17.613  0.00  0.00    +0.000 NA
ATOM      4  C   UNL     1       6.696   8.434  17.154  0.00  0.00    +0.000 A 
ATOM      5  C   UNL     1       6.678   7.108  17.525  0.00  0.00    +0.000 A 
ATOM      6  C   UNL     1       7.665   6.735  18.422  0.00  0.00    +0.000 A 
ATOM      7  N   UNL     1       8.602   7.643  18.862  0.00  0.00    +0.000 NA
ATOM      8  H   UNL     1      10.116   9.260  19.582  0.00  0.00    +0.000 HD
ENDROOT
BRANCH   1  12
ATOM      9  C   UNL     1       9.513  13.995  19.188  0.00  0.00    +0.000 A 
ATOM     10  C   UNL     1       9.314  13.218  20.332  0.00  0.00    +0.000 A 
ATOM     11  C   UNL     1       9.343  11.820  20.246  0.00  0.00    +0.000 A 
ATOM     12  C   UNL     1       9.558  11.171  19.020  0.00  0.00    +0.000 A 
ATOM     13  C   UNL     1       9.778  11.969  17.893  0.00  0.00    +0.000 A 
ATOM     14  C   UNL     1       9.754  13.366  17.968  0.00  0.00    +0.000 A 
BRANCH   9  16
ATOM     15  N   UNL     1       9.434  16.585  19.315  0.00  0.00    +0.000 NA
ATOM     16  C   UNL     1       9.469  15.421  19.263  0.00  0.00    +0.000 C 
ENDBRANCH   9  16
ENDBRANCH   1  12
BRANCH   5  17
ATOM     17  C   UNL     1       5.732   6.186  16.875  0.00  0.00    +0.000 C 
ATOM     18  O   UNL     1       5.888   5.927  15.686  0.00  0.00    +0.000 OA
ATOM     19  N   UNL     1       4.685   5.697  17.629  0.00  0.00    +0.000 N 
ATOM     20  H   UNL     1       4.509   5.996  18.578  0.00  0.00    +0.000 HD
BRANCH  19  21
ATOM     21  C   UNL     1       3.718   4.788  17.042  0.00  0.00    +0.000 C 
BRANCH  21  22
ATOM     22  C   UNL     1       2.721   4.312  18.065  0.00  0.00    +0.000 A 
ATOM     23  C   UNL     1       2.480   5.041  19.239  0.00  0.00    +0.000 A 
ATOM     24  C   UNL     1       1.551   4.584  20.178  0.00  0.00    +0.000 A 
ATOM     25  C   UNL     1       0.859   3.395  19.956  0.00  0.00    +0.000 A 
ATOM     26  C   UNL     1       1.095   2.659  18.797  0.00  0.00    +0.000 A 
ATOM     27  C   UNL     1       2.024   3.112  17.859  0.00  0.00    +0.000 A 
ENDBRANCH  21  22
ENDBRANCH  19  21
ENDBRANCH   5  17
BRANCH   6  28
ATOM     28  C   UNL     1       7.777   5.348  19.029  0.00  0.00    +0.000 C 
ATOM     29  F   UNL     1       6.707   4.895  19.733  0.00  0.00    +0.000 F 
ATOM     30  F   UNL     1       8.068   4.389  18.104  0.00  0.00    +0.000 F 
ATOM     31  F   UNL     1       8.806   5.293  19.935  0.00  0.00    +0.000 F 
ENDBRANCH   6  28
TORSDOF 6
ENDMDL
MODEL 5
REMARK VINA RESULT:      -7.6      7.077      9.723
REMARK  Name = 
REMARK  6 active torsions:
REMARK  status: ('A' for Active; 'I' for Inactive)
REMARK    1  A    between atoms: C_2  and  C_3
REMARK    2  A    between atoms: C_6  and  N_7
REMARK    3  A    between atoms: C_11  and  C_12
REMARK    4  A    between atoms: N_14  and  C_15
REMARK    5  A    between atoms: C_15  and  C_16
REMARK    6  A    between atoms: C_22  and  C_23
REMARK                            x       y       z     vdW  Elec       q    Type
REMARK                         _______ _______ _______ _____ _____    ______ ____
ROOT
ATOM      1  N   UNL     1       9.403   9.757  19.333  0.00  0.00    +0.000 N 
ATOM      2  C   UNL     1       8.581   8.864  18.654  0.00  0.00    +0.000 A 
ATOM      3  N   UNL     1       7.765   9.258  17.672  0.00  0.00    +0.000 NA
ATOM      4  C   UNL     1       7.005   8.325  17.067  0.00  0.00    +0.000 A 
ATOM      5  C   UNL     1       6.982   6.995  17.423  0.00  0.00    +0.000 A 
ATOM      6  C   UNL     1       7.821   6.653  18.471  0.00  0.00    +0.000 A 
ATOM      7  N   UNL     1       8.633   7.594  19.065  0.00  0.00    +0.000 NA
ATOM      8  H   UNL     1       9.934   9.264  20.035  0.00  0.00    +0.000 HD
ENDROOT
BRANCH   1  12
ATOM      9  C   UNL     1       9.219  13.972  19.613  0.00  0.00    +0.000 A 
ATOM     10  C   UNL     1       9.162  13.173  20.757  0.00  0.00    +0.000 A 
ATOM     11  C   UNL     1       9.255  11.779  20.647  0.00  0.00    +0.000 A 
ATOM     12  C   UNL     1       9.396  11.157  19.397  0.00  0.00    +0.000 A 
ATOM     13  C   UNL     1       9.475  11.978  18.268  0.00  0.00    +0.000 A 
ATOM     14  C   UNL     1       9.384  13.370  18.367  0.00  0.00    +0.000 A 
BRANCH   9  16
ATOM     15  N   UNL     1       9.016  16.552  19.788  0.00  0.00    +0.000 NA
ATOM     16  C   UNL     1       9.107  15.392  19.714  0.00  0.00    +0.000 C 
ENDBRANCH   9  16
ENDBRANCH   1  12
BRANCH   5  17
ATOM     17  C   UNL     1       6.198   6.042  16.620  0.00  0.00    +0.000 C 
ATOM     18  O   UNL     1       6.582   5.775  15.486  0.00  0.00    +0.000 OA
ATOM     19  N   UNL     1       5.039   5.534  17.171  0.00  0.00    +0.000 N 
ATOM     20  H   UNL     1       4.680   5.838  18.065  0.00  0.00    +0.000 HD
BRANCH  19  21
ATOM     21  C   UNL     1       4.222   4.595  16.425  0.00  0.00    +0.000 C 
BRANCH  21  22
ATOM     22  C   UNL     1       3.317   3.811  17.337  0.00  0.00    +0.000 A 
ATOM     23  C   UNL     1       2.052   4.298  17.700  0.00  0.00    +0.000 A 
ATOM     24  C   UNL     1       1.225   3.556  18.548  0.00  0.00    +0.000 A 
ATOM     25  C   UNL     1       1.654   2.327  19.045  0.00  0.00    +0.000 A 
ATOM     26  C   UNL     1       2.911   1.837  18.698  0.00  0.00    +0.000 A 
ATOM     27  C   UNL     1       3.739   2.576  17.853  0.00  0.00    +0.000 A 
ENDBRANCH  21  22
ENDBRANCH  19  21
ENDBRANCH   5  17
BRANCH   6  28
ATOM     28  C   UNL     1       7.890   5.264  19.082  0.00  0.00    +0.000 C 
ATOM     29  F   UNL     1       8.849   5.050  20.019  0.00  0.00    +0.000 F 
ATOM     30  F   UNL     1       6.708   4.873  19.637  0.00  0.00    +0.000 F 
ATOM     31  F   UNL     1       8.161   4.322  18.121  0.00  0.00    +0.000 F 
ENDBRANCH   6  28
TORSDOF 6
ENDMDL
MODEL 6
REMARK VINA RESULT:      -7.6      7.186      9.666
REMARK  Name = 
REMARK  6 active torsions:
REMARK  status: ('A' for Active; 'I' for Inactive)
REMARK    1  A    between atoms: C_2  and  C_3
REMARK    2  A    between atoms: C_6  and  N_7
REMARK    3  A    between atoms: C_11  and  C_12
REMARK    4  A    between atoms: N_14  and  C_15
REMARK    5  A    between atoms: C_15  and  C_16
REMARK    6  A    between atoms: C_22  and  C_23
REMARK                            x       y       z     vdW  Elec       q    Type
REMARK                         _______ _______ _______ _____ _____    ______ ____
ROOT
ATOM      1  N   UNL     1       9.459   9.716  19.237  0.00  0.00    +0.000 N 
ATOM      2  C   UNL     1       8.569   8.858  18.600  0.00  0.00    +0.000 A 
ATOM      3  N   UNL     1       7.706   9.291  17.676  0.00  0.00    +0.000 NA
ATOM      4  C   UNL     1       6.881   8.391  17.108  0.00  0.00    +0.000 A 
ATOM      5  C   UNL     1       6.838   7.057  17.449  0.00  0.00    +0.000 A 
ATOM      6  C   UNL     1       7.729   6.676  18.439  0.00  0.00    +0.000 A 
ATOM      7  N   UNL     1       8.606   7.582  18.992  0.00  0.00    +0.000 NA
ATOM      8  H   UNL     1      10.017   9.197  19.899  0.00  0.00    +0.000 HD
ENDROOT
BRANCH   1  12
ATOM      9  C   UNL     1       9.757  13.930  19.422  0.00  0.00    +0.000 A 
ATOM     10  C   UNL     1       9.965  13.247  18.220  0.00  0.00    +0.000 A 
ATOM     11  C   UNL     1       9.831  11.853  18.172  0.00  0.00    +0.000 A 
ATOM     12  C   UNL     1       9.501  11.114  19.318  0.00  0.00    +0.000 A 
ATOM     13  C   UNL     1       9.273  11.821  20.503  0.00  0.00    +0.000 A 
ATOM     14  C   UNL     1       9.402  13.213  20.563  0.00  0.00    +0.000 A 
BRANCH   9  16
ATOM     15  N   UNL     1      10.028  16.507  19.544  0.00  0.00    +0.000 NA
ATOM     16  C   UNL     1       9.908  15.349  19.484  0.00  0.00    +0.000 C 
ENDBRANCH   9  16
ENDBRANCH   1  12
BRANCH   5  17
ATOM     17  C   UNL     1       5.976   6.141  16.686  0.00  0.00    +0.000 C 
ATOM     18  O   UNL     1       6.170   6.021  15.480  0.00  0.00    +0.000 OA
ATOM     19  N   UNL     1       4.959   5.498  17.361  0.00  0.00    +0.000 N 
ATOM     20  H   UNL     1       4.746   5.681  18.332  0.00  0.00    +0.000 HD
BRANCH  19  21
ATOM     21  C   UNL     1       4.074   4.586  16.661  0.00  0.00    +0.000 C 
BRANCH  21  22
ATOM     22  C   UNL     1       3.226   3.797  17.622  0.00  0.00    +0.000 A 
ATOM     23  C   UNL     1       1.829   3.934  17.641  0.00  0.00    +0.000 A 
ATOM     24  C   UNL     1       1.057   3.194  18.540  0.00  0.00    +0.000 A 
ATOM     25  C   UNL     1       1.671   2.317  19.432  0.00  0.00    +0.000 A 
ATOM     26  C   UNL     1       3.058   2.178  19.429  0.00  0.00    +0.000 A 
ATOM     27  C   UNL     1       3.831   2.917  18.533  0.00  0.00    +0.000 A 
ENDBRANCH  21  22
ENDBRANCH  19  21
ENDBRANCH   5  17
BRANCH   6  28
ATOM     28  C   UNL     1       7.792   5.277  19.027  0.00  0.00    +0.000 C 
ATOM     29  F   UNL     1       6.692   4.839  19.694  0.00  0.00    +0.000 F 
ATOM     30  F   UNL     1       8.086   4.325  18.096  0.00  0.00    +0.000 F 
ATOM     31  F   UNL     1       8.794   5.184  19.960  0.00  0.00    +0.000 F 
ENDBRANCH   6  28
TORSDOF 6
ENDMDL
MODEL 7
REMARK VINA RESULT:      -7.6      2.330      3.158
REMARK  Name = 
REMARK  6 active torsions:
REMARK  status: ('A' for Active; 'I' for Inactive)
REMARK    1  A    between atoms: C_2  and  C_3
REMARK    2  A    between atoms: C_6  and  N_7
REMARK    3  A    between atoms: C_11  and  C_12
REMARK    4  A    between atoms: N_14  and  C_15
REMARK    5  A    between atoms: C_15  and  C_16
REMARK    6  A    between atoms: C_22  and  C_23
REMARK                            x       y       z     vdW  Elec       q    Type
REMARK                         _______ _______ _______ _____ _____    ______ ____
ROOT
ATOM      1  N   UNL     1       2.972   6.374  18.855  0.00  0.00    +0.000 N 
ATOM      2  C   UNL     1       2.211   7.536  18.908  0.00  0.00    +0.000 A 
ATOM      3  N   UNL     1       1.906   8.234  17.809  0.00  0.00    +0.000 NA
ATOM      4  C   UNL     1       1.162   9.348  17.952  0.00  0.00    +0.000 A 
ATOM      5  C   UNL     1       0.730   9.839  19.164  0.00  0.00    +0.000 A 
ATOM      6  C   UNL     1       1.107   9.094  20.269  0.00  0.00    +0.000 A 
ATOM      7  N   UNL     1       1.831   7.931  20.126  0.00  0.00    +0.000 NA
ATOM      8  H   UNL     1       3.092   6.003  19.786  0.00  0.00    +0.000 HD
ENDROOT
BRANCH   1  12
ATOM      9  C   UNL     1       5.333   4.882  15.680  0.00  0.00    +0.000 A 
ATOM     10  C   UNL     1       5.353   6.238  16.014  0.00  0.00    +0.000 A 
ATOM     11  C   UNL     1       4.587   6.709  17.089  0.00  0.00    +0.000 A 
ATOM     12  C   UNL     1       3.781   5.842  17.842  0.00  0.00    +0.000 A 
ATOM     13  C   UNL     1       3.796   4.485  17.505  0.00  0.00    +0.000 A 
ATOM     14  C   UNL     1       4.558   4.004  16.435  0.00  0.00    +0.000 A 
BRANCH   9  16
ATOM     15  N   UNL     1       6.725   3.994  13.679  0.00  0.00    +0.000 NA
ATOM     16  C   UNL     1       6.096   4.396  14.575  0.00  0.00    +0.000 C 
ENDBRANCH   9  16
ENDBRANCH   1  12
BRANCH   5  17
ATOM     17  C   UNL     1      -0.173  11.002  19.194  0.00  0.00    +0.000 C 
ATOM     18  O   UNL     1      -1.383  10.805  19.235  0.00  0.00    +0.000 OA
ATOM     19  N   UNL     1       0.392  12.259  19.126  0.00  0.00    +0.000 N 
ATOM     20  H   UNL     1       1.382  12.407  18.991  0.00  0.00    +0.000 HD
BRANCH  19  21
ATOM     21  C   UNL     1      -0.447  13.443  19.147  0.00  0.00    +0.000 C 
BRANCH  21  22
ATOM     22  C   UNL     1       0.346  14.683  18.831  0.00  0.00    +0.000 A 
ATOM     23  C   UNL     1      -0.282  15.928  18.675  0.00  0.00    +0.000 A 
ATOM     24  C   UNL     1       0.470  17.069  18.382  0.00  0.00    +0.000 A 
ATOM     25  C   UNL     1       1.853  16.977  18.236  0.00  0.00    +0.000 A 
ATOM     26  C   UNL     1       2.487  15.745  18.381  0.00  0.00    +0.000 A 
ATOM     27  C   UNL     1       1.738  14.604  18.672  0.00  0.00    +0.000 A 
ENDBRANCH  21  22
ENDBRANCH  19  21
ENDBRANCH   5  17
BRANCH   6  28
ATOM     28  C   UNL     1       0.813   9.498  21.703  0.00  0.00    +0.000 C 
ATOM     29  F   UNL     1       1.562   8.914  22.674  0.00  0.00    +0.000 F 
ATOM     30  F   UNL     1       0.903  10.845  21.900  0.00  0.00    +0.000 F 
ATOM     31  F   UNL     1      -0.475   9.173  22.047  0.00  0.00    +0.000 F 
ENDBRANCH   6  28
TORSDOF 6
ENDMDL
MODEL 8
REMARK VINA RESULT:      -7.6      0.490      1.017
REMARK  Name = 
REMARK  6 active torsions:
REMARK  status: ('A' for Active; 'I' for Inactive)
REMARK    1  A    between atoms: C_2  and  C_3
REMARK    2  A    between atoms: C_6  and  N_7
REMARK    3  A    between atoms: C_11  and  C_12
REMARK    4  A    between atoms: N_14  and  C_15
REMARK    5  A    between atoms: C_15  and  C_16
REMARK    6  A    between atoms: C_22  and  C_23
REMARK                            x       y       z     vdW  Elec       q    Type
REMARK                         _______ _______ _______ _____ _____    ______ ____
ROOT
ATOM      1  N   UNL     1       2.613   6.691  19.013  0.00  0.00    +0.000 N 
ATOM      2  C   UNL     1       1.945   7.905  19.127  0.00  0.00    +0.000 A 
ATOM      3  N   UNL     1       1.743   8.704  18.074  0.00  0.00    +0.000 NA
ATOM      4  C   UNL     1       1.085   9.861  18.274  0.00  0.00    +0.000 A 
ATOM      5  C   UNL     1       0.642  10.297  19.503  0.00  0.00    +0.000 A 
ATOM      6  C   UNL     1       0.912   9.445  20.561  0.00  0.00    +0.000 A 
ATOM      7  N   UNL     1       1.547   8.240  20.356  0.00  0.00    +0.000 NA
ATOM      8  H   UNL     1       2.665   6.245  19.917  0.00  0.00    +0.000 HD
ENDROOT
BRANCH   1  12
ATOM      9  C   UNL     1       5.119   4.999  16.056  0.00  0.00    +0.000 A 
ATOM     10  C   UNL     1       4.208   4.210  16.764  0.00  0.00    +0.000 A 
ATOM     11  C   UNL     1       3.365   4.794  17.718  0.00  0.00    +0.000 A 
ATOM     12  C   UNL     1       3.420   6.169  17.993  0.00  0.00    +0.000 A 
ATOM     13  C   UNL     1       4.321   6.943  17.255  0.00  0.00    +0.000 A 
ATOM     14  C   UNL     1       5.167   6.371  16.299  0.00  0.00    +0.000 A 
BRANCH   9  16
ATOM     15  N   UNL     1       6.713   3.937  14.308  0.00  0.00    +0.000 NA
ATOM     16  C   UNL     1       5.995   4.410  15.095  0.00  0.00    +0.000 C 
ENDBRANCH   9  16
ENDBRANCH   1  12
BRANCH   5  17
ATOM     17  C   UNL     1      -0.166  11.525  19.589  0.00  0.00    +0.000 C 
ATOM     18  O   UNL     1       0.411  12.607  19.601  0.00  0.00    +0.000 OA
ATOM     19  N   UNL     1      -1.535  11.390  19.702  0.00  0.00    +0.000 N 
ATOM     20  H   UNL     1      -1.990  10.493  19.793  0.00  0.00    +0.000 HD
BRANCH  19  21
ATOM     21  C   UNL     1      -2.383  12.564  19.796  0.00  0.00    +0.000 C 
BRANCH  21  22
ATOM     22  C   UNL     1      -3.097  12.621  21.120  0.00  0.00    +0.000 A 
ATOM     23  C   UNL     1      -4.467  12.916  21.195  0.00  0.00    +0.000 A 
ATOM     24  C   UNL     1      -5.113  12.965  22.433  0.00  0.00    +0.000 A 
ATOM     25  C   UNL     1      -4.398  12.726  23.606  0.00  0.00    +0.000 A 
ATOM     26  C   UNL     1      -3.036  12.440  23.544  0.00  0.00    +0.000 A 
ATOM     27  C   UNL     1      -2.388  12.392  22.309  0.00  0.00    +0.000 A 
ENDBRANCH  21  22
ENDBRANCH  19  21
ENDBRANCH   5  17
BRANCH   6  28
ATOM     28  C   UNL     1       0.591   9.767  22.010  0.00  0.00    +0.000 C 
ATOM     29  F   UNL     1       1.413   9.240  22.955  0.00  0.00    +0.000 F 
ATOM     30  F   UNL     1       0.529  11.107  22.252  0.00  0.00    +0.000 F 
ATOM     31  F   UNL     1      -0.648   9.286  22.354  0.00  0.00    +0.000 F 
ENDBRANCH   6  28
TORSDOF 6
ENDMDL
MODEL 9
REMARK VINA RESULT:      -7.6      1.307      2.215
REMARK  Name = 
REMARK  6 active torsions:
REMARK  status: ('A' for Active; 'I' for Inactive)
REMARK    1  A    between atoms: C_2  and  C_3
REMARK    2  A    between atoms: C_6  and  N_7
REMARK    3  A    between atoms: C_11  and  C_12
REMARK    4  A    between atoms: N_14  and  C_15
REMARK    5  A    between atoms: C_15  and  C_16
REMARK    6  A    between atoms: C_22  and  C_23
REMARK                            x       y       z     vdW  Elec       q    Type
REMARK                         _______ _______ _______ _____ _____    ______ ____
ROOT
ATOM      1  N   UNL     1       2.699   6.665  18.917  0.00  0.00    +0.000 N 
ATOM      2  C   UNL     1       1.994   7.857  19.040  0.00  0.00    +0.000 A 
ATOM      3  N   UNL     1       1.755   8.650  17.991  0.00  0.00    +0.000 NA
ATOM      4  C   UNL     1       1.063   9.786  18.200  0.00  0.00    +0.000 A 
ATOM      5  C   UNL     1       0.619  10.206  19.435  0.00  0.00    +0.000 A 
ATOM      6  C   UNL     1       0.928   9.361  20.488  0.00  0.00    +0.000 A 
ATOM      7  N   UNL     1       1.598   8.177  20.275  0.00  0.00    +0.000 NA
ATOM      8  H   UNL     1       2.774   6.219  19.820  0.00  0.00    +0.000 HD
ENDROOT
BRANCH   1  12
ATOM      9  C   UNL     1       5.219   5.052  15.929  0.00  0.00    +0.000 A 
ATOM     10  C   UNL     1       4.306   4.244  16.612  0.00  0.00    +0.000 A 
ATOM     11  C   UNL     1       3.458   4.802  17.578  0.00  0.00    +0.000 A 
ATOM     12  C   UNL     1       3.510   6.170  17.887  0.00  0.00    +0.000 A 
ATOM     13  C   UNL     1       4.414   6.963  17.174  0.00  0.00    +0.000 A 
ATOM     14  C   UNL     1       5.264   6.417  16.207  0.00  0.00    +0.000 A 
BRANCH   9  16
ATOM     15  N   UNL     1       6.825   4.032  14.166  0.00  0.00    +0.000 NA
ATOM     16  C   UNL     1       6.100   4.488  14.956  0.00  0.00    +0.000 C 
ENDBRANCH   9  16
ENDBRANCH   1  12
BRANCH   5  17
ATOM     17  C   UNL     1      -0.226  11.407  19.532  0.00  0.00    +0.000 C 
ATOM     18  O   UNL     1       0.316  12.508  19.537  0.00  0.00    +0.000 OA
ATOM     19  N   UNL     1      -1.588  11.229  19.661  0.00  0.00    +0.000 N 
ATOM     20  H   UNL     1      -2.014  10.318  19.757  0.00  0.00    +0.000 HD
BRANCH  19  21
ATOM     21  C   UNL     1      -2.472  12.375  19.766  0.00  0.00    +0.000 C 
BRANCH  21  22
ATOM     22  C   UNL     1      -3.817  12.089  19.152  0.00  0.00    +0.000 A 
ATOM     23  C   UNL     1      -5.006  12.384  19.836  0.00  0.00    +0.000 A 
ATOM     24  C   UNL     1      -6.245  12.112  19.251  0.00  0.00    +0.000 A 
ATOM     25  C   UNL     1      -6.309  11.539  17.982  0.00  0.00    +0.000 A 
ATOM     26  C   UNL     1      -5.135  11.234  17.296  0.00  0.00    +0.000 A 
ATOM     27  C   UNL     1      -3.896  11.504  17.879  0.00  0.00    +0.000 A 
ENDBRANCH  21  22
ENDBRANCH  19  21
ENDBRANCH   5  17
BRANCH   6  28
ATOM     28  C   UNL     1       0.613   9.671  21.941  0.00  0.00    +0.000 C 
ATOM     29  F   UNL     1       1.480   9.199  22.874  0.00  0.00    +0.000 F 
ATOM     30  F   UNL     1       0.475  11.007  22.178  0.00  0.00    +0.000 F 
ATOM     31  F   UNL     1      -0.589   9.119  22.308  0.00  0.00    +0.000 F 
ENDBRANCH   6  28
TORSDOF 6
ENDMDL
