MODEL 1
REMARK VINA RESULT:      -7.8      0.000      0.000
REMARK  Name = 
REMARK  10 active torsions:
REMARK  status: ('A' for Active; 'I' for Inactive)
REMARK    1  A    between atoms: C_1  and  C_2
REMARK    2  A    between atoms: C_4  and  O_5
REMARK    3  A    between atoms: O_5  and  C_6
REMARK    4  A    between atoms: C_8  and  C_9
REMARK    5  A    between atoms: C_12  and  C_13
REMARK    6  A    between atoms: N_14  and  O_15
REMARK    7  A    between atoms: N_19  and  C_20
REMARK    8  A    between atoms: C_29  and  C_30
REMARK    9  A    between atoms: C_30  and  C_31
REMARK   10  A    between atoms: C_30  and  C_32
REMARK                            x       y       z     vdW  Elec       q    Type
REMARK                         _______ _______ _______ _____ _____    ______ ____
ROOT
ATOM      1  C   UNL     1       1.122  12.740  20.988  0.00  0.00    +0.000 A 
ATOM      2  N   UNL     1       1.839  13.749  21.565  0.00  0.00    +0.000 NA
ATOM      3  C   UNL     1       2.762  14.395  20.827  0.00  0.00    +0.000 A 
ATOM      4  C   UNL     1       3.567  15.449  21.524  0.00  0.00    +0.000 C 
ATOM      5  C   UNL     1       2.987  14.093  19.494  0.00  0.00    +0.000 A 
ATOM      6  C   UNL     1       2.218  13.092  18.901  0.00  0.00    +0.000 A 
ATOM      7  C   UNL     1       1.258  12.392  19.650  0.00  0.00    +0.000 A 
ENDROOT
BRANCH   7   8
ATOM      8  C   UNL     1       0.447  11.325  18.953  0.00  0.00    +0.000 C 
ATOM      9  N   UNL     1      -0.544  11.710  18.205  0.00  0.00    +0.000 NA
ATOM     10  N   UNL     1       0.877  10.017  19.141  0.00  0.00    +0.000 N 
ATOM     11  C   UNL     1       1.255   9.162  18.005  0.00  0.00    +0.000 C 
ATOM     12  C   UNL     1       2.453   8.281  18.435  0.00  0.00    +0.000 C 
ATOM     13  N   UNL     1       2.100   7.507  19.643  0.00  0.00    +0.000 N 
ATOM     14  C   UNL     1       1.561   8.301  20.770  0.00  0.00    +0.000 C 
ATOM     15  C   UNL     1       0.418   9.231  20.297  0.00  0.00    +0.000 C 
BRANCH  13  16
ATOM     16  C   UNL     1       2.440   6.174  19.775  0.00  0.00    +0.000 A 
ATOM     17  C   UNL     1       3.506   5.603  19.065  0.00  0.00    +0.000 A 
ATOM     18  C   UNL     1       3.802   4.235  19.151  0.00  0.00    +0.000 A 
ATOM     19  C   UNL     1       3.030   3.408  19.959  0.00  0.00    +0.000 A 
ATOM     20  C   UNL     1       1.976   3.948  20.683  0.00  0.00    +0.000 A 
ATOM     21  C   UNL     1       1.690   5.315  20.590  0.00  0.00    +0.000 A 
ENDBRANCH  13  16
BRANCH   9  22
ATOM     22  O   UNL     1      -1.224  10.631  17.626  0.00  0.00    +0.000 OA
ATOM     23  H   UNL     1      -0.761  10.540  16.774  0.00  0.00    +0.000 HD
ENDBRANCH   9  22
ENDBRANCH   7   8
BRANCH   1  24
ATOM     24  O   UNL     1       0.242  12.049  21.806  0.00  0.00    +0.000 OA
BRANCH  24  28
ATOM     25  C   UNL     1      -2.377  14.931  24.760  0.00  0.00    +0.000 C 
ATOM     26  C   UNL     1      -2.268  14.077  23.530  0.00  0.00    +0.000 A 
ATOM     27  C   UNL     1      -1.078  13.404  23.224  0.00  0.00    +0.000 A 
ATOM     28  C   UNL     1      -0.988  12.618  22.074  0.00  0.00    +0.000 A 
ATOM     29  C   UNL     1      -2.090  12.521  21.213  0.00  0.00    +0.000 A 
ATOM     30  C   UNL     1      -3.296  13.175  21.501  0.00  0.00    +0.000 A 
ATOM     31  C   UNL     1      -3.368  13.959  22.664  0.00  0.00    +0.000 A 
BRANCH  30  32
ATOM     32  C   UNL     1      -4.465  13.040  20.540  0.00  0.00    +0.000 C 
ATOM     33  C   UNL     1      -4.117  12.206  19.304  0.00  0.00    +0.000 C 
ATOM     34  C   UNL     1      -5.705  12.481  21.240  0.00  0.00    +0.000 C 
ENDBRANCH  30  32
ENDBRANCH  24  28
ENDBRANCH   1  24
TORSDOF 6
ENDMDL
MODEL 2
REMARK VINA RESULT:      -7.7      3.016      9.764
REMARK  Name = 
REMARK  10 active torsions:
REMARK  status: ('A' for Active; 'I' for Inactive)
REMARK    1  A    between atoms: C_1  and  C_2
REMARK    2  A    between atoms: C_4  and  O_5
REMARK    3  A    between atoms: O_5  and  C_6
REMARK    4  A    between atoms: C_8  and  C_9
REMARK    5  A    between atoms: C_12  and  C_13
REMARK    6  A    between atoms: N_14  and  O_15
REMARK    7  A    between atoms: N_19  and  C_20
REMARK    8  A    between atoms: C_29  and  C_30
REMARK    9  A    between atoms: C_30  and  C_31
REMARK   10  A    between atoms: C_30  and  C_32
REMARK                            x       y       z     vdW  Elec       q    Type
REMARK                         _______ _______ _______ _____ _____    ______ ____
ROOT
ATOM      1  C   UNL     1       2.853   6.710  18.392  0.00  0.00    +0.000 A 
ATOM      2  N   UNL     1       2.949   5.419  18.830  0.00  0.00    +0.000 NA
ATOM      3  C   UNL     1       2.374   5.088  20.002  0.00  0.00    +0.000 A 
ATOM      4  C   UNL     1       2.563   3.678  20.471  0.00  0.00    +0.000 C 
ATOM      5  C   UNL     1       1.662   6.002  20.762  0.00  0.00    +0.000 A 
ATOM      6  C   UNL     1       1.531   7.305  20.284  0.00  0.00    +0.000 A 
ATOM      7  C   UNL     1       2.131   7.683  19.071  0.00  0.00    +0.000 A 
ENDROOT
BRANCH   7   8
ATOM      8  C   UNL     1       1.948   9.105  18.596  0.00  0.00    +0.000 C 
ATOM      9  N   UNL     1       2.630   9.489  17.558  0.00  0.00    +0.000 NA
ATOM     10  N   UNL     1       1.017   9.863  19.295  0.00  0.00    +0.000 N 
ATOM     11  C   UNL     1      -0.140  10.472  18.621  0.00  0.00    +0.000 C 
ATOM     12  C   UNL     1      -1.355  10.402  19.577  0.00  0.00    +0.000 C 
ATOM     13  N   UNL     1      -1.025  11.062  20.857  0.00  0.00    +0.000 N 
ATOM     14  C   UNL     1       0.221  10.598  21.508  0.00  0.00    +0.000 C 
ATOM     15  C   UNL     1       1.403  10.602  20.508  0.00  0.00    +0.000 C 
BRANCH  13  16
ATOM     16  C   UNL     1      -1.921  11.901  21.493  0.00  0.00    +0.000 A 
ATOM     17  C   UNL     1      -2.058  11.924  22.889  0.00  0.00    +0.000 A 
ATOM     18  C   UNL     1      -3.017  12.726  23.524  0.00  0.00    +0.000 A 
ATOM     19  C   UNL     1      -3.861  13.528  22.766  0.00  0.00    +0.000 A 
ATOM     20  C   UNL     1      -3.740  13.535  21.383  0.00  0.00    +0.000 A 
ATOM     21  C   UNL     1      -2.779  12.731  20.760  0.00  0.00    +0.000 A 
ENDBRANCH  13  16
BRANCH   9  22
ATOM     22  O   UNL     1       2.384  10.827  17.225  0.00  0.00    +0.000 OA
ATOM     23  H   UNL     1       1.431  10.810  17.028  0.00  0.00    +0.000 HD
ENDBRANCH   9  22
ENDBRANCH   7   8
BRANCH   1  24
ATOM     24  O   UNL     1       3.527   7.026  17.223  0.00  0.00    +0.000 OA
BRANCH  24  28
ATOM     25  C   UNL     1       7.934   5.968  19.054  0.00  0.00    +0.000 C 
ATOM     26  C   UNL     1       6.936   5.902  17.935  0.00  0.00    +0.000 A 
ATOM     27  C   UNL     1       5.685   6.524  18.048  0.00  0.00    +0.000 A 
ATOM     28  C   UNL     1       4.764   6.450  17.002  0.00  0.00    +0.000 A 
ATOM     29  C   UNL     1       5.087   5.732  15.843  0.00  0.00    +0.000 A 
ATOM     30  C   UNL     1       6.335   5.109  15.699  0.00  0.00    +0.000 A 
ATOM     31  C   UNL     1       7.250   5.197  16.760  0.00  0.00    +0.000 A 
BRANCH  30  32
ATOM     32  C   UNL     1       6.643   4.342  14.424  0.00  0.00    +0.000 C 
ATOM     33  C   UNL     1       5.378   3.920  13.672  0.00  0.00    +0.000 C 
ATOM     34  C   UNL     1       7.581   5.130  13.509  0.00  0.00    +0.000 C 
ENDBRANCH  30  32
ENDBRANCH  24  28
ENDBRANCH   1  24
TORSDOF 6
ENDMDL
MODEL 3
REMARK VINA RESULT:      -7.6      0.741      2.369
REMARK  Name = 
REMARK  10 active torsions:
REMARK  status: ('A' for Active; 'I' for Inactive)
REMARK    1  A    between atoms: C_1  and  C_2
REMARK    2  A    between atoms: C_4  and  O_5
REMARK    3  A    between atoms: O_5  and  C_6
REMARK    4  A    between atoms: C_8  and  C_9
REMARK    5  A    between atoms: C_12  and  C_13
REMARK    6  A    between atoms: N_14  and  O_15
REMARK    7  A    between atoms: N_19  and  C_20
REMARK    8  A    between atoms: C_29  and  C_30
REMARK    9  A    between atoms: C_30  and  C_31
REMARK   10  A    between atoms: C_30  and  C_32
REMARK                            x       y       z     vdW  Elec       q    Type
REMARK                         _______ _______ _______ _____ _____    ______ ____
ROOT
ATOM      1  C   UNL     1       0.767  13.009  21.346  0.00  0.00    +0.000 A 
ATOM      2  N   UNL     1       1.493  14.026  21.899  0.00  0.00    +0.000 NA
ATOM      3  C   UNL     1       2.408  14.658  21.138  0.00  0.00    +0.000 A 
ATOM      4  C   UNL     1       3.223  15.721  21.809  0.00  0.00    +0.000 C 
ATOM      5  C   UNL     1       2.615  14.334  19.808  0.00  0.00    +0.000 A 
ATOM      6  C   UNL     1       1.838  13.326  19.240  0.00  0.00    +0.000 A 
ATOM      7  C   UNL     1       0.885  12.640  20.012  0.00  0.00    +0.000 A 
ENDROOT
BRANCH   7   8
ATOM      8  C   UNL     1       0.064  11.564  19.342  0.00  0.00    +0.000 C 
ATOM      9  N   UNL     1      -1.009  11.929  18.705  0.00  0.00    +0.000 NA
ATOM     10  N   UNL     1       0.569  10.273  19.431  0.00  0.00    +0.000 N 
ATOM     11  C   UNL     1       0.880   9.485  18.227  0.00  0.00    +0.000 C 
ATOM     12  C   UNL     1       2.151   8.648  18.506  0.00  0.00    +0.000 C 
ATOM     13  N   UNL     1       1.946   7.808  19.704  0.00  0.00    +0.000 N 
ATOM     14  C   UNL     1       1.478   8.526  20.911  0.00  0.00    +0.000 C 
ATOM     15  C   UNL     1       0.255   9.417  20.586  0.00  0.00    +0.000 C 
BRANCH  13  16
ATOM     16  C   UNL     1       2.358   6.489  19.744  0.00  0.00    +0.000 A 
ATOM     17  C   UNL     1       3.375   6.001  18.911  0.00  0.00    +0.000 A 
ATOM     18  C   UNL     1       3.740   4.646  18.907  0.00  0.00    +0.000 A 
ATOM     19  C   UNL     1       3.088   3.751  19.746  0.00  0.00    +0.000 A 
ATOM     20  C   UNL     1       2.086   4.208  20.591  0.00  0.00    +0.000 A 
ATOM     21  C   UNL     1       1.730   5.562  20.587  0.00  0.00    +0.000 A 
ENDBRANCH  13  16
BRANCH   9  22
ATOM     22  O   UNL     1      -1.688  10.843  18.140  0.00  0.00    +0.000 OA
ATOM     23  H   UNL     1      -2.440  10.740  18.751  0.00  0.00    +0.000 HD
ENDBRANCH   9  22
ENDBRANCH   7   8
BRANCH   1  24
ATOM     24  O   UNL     1      -0.104  12.333  22.186  0.00  0.00    +0.000 OA
BRANCH  24  28
ATOM     25  C   UNL     1      -4.942  12.712  21.601  0.00  0.00    +0.000 C 
ATOM     26  C   UNL     1      -3.675  13.123  22.293  0.00  0.00    +0.000 A 
ATOM     27  C   UNL     1      -2.440  12.582  21.914  0.00  0.00    +0.000 A 
ATOM     28  C   UNL     1      -1.270  12.968  22.570  0.00  0.00    +0.000 A 
ATOM     29  C   UNL     1      -1.338  13.885  23.627  0.00  0.00    +0.000 A 
ATOM     30  C   UNL     1      -2.560  14.450  24.020  0.00  0.00    +0.000 A 
ATOM     31  C   UNL     1      -3.726  14.052  23.346  0.00  0.00    +0.000 A 
BRANCH  30  32
ATOM     32  C   UNL     1      -2.587  15.442  25.171  0.00  0.00    +0.000 C 
ATOM     33  C   UNL     1      -1.238  15.547  25.888  0.00  0.00    +0.000 C 
ATOM     34  C   UNL     1      -3.067  16.820  24.712  0.00  0.00    +0.000 C 
ENDBRANCH  30  32
ENDBRANCH  24  28
ENDBRANCH   1  24
TORSDOF 6
ENDMDL
MODEL 4
REMARK VINA RESULT:      -7.5      2.836      9.781
REMARK  Name = 
REMARK  10 active torsions:
REMARK  status: ('A' for Active; 'I' for Inactive)
REMARK    1  A    between atoms: C_1  and  C_2
REMARK    2  A    between atoms: C_4  and  O_5
REMARK    3  A    between atoms: O_5  and  C_6
REMARK    4  A    between atoms: C_8  and  C_9
REMARK    5  A    between atoms: C_12  and  C_13
REMARK    6  A    between atoms: N_14  and  O_15
REMARK    7  A    between atoms: N_19  and  C_20
REMARK    8  A    between atoms: C_29  and  C_30
REMARK    9  A    between atoms: C_30  and  C_31
REMARK   10  A    between atoms: C_30  and  C_32
REMARK                            x       y       z     vdW  Elec       q    Type
REMARK                         _______ _______ _______ _____ _____    ______ ____
ROOT
ATOM      1  C   UNL     1       2.631   6.498  18.494  0.00  0.00    +0.000 A 
ATOM      2  N   UNL     1       2.699   5.228  18.992  0.00  0.00    +0.000 NA
ATOM      3  C   UNL     1       2.217   4.989  20.227  0.00  0.00    +0.000 A 
ATOM      4  C   UNL     1       2.375   3.595  20.753  0.00  0.00    +0.000 C 
ATOM      5  C   UNL     1       1.627   5.978  20.996  0.00  0.00    +0.000 A 
ATOM      6  C   UNL     1       1.521   7.260  20.461  0.00  0.00    +0.000 A 
ATOM      7  C   UNL     1       2.026   7.544  19.181  0.00  0.00    +0.000 A 
ENDROOT
BRANCH   7   8
ATOM      8  C   UNL     1       1.875   8.949  18.648  0.00  0.00    +0.000 C 
ATOM      9  N   UNL     1       2.553   9.269  17.586  0.00  0.00    +0.000 NA
ATOM     10  N   UNL     1       0.975   9.761  19.326  0.00  0.00    +0.000 N 
ATOM     11  C   UNL     1      -0.175  10.372  18.640  0.00  0.00    +0.000 C 
ATOM     12  C   UNL     1      -1.378  10.377  19.614  0.00  0.00    +0.000 C 
ATOM     13  N   UNL     1      -1.012  11.081  20.860  0.00  0.00    +0.000 N 
ATOM     14  C   UNL     1       0.230  10.612  21.515  0.00  0.00    +0.000 C 
ATOM     15  C   UNL     1       1.397  10.540  20.501  0.00  0.00    +0.000 C 
BRANCH  13  16
ATOM     16  C   UNL     1      -1.876  11.971  21.471  0.00  0.00    +0.000 A 
ATOM     17  C   UNL     1      -1.984  12.066  22.866  0.00  0.00    +0.000 A 
ATOM     18  C   UNL     1      -2.912  12.921  23.479  0.00  0.00    +0.000 A 
ATOM     19  C   UNL     1      -3.755  13.703  22.698  0.00  0.00    +0.000 A 
ATOM     20  C   UNL     1      -3.662  13.638  21.314  0.00  0.00    +0.000 A 
ATOM     21  C   UNL     1      -2.732  12.782  20.713  0.00  0.00    +0.000 A 
ENDBRANCH  13  16
BRANCH   9  22
ATOM     22  O   UNL     1       2.339  10.598  17.199  0.00  0.00    +0.000 OA
ATOM     23  H   UNL     1       1.861  10.954  17.969  0.00  0.00    +0.000 HD
ENDBRANCH   9  22
ENDBRANCH   7   8
BRANCH   1  24
ATOM     24  O   UNL     1       3.210   6.717  17.254  0.00  0.00    +0.000 OA
BRANCH  24  28
ATOM     25  C   UNL     1       6.049   3.975  14.372  0.00  0.00    +0.000 C 
ATOM     26  C   UNL     1       5.879   4.870  15.564  0.00  0.00    +0.000 A 
ATOM     27  C   UNL     1       4.618   5.370  15.914  0.00  0.00    +0.000 A 
ATOM     28  C   UNL     1       4.474   6.208  17.021  0.00  0.00    +0.000 A 
ATOM     29  C   UNL     1       5.602   6.564  17.772  0.00  0.00    +0.000 A 
ATOM     30  C   UNL     1       6.874   6.069  17.451  0.00  0.00    +0.000 A 
ATOM     31  C   UNL     1       6.998   5.226  16.335  0.00  0.00    +0.000 A 
BRANCH  30  32
ATOM     32  C   UNL     1       8.069   6.481  18.294  0.00  0.00    +0.000 C 
ATOM     33  C   UNL     1       8.231   8.001  18.382  0.00  0.00    +0.000 C 
ATOM     34  C   UNL     1       8.010   5.860  19.691  0.00  0.00    +0.000 C 
ENDBRANCH  30  32
ENDBRANCH  24  28
ENDBRANCH   1  24
TORSDOF 6
ENDMDL
MODEL 5
REMARK VINA RESULT:      -7.5      0.431      1.055
REMARK  Name = 
REMARK  10 active torsions:
REMARK  status: ('A' for Active; 'I' for Inactive)
REMARK    1  A    between atoms: C_1  and  C_2
REMARK    2  A    between atoms: C_4  and  O_5
REMARK    3  A    between atoms: O_5  and  C_6
REMARK    4  A    between atoms: C_8  and  C_9
REMARK    5  A    between atoms: C_12  and  C_13
REMARK    6  A    between atoms: N_14  and  O_15
REMARK    7  A    between atoms: N_19  and  C_20
REMARK    8  A    between atoms: C_29  and  C_30
REMARK    9  A    between atoms: C_30  and  C_31
REMARK   10  A    between atoms: C_30  and  C_32
REMARK                            x       y       z     vdW  Elec       q    Type
REMARK                         _______ _______ _______ _____ _____    ______ ____
ROOT
ATOM      1  C   UNL     1       0.971  12.869  21.110  0.00  0.00    +0.000 A 
ATOM      2  N   UNL     1       1.670  13.863  21.734  0.00  0.00    +0.000 NA
ATOM      3  C   UNL     1       2.627  14.514  21.045  0.00  0.00    +0.000 A 
ATOM      4  C   UNL     1       3.410  15.549  21.792  0.00  0.00    +0.000 C 
ATOM      5  C   UNL     1       2.903  14.233  19.717  0.00  0.00    +0.000 A 
ATOM      6  C   UNL     1       2.153  13.249  19.076  0.00  0.00    +0.000 A 
ATOM      7  C   UNL     1       1.158  12.544  19.772  0.00  0.00    +0.000 A 
ENDROOT
BRANCH   7   8
ATOM      8  C   UNL     1       0.369  11.495  19.025  0.00  0.00    +0.000 C 
ATOM      9  N   UNL     1      -0.621  11.896  18.284  0.00  0.00    +0.000 NA
ATOM     10  N   UNL     1       0.816  10.187  19.162  0.00  0.00    +0.000 N 
ATOM     11  C   UNL     1       1.217   9.385  17.995  0.00  0.00    +0.000 C 
ATOM     12  C   UNL     1       2.424   8.504  18.400  0.00  0.00    +0.000 C 
ATOM     13  N   UNL     1       2.071   7.676  19.571  0.00  0.00    +0.000 N 
ATOM     14  C   UNL     1       1.511   8.414  20.726  0.00  0.00    +0.000 C 
ATOM     15  C   UNL     1       0.359   9.347  20.281  0.00  0.00    +0.000 C 
BRANCH  13  16
ATOM     16  C   UNL     1       2.429   6.343  19.652  0.00  0.00    +0.000 A 
ATOM     17  C   UNL     1       1.864   5.476  20.599  0.00  0.00    +0.000 A 
ATOM     18  C   UNL     1       2.282   4.143  20.721  0.00  0.00    +0.000 A 
ATOM     19  C   UNL     1       3.281   3.650  19.889  0.00  0.00    +0.000 A 
ATOM     20  C   UNL     1       3.849   4.483  18.934  0.00  0.00    +0.000 A 
ATOM     21  C   UNL     1       3.424   5.811  18.820  0.00  0.00    +0.000 A 
ENDBRANCH  13  16
BRANCH   9  22
ATOM     22  O   UNL     1      -1.280  10.833  17.655  0.00  0.00    +0.000 OA
ATOM     23  H   UNL     1      -1.047  10.981  16.720  0.00  0.00    +0.000 HD
ENDBRANCH   9  22
ENDBRANCH   7   8
BRANCH   1  24
ATOM     24  O   UNL     1       0.053  12.171  21.879  0.00  0.00    +0.000 OA
BRANCH  24  28
ATOM     25  C   UNL     1      -2.445  14.983  25.000  0.00  0.00    +0.000 C 
ATOM     26  C   UNL     1      -2.369  14.204  23.720  0.00  0.00    +0.000 A 
ATOM     27  C   UNL     1      -1.210  13.495  23.376  0.00  0.00    +0.000 A 
ATOM     28  C   UNL     1      -1.150  12.780  22.179  0.00  0.00    +0.000 A 
ATOM     29  C   UNL     1      -2.249  12.790  21.309  0.00  0.00    +0.000 A 
ATOM     30  C   UNL     1      -3.426  13.482  21.634  0.00  0.00    +0.000 A 
ATOM     31  C   UNL     1      -3.468  14.193  22.843  0.00  0.00    +0.000 A 
BRANCH  30  32
ATOM     32  C   UNL     1      -4.593  13.463  20.662  0.00  0.00    +0.000 C 
ATOM     33  C   UNL     1      -5.656  12.428  21.039  0.00  0.00    +0.000 C 
ATOM     34  C   UNL     1      -5.217  14.851  20.509  0.00  0.00    +0.000 C 
ENDBRANCH  30  32
ENDBRANCH  24  28
ENDBRANCH   1  24
TORSDOF 6
ENDMDL
MODEL 6
REMARK VINA RESULT:      -7.5      1.264      1.781
REMARK  Name = 
REMARK  10 active torsions:
REMARK  status: ('A' for Active; 'I' for Inactive)
REMARK    1  A    between atoms: C_1  and  C_2
REMARK    2  A    between atoms: C_4  and  O_5
REMARK    3  A    between atoms: O_5  and  C_6
REMARK    4  A    between atoms: C_8  and  C_9
REMARK    5  A    between atoms: C_12  and  C_13
REMARK    6  A    between atoms: N_14  and  O_15
REMARK    7  A    between atoms: N_19  and  C_20
REMARK    8  A    between atoms: C_29  and  C_30
REMARK    9  A    between atoms: C_30  and  C_31
REMARK   10  A    between atoms: C_30  and  C_32
REMARK                            x       y       z     vdW  Elec       q    Type
REMARK                         _______ _______ _______ _____ _____    ______ ____
ROOT
ATOM      1  C   UNL     1       1.213  12.933  21.042  0.00  0.00    +0.000 A 
ATOM      2  N   UNL     1       1.991  13.887  21.634  0.00  0.00    +0.000 NA
ATOM      3  C   UNL     1       2.984  14.450  20.919  0.00  0.00    +0.000 A 
ATOM      4  C   UNL     1       3.850  15.442  21.633  0.00  0.00    +0.000 C 
ATOM      5  C   UNL     1       3.223  14.119  19.596  0.00  0.00    +0.000 A 
ATOM      6  C   UNL     1       2.394  13.178  18.986  0.00  0.00    +0.000 A 
ATOM      7  C   UNL     1       1.359  12.564  19.711  0.00  0.00    +0.000 A 
ENDROOT
BRANCH   7   8
ATOM      8  C   UNL     1       0.486  11.559  18.997  0.00  0.00    +0.000 C 
ATOM      9  N   UNL     1      -0.521  12.012  18.309  0.00  0.00    +0.000 NA
ATOM     10  N   UNL     1       0.879  10.231  19.104  0.00  0.00    +0.000 N 
ATOM     11  C   UNL     1       1.183   9.421  17.913  0.00  0.00    +0.000 C 
ATOM     12  C   UNL     1       2.366   8.483  18.251  0.00  0.00    +0.000 C 
ATOM     13  N   UNL     1       2.035   7.661  19.433  0.00  0.00    +0.000 N 
ATOM     14  C   UNL     1       1.568   8.414  20.619  0.00  0.00    +0.000 C 
ATOM     15  C   UNL     1       0.439   9.403  20.238  0.00  0.00    +0.000 C 
BRANCH  13  16
ATOM     16  C   UNL     1       2.334   6.313  19.487  0.00  0.00    +0.000 A 
ATOM     17  C   UNL     1       3.012   5.658  18.448  0.00  0.00    +0.000 A 
ATOM     18  C   UNL     1       3.252   4.277  18.478  0.00  0.00    +0.000 A 
ATOM     19  C   UNL     1       2.814   3.521  19.559  0.00  0.00    +0.000 A 
ATOM     20  C   UNL     1       2.152   4.144  20.608  0.00  0.00    +0.000 A 
ATOM     21  C   UNL     1       1.919   5.523  20.568  0.00  0.00    +0.000 A 
ENDBRANCH  13  16
BRANCH   9  22
ATOM     22  O   UNL     1      -1.258  10.985  17.707  0.00  0.00    +0.000 OA
ATOM     23  H   UNL     1      -2.066  10.977  18.251  0.00  0.00    +0.000 HD
ENDBRANCH   9  22
ENDBRANCH   7   8
BRANCH   1  24
ATOM     24  O   UNL     1       0.256  12.323  21.837  0.00  0.00    +0.000 OA
BRANCH  24  28
ATOM     25  C   UNL     1      -3.951  12.477  24.322  0.00  0.00    +0.000 C 
ATOM     26  C   UNL     1      -3.010  13.065  23.310  0.00  0.00    +0.000 A 
ATOM     27  C   UNL     1      -1.810  12.421  22.984  0.00  0.00    +0.000 A 
ATOM     28  C   UNL     1      -0.941  12.982  22.047  0.00  0.00    +0.000 A 
ATOM     29  C   UNL     1      -1.265  14.205  21.446  0.00  0.00    +0.000 A 
ATOM     30  C   UNL     1      -2.465  14.866  21.746  0.00  0.00    +0.000 A 
ATOM     31  C   UNL     1      -3.328  14.285  22.690  0.00  0.00    +0.000 A 
BRANCH  30  32
ATOM     32  C   UNL     1      -2.777  16.190  21.069  0.00  0.00    +0.000 C 
ATOM     33  C   UNL     1      -2.993  17.326  22.072  0.00  0.00    +0.000 C 
ATOM     34  C   UNL     1      -1.701  16.564  20.048  0.00  0.00    +0.000 C 
ENDBRANCH  30  32
ENDBRANCH  24  28
ENDBRANCH   1  24
TORSDOF 6
ENDMDL
MODEL 7
REMARK VINA RESULT:      -7.4      1.098      1.451
REMARK  Name = 
REMARK  10 active torsions:
REMARK  status: ('A' for Active; 'I' for Inactive)
REMARK    1  A    between atoms: C_1  and  C_2
REMARK    2  A    between atoms: C_4  and  O_5
REMARK    3  A    between atoms: O_5  and  C_6
REMARK    4  A    between atoms: C_8  and  C_9
REMARK    5  A    between atoms: C_12  and  C_13
REMARK    6  A    between atoms: N_14  and  O_15
REMARK    7  A    between atoms: N_19  and  C_20
REMARK    8  A    between atoms: C_29  and  C_30
REMARK    9  A    between atoms: C_30  and  C_31
REMARK   10  A    between atoms: C_30  and  C_32
REMARK                            x       y       z     vdW  Elec       q    Type
REMARK                         _______ _______ _______ _____ _____    ______ ____
ROOT
ATOM      1  C   UNL     1       1.609  12.949  20.831  0.00  0.00    +0.000 A 
ATOM      2  N   UNL     1       2.485  13.878  21.316  0.00  0.00    +0.000 NA
ATOM      3  C   UNL     1       3.402  14.403  20.482  0.00  0.00    +0.000 A 
ATOM      4  C   UNL     1       4.381  15.368  21.077  0.00  0.00    +0.000 C 
ATOM      5  C   UNL     1       3.468  14.057  19.142  0.00  0.00    +0.000 A 
ATOM      6  C   UNL     1       2.541  13.142  18.646  0.00  0.00    +0.000 A 
ATOM      7  C   UNL     1       1.581  12.567  19.496  0.00  0.00    +0.000 A 
ENDROOT
BRANCH   7   8
ATOM      8  C   UNL     1       0.595  11.589  18.902  0.00  0.00    +0.000 C 
ATOM      9  N   UNL     1      -0.451  12.074  18.300  0.00  0.00    +0.000 NA
ATOM     10  N   UNL     1       0.931  10.246  19.013  0.00  0.00    +0.000 N 
ATOM     11  C   UNL     1       1.078   9.390  17.825  0.00  0.00    +0.000 C 
ATOM     12  C   UNL     1       2.242   8.402  18.077  0.00  0.00    +0.000 C 
ATOM     13  N   UNL     1       1.989   7.631  19.312  0.00  0.00    +0.000 N 
ATOM     14  C   UNL     1       1.677   8.439  20.512  0.00  0.00    +0.000 C 
ATOM     15  C   UNL     1       0.566   9.473  20.211  0.00  0.00    +0.000 C 
BRANCH  13  16
ATOM     16  C   UNL     1       2.227   6.271  19.380  0.00  0.00    +0.000 A 
ATOM     17  C   UNL     1       2.638   5.530  18.262  0.00  0.00    +0.000 A 
ATOM     18  C   UNL     1       2.810   4.139  18.321  0.00  0.00    +0.000 A 
ATOM     19  C   UNL     1       2.574   3.461  19.512  0.00  0.00    +0.000 A 
ATOM     20  C   UNL     1       2.179   4.171  20.638  0.00  0.00    +0.000 A 
ATOM     21  C   UNL     1       2.010   5.559  20.567  0.00  0.00    +0.000 A 
ENDBRANCH  13  16
BRANCH   9  22
ATOM     22  O   UNL     1      -1.293  11.071  17.805  0.00  0.00    +0.000 OA
ATOM     23  H   UNL     1      -0.823  10.264  18.082  0.00  0.00    +0.000 HD
ENDBRANCH   9  22
ENDBRANCH   7   8
BRANCH   1  24
ATOM     24  O   UNL     1       0.735  12.376  21.742  0.00  0.00    +0.000 OA
BRANCH  24  28
ATOM     25  C   UNL     1      -1.429  16.743  22.100  0.00  0.00    +0.000 C 
ATOM     26  C   UNL     1      -1.476  15.249  22.233  0.00  0.00    +0.000 A 
ATOM     27  C   UNL     1      -0.344  14.467  21.970  0.00  0.00    +0.000 A 
ATOM     28  C   UNL     1      -0.402  13.078  22.091  0.00  0.00    +0.000 A 
ATOM     29  C   UNL     1      -1.608  12.465  22.458  0.00  0.00    +0.000 A 
ATOM     30  C   UNL     1      -2.753  13.224  22.737  0.00  0.00    +0.000 A 
ATOM     31  C   UNL     1      -2.674  14.620  22.613  0.00  0.00    +0.000 A 
BRANCH  30  32
ATOM     32  C   UNL     1      -4.038  12.516  23.133  0.00  0.00    +0.000 C 
ATOM     33  C   UNL     1      -4.249  12.484  24.649  0.00  0.00    +0.000 C 
ATOM     34  C   UNL     1      -5.252  13.122  22.428  0.00  0.00    +0.000 C 
ENDBRANCH  30  32
ENDBRANCH  24  28
ENDBRANCH   1  24
TORSDOF 6
ENDMDL
MODEL 8
REMARK VINA RESULT:      -7.3      1.281      1.876
REMARK  Name = 
REMARK  10 active torsions:
REMARK  status: ('A' for Active; 'I' for Inactive)
REMARK    1  A    between atoms: C_1  and  C_2
REMARK    2  A    between atoms: C_4  and  O_5
REMARK    3  A    between atoms: O_5  and  C_6
REMARK    4  A    between atoms: C_8  and  C_9
REMARK    5  A    between atoms: C_12  and  C_13
REMARK    6  A    between atoms: N_14  and  O_15
REMARK    7  A    between atoms: N_19  and  C_20
REMARK    8  A    between atoms: C_29  and  C_30
REMARK    9  A    between atoms: C_30  and  C_31
REMARK   10  A    between atoms: C_30  and  C_32
REMARK                            x       y       z     vdW  Elec       q    Type
REMARK                         _______ _______ _______ _____ _____    ______ ____
ROOT
ATOM      1  C   UNL     1       1.177  12.889  21.058  0.00  0.00    +0.000 A 
ATOM      2  N   UNL     1       1.968  13.879  21.568  0.00  0.00    +0.000 NA
ATOM      3  C   UNL     1       2.926  14.412  20.786  0.00  0.00    +0.000 A 
ATOM      4  C   UNL     1       3.809  15.448  21.413  0.00  0.00    +0.000 C 
ATOM      5  C   UNL     1       3.116  14.015  19.473  0.00  0.00    +0.000 A 
ATOM      6  C   UNL     1       2.274  13.037  18.947  0.00  0.00    +0.000 A 
ATOM      7  C   UNL     1       1.275  12.452  19.743  0.00  0.00    +0.000 A 
ENDROOT
BRANCH   7   8
ATOM      8  C   UNL     1       0.385  11.404  19.117  0.00  0.00    +0.000 C 
ATOM      9  N   UNL     1      -0.669  11.811  18.474  0.00  0.00    +0.000 NA
ATOM     10  N   UNL     1       0.812  10.089  19.248  0.00  0.00    +0.000 N 
ATOM     11  C   UNL     1       1.066   9.242  18.072  0.00  0.00    +0.000 C 
ATOM     12  C   UNL     1       2.287   8.341  18.373  0.00  0.00    +0.000 C 
ATOM     13  N   UNL     1       2.043   7.558  19.602  0.00  0.00    +0.000 N 
ATOM     14  C   UNL     1       1.628   8.345  20.785  0.00  0.00    +0.000 C 
ATOM     15  C   UNL     1       0.458   9.295  20.435  0.00  0.00    +0.000 C 
BRANCH  13  16
ATOM     16  C   UNL     1       2.375   6.219  19.686  0.00  0.00    +0.000 A 
ATOM     17  C   UNL     1       1.786   5.363  20.629  0.00  0.00    +0.000 A 
ATOM     18  C   UNL     1       2.178   4.022  20.756  0.00  0.00    +0.000 A 
ATOM     19  C   UNL     1       3.173   3.510  19.932  0.00  0.00    +0.000 A 
ATOM     20  C   UNL     1       3.765   4.331  18.981  0.00  0.00    +0.000 A 
ATOM     21  C   UNL     1       3.366   5.667  18.863  0.00  0.00    +0.000 A 
ENDBRANCH  13  16
BRANCH   9  22
ATOM     22  O   UNL     1      -1.417  10.748  17.952  0.00  0.00    +0.000 OA
ATOM     23  H   UNL     1      -1.889  11.179  17.217  0.00  0.00    +0.000 HD
ENDBRANCH   9  22
ENDBRANCH   7   8
BRANCH   1  24
ATOM     24  O   UNL     1       0.259  12.313  21.921  0.00  0.00    +0.000 OA
BRANCH  24  28
ATOM     25  C   UNL     1      -4.003  12.359  24.313  0.00  0.00    +0.000 C 
ATOM     26  C   UNL     1      -3.007  13.025  23.410  0.00  0.00    +0.000 A 
ATOM     27  C   UNL     1      -1.831  12.367  23.026  0.00  0.00    +0.000 A 
ATOM     28  C   UNL     1      -0.909  13.001  22.191  0.00  0.00    +0.000 A 
ATOM     29  C   UNL     1      -1.155  14.308  21.753  0.00  0.00    +0.000 A 
ATOM     30  C   UNL     1      -2.330  14.986  22.112  0.00  0.00    +0.000 A 
ATOM     31  C   UNL     1      -3.246  14.331  22.951  0.00  0.00    +0.000 A 
BRANCH  30  32
ATOM     32  C   UNL     1      -2.556  16.402  21.612  0.00  0.00    +0.000 C 
ATOM     33  C   UNL     1      -1.293  17.021  21.007  0.00  0.00    +0.000 C 
ATOM     34  C   UNL     1      -3.720  16.468  20.622  0.00  0.00    +0.000 C 
ENDBRANCH  30  32
ENDBRANCH  24  28
ENDBRANCH   1  24
TORSDOF 6
ENDMDL
MODEL 9
REMARK VINA RESULT:      -7.2      1.177      1.827
REMARK  Name = 
REMARK  10 active torsions:
REMARK  status: ('A' for Active; 'I' for Inactive)
REMARK    1  A    between atoms: C_1  and  C_2
REMARK    2  A    between atoms: C_4  and  O_5
REMARK    3  A    between atoms: O_5  and  C_6
REMARK    4  A    between atoms: C_8  and  C_9
REMARK    5  A    between atoms: C_12  and  C_13
REMARK    6  A    between atoms: N_14  and  O_15
REMARK    7  A    between atoms: N_19  and  C_20
REMARK    8  A    between atoms: C_29  and  C_30
REMARK    9  A    between atoms: C_30  and  C_31
REMARK   10  A    between atoms: C_30  and  C_32
REMARK                            x       y       z     vdW  Elec       q    Type
REMARK                         _______ _______ _______ _____ _____    ______ ____
ROOT
ATOM      1  C   UNL     1       0.971  13.149  21.232  0.00  0.00    +0.000 A 
ATOM      2  N   UNL     1       1.727  14.081  21.885  0.00  0.00    +0.000 NA
ATOM      3  C   UNL     1       2.842  14.545  21.289  0.00  0.00    +0.000 A 
ATOM      4  C   UNL     1       3.672  15.515  22.073  0.00  0.00    +0.000 C 
ATOM      5  C   UNL     1       3.232  14.134  20.025  0.00  0.00    +0.000 A 
ATOM      6  C   UNL     1       2.429  13.217  19.348  0.00  0.00    +0.000 A 
ATOM      7  C   UNL     1       1.267  12.705  19.949  0.00  0.00    +0.000 A 
ENDROOT
BRANCH   7   8
ATOM      8  C   UNL     1       0.431  11.722  19.165  0.00  0.00    +0.000 C 
ATOM      9  N   UNL     1      -0.546  12.195  18.448  0.00  0.00    +0.000 NA
ATOM     10  N   UNL     1       0.822  10.392  19.247  0.00  0.00    +0.000 N 
ATOM     11  C   UNL     1       1.182   9.621  18.046  0.00  0.00    +0.000 C 
ATOM     12  C   UNL     1       2.352   8.675  18.406  0.00  0.00    +0.000 C 
ATOM     13  N   UNL     1       1.970   7.816  19.546  0.00  0.00    +0.000 N 
ATOM     14  C   UNL     1       1.448   8.529  20.733  0.00  0.00    +0.000 C 
ATOM     15  C   UNL     1       0.335   9.528  20.334  0.00  0.00    +0.000 C 
BRANCH  13  16
ATOM     16  C   UNL     1       2.271   6.467  19.570  0.00  0.00    +0.000 A 
ATOM     17  C   UNL     1       1.815   5.620  20.591  0.00  0.00    +0.000 A 
ATOM     18  C   UNL     1       2.181   4.267  20.648  0.00  0.00    +0.000 A 
ATOM     19  C   UNL     1       3.017   3.734  19.673  0.00  0.00    +0.000 A 
ATOM     20  C   UNL     1       3.474   4.546  18.644  0.00  0.00    +0.000 A 
ATOM     21  C   UNL     1       3.101   5.894  18.597  0.00  0.00    +0.000 A 
ENDBRANCH  13  16
BRANCH   9  22
ATOM     22  O   UNL     1      -1.252  11.187  17.781  0.00  0.00    +0.000 OA
ATOM     23  H   UNL     1      -1.118  11.435  16.849  0.00  0.00    +0.000 HD
ENDBRANCH   9  22
ENDBRANCH   7   8
BRANCH   1  24
ATOM     24  O   UNL     1      -0.122  12.639  21.914  0.00  0.00    +0.000 OA
BRANCH  24  28
ATOM     25  C   UNL     1      -2.490  16.640  20.406  0.00  0.00    +0.000 C 
ATOM     26  C   UNL     1      -2.428  15.402  21.252  0.00  0.00    +0.000 A 
ATOM     27  C   UNL     1      -1.291  14.583  21.247  0.00  0.00    +0.000 A 
ATOM     28  C   UNL     1      -1.249  13.431  22.033  0.00  0.00    +0.000 A 
ATOM     29  C   UNL     1      -2.359  13.084  22.814  0.00  0.00    +0.000 A 
ATOM     30  C   UNL     1      -3.506  13.891  22.846  0.00  0.00    +0.000 A 
ATOM     31  C   UNL     1      -3.528  15.048  22.051  0.00  0.00    +0.000 A 
BRANCH  30  32
ATOM     32  C   UNL     1      -4.685  13.476  23.709  0.00  0.00    +0.000 C 
ATOM     33  C   UNL     1      -5.906  13.067  22.880  0.00  0.00    +0.000 C 
ATOM     34  C   UNL     1      -4.300  12.369  24.691  0.00  0.00    +0.000 C 
ENDBRANCH  30  32
ENDBRANCH  24  28
ENDBRANCH   1  24
TORSDOF 6
ENDMDL
