MODEL 1
REMARK VINA RESULT:      -7.4      0.000      0.000
REMARK  Name = 
REMARK  9 active torsions:
REMARK  status: ('A' for Active; 'I' for Inactive)
REMARK    1  A    between atoms: C_1  and  O_2
REMARK    2  A    between atoms: O_2  and  C_3
REMARK    3  A    between atoms: C_6  and  N_7
REMARK    4  A    between atoms: N_7  and  C_8
REMARK    5  A    between atoms: C_8  and  C_9
REMARK    6  A    between atoms: C_8  and  C_10
REMARK    7  A    between atoms: N_12  and  C_13
REMARK    8  A    between atoms: C_13  and  C_14
REMARK    9  A    between atoms: C_14  and  C_15
REMARK                            x       y       z     vdW  Elec       q    Type
REMARK                         _______ _______ _______ _____ _____    ______ ____
ROOT
ATOM      1  C   UNL     1       7.512   5.684  18.587  0.00  0.00    +0.000 C 
ATOM      2  C   UNL     1       7.610   4.570  17.549  0.00  0.00    +0.000 C 
ENDROOT
BRANCH   1   3
ATOM      3  C   UNL     1       7.688   7.062  17.912  0.00  0.00    +0.000 C 
ATOM      4  O   UNL     1       7.354   7.312  16.757  0.00  0.00    +0.000 OA
ATOM      5  N   UNL     1       8.293   7.993  18.738  0.00  0.00    +0.000 N 
ATOM      6  H   UNL     1       8.429   7.730  19.710  0.00  0.00    +0.000 HD
BRANCH   5   7
ATOM      7  C   UNL     1       8.499   9.353  18.287  0.00  0.00    +0.000 C 
BRANCH   7   8
ATOM      8  C   UNL     1       9.347  10.171  19.258  0.00  0.00    +0.000 C 
BRANCH   8   9
ATOM      9  C   UNL     1       9.759  11.482  18.656  0.00  0.00    +0.000 A 
ATOM     10  C   UNL     1      10.652  11.706  17.628  0.00  0.00    +0.000 A 
ATOM     11  C   UNL     1      10.786  13.090  17.319  0.00  0.00    +0.000 A 
ATOM     12  C   UNL     1       9.991  13.877  18.122  0.00  0.00    +0.000 A 
ATOM     13  S   UNL     1       9.091  12.948  19.241  0.00  0.00    +0.000 S 
ENDBRANCH   8   9
ENDBRANCH   7   8
ENDBRANCH   5   7
ENDBRANCH   1   3
BRANCH   1  14
ATOM     14  N   UNL     1       6.229   5.678  19.323  0.00  0.00    +0.000 N 
ATOM     15  H   UNL     1       6.037   6.533  19.840  0.00  0.00    +0.000 HD
BRANCH  14  19
ATOM     16  C   UNL     1       2.711   3.594  18.212  0.00  0.00    +0.000 A 
ATOM     17  C   UNL     1       2.842   4.967  18.004  0.00  0.00    +0.000 A 
ATOM     18  C   UNL     1       4.022   5.642  18.351  0.00  0.00    +0.000 A 
ATOM     19  C   UNL     1       5.112   4.959  18.910  0.00  0.00    +0.000 A 
ATOM     20  C   UNL     1       4.959   3.590  19.135  0.00  0.00    +0.000 A 
ATOM     21  C   UNL     1       3.790   2.926  18.786  0.00  0.00    +0.000 A 
ATOM     22  F   UNL     1       3.740   1.602  19.036  0.00  0.00    +0.000 F 
BRANCH  16  24
ATOM     23  C   UNL     1       0.591   2.763  18.877  0.00  0.00    +0.000 C 
ATOM     24  O   UNL     1       1.509   3.062  17.830  0.00  0.00    +0.000 OA
ENDBRANCH  16  24
ENDBRANCH  14  19
ENDBRANCH   1  14
TORSDOF 7
ENDMDL
MODEL 2
REMARK VINA RESULT:      -7.2      4.671      7.738
REMARK  Name = 
REMARK  9 active torsions:
REMARK  status: ('A' for Active; 'I' for Inactive)
REMARK    1  A    between atoms: C_1  and  O_2
REMARK    2  A    between atoms: O_2  and  C_3
REMARK    3  A    between atoms: C_6  and  N_7
REMARK    4  A    between atoms: N_7  and  C_8
REMARK    5  A    between atoms: C_8  and  C_9
REMARK    6  A    between atoms: C_8  and  C_10
REMARK    7  A    between atoms: N_12  and  C_13
REMARK    8  A    between atoms: C_13  and  C_14
REMARK    9  A    between atoms: C_14  and  C_15
REMARK                            x       y       z     vdW  Elec       q    Type
REMARK                         _______ _______ _______ _____ _____    ______ ____
ROOT
ATOM      1  C   UNL     1       7.347   5.693  18.247  0.00  0.00    +0.000 C 
ATOM      2  C   UNL     1       7.441   7.070  17.596  0.00  0.00    +0.000 C 
ENDROOT
BRANCH   1   3
ATOM      3  C   UNL     1       5.937   5.474  18.837  0.00  0.00    +0.000 C 
ATOM      4  O   UNL     1       5.672   4.643  19.701  0.00  0.00    +0.000 OA
ATOM      5  N   UNL     1       4.981   6.298  18.269  0.00  0.00    +0.000 N 
ATOM      6  H   UNL     1       5.312   7.031  17.645  0.00  0.00    +0.000 HD
BRANCH   5   7
ATOM      7  C   UNL     1       3.609   6.262  18.729  0.00  0.00    +0.000 C 
BRANCH   7   8
ATOM      8  C   UNL     1       2.717   5.389  17.851  0.00  0.00    +0.000 C 
BRANCH   8   9
ATOM      9  C   UNL     1       2.158   4.228  18.620  0.00  0.00    +0.000 A 
ATOM     10  C   UNL     1       1.497   4.247  19.832  0.00  0.00    +0.000 A 
ATOM     11  C   UNL     1       1.102   2.944  20.252  0.00  0.00    +0.000 A 
ATOM     12  C   UNL     1       1.476   1.975  19.348  0.00  0.00    +0.000 A 
ATOM     13  S   UNL     1       2.298   2.636  18.002  0.00  0.00    +0.000 S 
ENDBRANCH   8   9
ENDBRANCH   7   8
ENDBRANCH   5   7
ENDBRANCH   1   3
BRANCH   1  14
ATOM     14  N   UNL     1       7.644   4.588  17.309  0.00  0.00    +0.000 N 
ATOM     15  H   UNL     1       7.921   3.718  17.757  0.00  0.00    +0.000 HD
BRANCH  14  19
ATOM     16  C   UNL     1       5.838   3.981  13.525  0.00  0.00    +0.000 A 
ATOM     17  C   UNL     1       5.265   3.483  14.695  0.00  0.00    +0.000 A 
ATOM     18  C   UNL     1       5.857   3.714  15.945  0.00  0.00    +0.000 A 
ATOM     19  C   UNL     1       7.040   4.458  16.062  0.00  0.00    +0.000 A 
ATOM     20  C   UNL     1       7.617   4.929  14.882  0.00  0.00    +0.000 A 
ATOM     21  C   UNL     1       7.024   4.702  13.647  0.00  0.00    +0.000 A 
ATOM     22  F   UNL     1       7.652   5.204  12.564  0.00  0.00    +0.000 F 
BRANCH  16  24
ATOM     23  C   UNL     1       5.539   2.480  11.711  0.00  0.00    +0.000 C 
ATOM     24  O   UNL     1       5.160   3.682  12.373  0.00  0.00    +0.000 OA
ENDBRANCH  16  24
ENDBRANCH  14  19
ENDBRANCH   1  14
TORSDOF 7
ENDMDL
MODEL 3
REMARK VINA RESULT:      -7.1      6.516      8.389
REMARK  Name = 
REMARK  9 active torsions:
REMARK  status: ('A' for Active; 'I' for Inactive)
REMARK    1  A    between atoms: C_1  and  O_2
REMARK    2  A    between atoms: O_2  and  C_3
REMARK    3  A    between atoms: C_6  and  N_7
REMARK    4  A    between atoms: N_7  and  C_8
REMARK    5  A    between atoms: C_8  and  C_9
REMARK    6  A    between atoms: C_8  and  C_10
REMARK    7  A    between atoms: N_12  and  C_13
REMARK    8  A    between atoms: C_13  and  C_14
REMARK    9  A    between atoms: C_14  and  C_15
REMARK                            x       y       z     vdW  Elec       q    Type
REMARK                         _______ _______ _______ _____ _____    ______ ____
ROOT
ATOM      1  C   UNL     1       0.989   8.526  20.847  0.00  0.00    +0.000 C 
ATOM      2  C   UNL     1       1.149   9.140  22.234  0.00  0.00    +0.000 C 
ENDROOT
BRANCH   1   3
ATOM      3  C   UNL     1       0.740   9.632  19.798  0.00  0.00    +0.000 C 
ATOM      4  O   UNL     1       1.444   9.814  18.809  0.00  0.00    +0.000 OA
ATOM      5  N   UNL     1      -0.352  10.425  20.100  0.00  0.00    +0.000 N 
ATOM      6  H   UNL     1      -0.940  10.129  20.875  0.00  0.00    +0.000 HD
BRANCH   5   7
ATOM      7  C   UNL     1      -0.762  11.487  19.205  0.00  0.00    +0.000 C 
BRANCH   7   8
ATOM      8  C   UNL     1      -2.276  11.549  19.022  0.00  0.00    +0.000 C 
BRANCH   8   9
ATOM      9  C   UNL     1      -2.689  11.025  17.679  0.00  0.00    +0.000 A 
ATOM     10  C   UNL     1      -1.995  10.168  16.847  0.00  0.00    +0.000 A 
ATOM     11  C   UNL     1      -2.708   9.883  15.647  0.00  0.00    +0.000 A 
ATOM     12  C   UNL     1      -3.922  10.532  15.603  0.00  0.00    +0.000 A 
ATOM     13  S   UNL     1      -4.195  11.479  17.000  0.00  0.00    +0.000 S 
ENDBRANCH   8   9
ENDBRANCH   7   8
ENDBRANCH   5   7
ENDBRANCH   1   3
BRANCH   1  14
ATOM     14  N   UNL     1       2.165   7.731  20.427  0.00  0.00    +0.000 N 
ATOM     15  H   UNL     1       3.013   7.925  20.954  0.00  0.00    +0.000 HD
BRANCH  14  19
ATOM     16  C   UNL     1       1.729   3.921  18.628  0.00  0.00    +0.000 A 
ATOM     17  C   UNL     1       2.236   5.009  17.918  0.00  0.00    +0.000 A 
ATOM     18  C   UNL     1       2.401   6.260  18.531  0.00  0.00    +0.000 A 
ATOM     19  C   UNL     1       2.071   6.455  19.880  0.00  0.00    +0.000 A 
ATOM     20  C   UNL     1       1.542   5.365  20.572  0.00  0.00    +0.000 A 
ATOM     21  C   UNL     1       1.385   4.128  19.962  0.00  0.00    +0.000 A 
ATOM     22  F   UNL     1       0.873   3.133  20.715  0.00  0.00    +0.000 F 
BRANCH  16  24
ATOM     23  C   UNL     1       2.761   1.912  17.898  0.00  0.00    +0.000 C 
ATOM     24  O   UNL     1       1.617   2.760  17.909  0.00  0.00    +0.000 OA
ENDBRANCH  16  24
ENDBRANCH  14  19
ENDBRANCH   1  14
TORSDOF 7
ENDMDL
MODEL 4
REMARK VINA RESULT:      -7.1      1.670      2.039
REMARK  Name = 
REMARK  9 active torsions:
REMARK  status: ('A' for Active; 'I' for Inactive)
REMARK    1  A    between atoms: C_1  and  O_2
REMARK    2  A    between atoms: O_2  and  C_3
REMARK    3  A    between atoms: C_6  and  N_7
REMARK    4  A    between atoms: N_7  and  C_8
REMARK    5  A    between atoms: C_8  and  C_9
REMARK    6  A    between atoms: C_8  and  C_10
REMARK    7  A    between atoms: N_12  and  C_13
REMARK    8  A    between atoms: C_13  and  C_14
REMARK    9  A    between atoms: C_14  and  C_15
REMARK                            x       y       z     vdW  Elec       q    Type
REMARK                         _______ _______ _______ _____ _____    ______ ____
ROOT
ATOM      1  C   UNL     1       6.403   6.088  16.727  0.00  0.00    +0.000 C 
ATOM      2  C   UNL     1       5.058   6.806  16.708  0.00  0.00    +0.000 C 
ENDROOT
BRANCH   1   3
ATOM      3  C   UNL     1       7.371   6.790  17.705  0.00  0.00    +0.000 C 
ATOM      4  O   UNL     1       7.921   6.231  18.650  0.00  0.00    +0.000 OA
ATOM      5  N   UNL     1       7.538   8.134  17.426  0.00  0.00    +0.000 N 
ATOM      6  H   UNL     1       7.134   8.481  16.559  0.00  0.00    +0.000 HD
BRANCH   5   7
ATOM      7  C   UNL     1       8.444   8.943  18.213  0.00  0.00    +0.000 C 
BRANCH   7   8
ATOM      8  C   UNL     1       8.433  10.412  17.798  0.00  0.00    +0.000 C 
BRANCH   8   9
ATOM      9  C   UNL     1       9.420  11.215  18.592  0.00  0.00    +0.000 A 
ATOM     10  C   UNL     1       9.872  10.983  19.877  0.00  0.00    +0.000 A 
ATOM     11  C   UNL     1      10.819  11.959  20.301  0.00  0.00    +0.000 A 
ATOM     12  C   UNL     1      11.059  12.902  19.327  0.00  0.00    +0.000 A 
ATOM     13  S   UNL     1      10.144  12.611  17.912  0.00  0.00    +0.000 S 
ENDBRANCH   8   9
ENDBRANCH   7   8
ENDBRANCH   5   7
ENDBRANCH   1   3
BRANCH   1  14
ATOM     14  N   UNL     1       6.294   4.663  17.110  0.00  0.00    +0.000 N 
ATOM     15  H   UNL     1       7.183   4.213  17.313  0.00  0.00    +0.000 HD
BRANCH  14  19
ATOM     16  C   UNL     1       3.049   2.901  19.187  0.00  0.00    +0.000 A 
ATOM     17  C   UNL     1       4.009   3.666  19.848  0.00  0.00    +0.000 A 
ATOM     18  C   UNL     1       5.064   4.267  19.147  0.00  0.00    +0.000 A 
ATOM     19  C   UNL     1       5.184   4.127  17.756  0.00  0.00    +0.000 A 
ATOM     20  C   UNL     1       4.232   3.339  17.110  0.00  0.00    +0.000 A 
ATOM     21  C   UNL     1       3.186   2.749  17.809  0.00  0.00    +0.000 A 
ATOM     22  F   UNL     1       2.311   2.012  17.095  0.00  0.00    +0.000 F 
BRANCH  16  24
ATOM     23  C   UNL     1       1.151   3.293  20.556  0.00  0.00    +0.000 C 
ATOM     24  O   UNL     1       2.075   2.369  19.990  0.00  0.00    +0.000 OA
ENDBRANCH  16  24
ENDBRANCH  14  19
ENDBRANCH   1  14
TORSDOF 7
ENDMDL
MODEL 5
REMARK VINA RESULT:      -7.0      1.875      2.166
REMARK  Name = 
REMARK  9 active torsions:
REMARK  status: ('A' for Active; 'I' for Inactive)
REMARK    1  A    between atoms: C_1  and  O_2
REMARK    2  A    between atoms: O_2  and  C_3
REMARK    3  A    between atoms: C_6  and  N_7
REMARK    4  A    between atoms: N_7  and  C_8
REMARK    5  A    between atoms: C_8  and  C_9
REMARK    6  A    between atoms: C_8  and  C_10
REMARK    7  A    between atoms: N_12  and  C_13
REMARK    8  A    between atoms: C_13  and  C_14
REMARK    9  A    between atoms: C_14  and  C_15
REMARK                            x       y       z     vdW  Elec       q    Type
REMARK                         _______ _______ _______ _____ _____    ______ ____
ROOT
ATOM      1  C   UNL     1       5.962   5.280  17.135  0.00  0.00    +0.000 C 
ATOM      2  C   UNL     1       6.055   4.208  16.053  0.00  0.00    +0.000 C 
ENDROOT
BRANCH   1   3
ATOM      3  C   UNL     1       6.978   6.410  16.858  0.00  0.00    +0.000 C 
ATOM      4  O   UNL     1       7.830   6.370  15.976  0.00  0.00    +0.000 OA
ATOM      5  N   UNL     1       6.850   7.475  17.732  0.00  0.00    +0.000 N 
ATOM      6  H   UNL     1       6.046   7.470  18.355  0.00  0.00    +0.000 HD
BRANCH   5   7
ATOM      7  C   UNL     1       7.691   8.645  17.596  0.00  0.00    +0.000 C 
BRANCH   7   8
ATOM      8  C   UNL     1       8.720   8.764  18.717  0.00  0.00    +0.000 C 
BRANCH   8   9
ATOM      9  C   UNL     1       9.178  10.181  18.895  0.00  0.00    +0.000 A 
ATOM     10  C   UNL     1       9.540  11.089  17.919  0.00  0.00    +0.000 A 
ATOM     11  C   UNL     1       9.914  12.350  18.466  0.00  0.00    +0.000 A 
ATOM     12  C   UNL     1       9.825  12.363  19.840  0.00  0.00    +0.000 A 
ATOM     13  S   UNL     1       9.294  10.862  20.463  0.00  0.00    +0.000 S 
ENDBRANCH   8   9
ENDBRANCH   7   8
ENDBRANCH   5   7
ENDBRANCH   1   3
BRANCH   1  14
ATOM     14  N   UNL     1       4.612   5.874  17.247  0.00  0.00    +0.000 N 
ATOM     15  H   UNL     1       4.283   6.334  16.402  0.00  0.00    +0.000 HD
BRANCH  14  19
ATOM     16  C   UNL     1       1.748   4.237  19.905  0.00  0.00    +0.000 A 
ATOM     17  C   UNL     1       2.732   5.120  20.348  0.00  0.00    +0.000 A 
ATOM     18  C   UNL     1       3.659   5.678  19.454  0.00  0.00    +0.000 A 
ATOM     19  C   UNL     1       3.621   5.372  18.085  0.00  0.00    +0.000 A 
ATOM     20  C   UNL     1       2.647   4.468  17.660  0.00  0.00    +0.000 A 
ATOM     21  C   UNL     1       1.729   3.923  18.548  0.00  0.00    +0.000 A 
ATOM     22  F   UNL     1       0.821   3.065  18.041  0.00  0.00    +0.000 F 
BRANCH  16  24
ATOM     23  C   UNL     1       1.387   2.661  21.642  0.00  0.00    +0.000 C 
ATOM     24  O   UNL     1       0.910   3.766  20.881  0.00  0.00    +0.000 OA
ENDBRANCH  16  24
ENDBRANCH  14  19
ENDBRANCH   1  14
TORSDOF 7
ENDMDL
MODEL 6
REMARK VINA RESULT:      -7.0      1.768      2.303
REMARK  Name = 
REMARK  9 active torsions:
REMARK  status: ('A' for Active; 'I' for Inactive)
REMARK    1  A    between atoms: C_1  and  O_2
REMARK    2  A    between atoms: O_2  and  C_3
REMARK    3  A    between atoms: C_6  and  N_7
REMARK    4  A    between atoms: N_7  and  C_8
REMARK    5  A    between atoms: C_8  and  C_9
REMARK    6  A    between atoms: C_8  and  C_10
REMARK    7  A    between atoms: N_12  and  C_13
REMARK    8  A    between atoms: C_13  and  C_14
REMARK    9  A    between atoms: C_14  and  C_15
REMARK                            x       y       z     vdW  Elec       q    Type
REMARK                         _______ _______ _______ _____ _____    ______ ____
ROOT
ATOM      1  C   UNL     1       6.330   4.590  16.440  0.00  0.00    +0.000 C 
ATOM      2  C   UNL     1       7.119   4.719  15.141  0.00  0.00    +0.000 C 
ENDROOT
BRANCH   1   3
ATOM      3  C   UNL     1       6.970   5.459  17.545  0.00  0.00    +0.000 C 
ATOM      4  O   UNL     1       7.163   5.078  18.696  0.00  0.00    +0.000 OA
ATOM      5  N   UNL     1       7.285   6.735  17.112  0.00  0.00    +0.000 N 
ATOM      6  H   UNL     1       7.195   6.922  16.116  0.00  0.00    +0.000 HD
BRANCH   5   7
ATOM      7  C   UNL     1       7.933   7.676  18.001  0.00  0.00    +0.000 C 
BRANCH   7   8
ATOM      8  C   UNL     1       7.845   9.115  17.500  0.00  0.00    +0.000 C 
BRANCH   8   9
ATOM      9  C   UNL     1       8.617  10.051  18.382  0.00  0.00    +0.000 A 
ATOM     10  C   UNL     1       9.200   9.785  19.605  0.00  0.00    +0.000 A 
ATOM     11  C   UNL     1       9.860  10.925  20.148  0.00  0.00    +0.000 A 
ATOM     12  C   UNL     1       9.758  12.022  19.322  0.00  0.00    +0.000 A 
ATOM     13  S   UNL     1       8.871  11.677  17.903  0.00  0.00    +0.000 S 
ENDBRANCH   8   9
ENDBRANCH   7   8
ENDBRANCH   5   7
ENDBRANCH   1   3
BRANCH   1  14
ATOM     14  N   UNL     1       4.910   4.980  16.295  0.00  0.00    +0.000 N 
ATOM     15  H   UNL     1       4.601   5.094  15.333  0.00  0.00    +0.000 HD
BRANCH  14  19
ATOM     16  C   UNL     1       2.031   3.970  19.235  0.00  0.00    +0.000 A 
ATOM     17  C   UNL     1       2.405   5.294  19.005  0.00  0.00    +0.000 A 
ATOM     18  C   UNL     1       3.340   5.619  18.011  0.00  0.00    +0.000 A 
ATOM     19  C   UNL     1       3.922   4.626  17.209  0.00  0.00    +0.000 A 
ATOM     20  C   UNL     1       3.557   3.304  17.465  0.00  0.00    +0.000 A 
ATOM     21  C   UNL     1       2.628   2.988  18.448  0.00  0.00    +0.000 A 
ATOM     22  F   UNL     1       2.333   1.683  18.616  0.00  0.00    +0.000 F 
BRANCH  16  24
ATOM     23  C   UNL     1       1.545   3.036  21.361  0.00  0.00    +0.000 C 
ATOM     24  O   UNL     1       1.113   3.792  20.235  0.00  0.00    +0.000 OA
ENDBRANCH  16  24
ENDBRANCH  14  19
ENDBRANCH   1  14
TORSDOF 7
ENDMDL
MODEL 7
REMARK VINA RESULT:      -6.9      4.503      6.651
REMARK  Name = 
REMARK  9 active torsions:
REMARK  status: ('A' for Active; 'I' for Inactive)
REMARK    1  A    between atoms: C_1  and  O_2
REMARK    2  A    between atoms: O_2  and  C_3
REMARK    3  A    between atoms: C_6  and  N_7
REMARK    4  A    between atoms: N_7  and  C_8
REMARK    5  A    between atoms: C_8  and  C_9
REMARK    6  A    between atoms: C_8  and  C_10
REMARK    7  A    between atoms: N_12  and  C_13
REMARK    8  A    between atoms: C_13  and  C_14
REMARK    9  A    between atoms: C_14  and  C_15
REMARK                            x       y       z     vdW  Elec       q    Type
REMARK                         _______ _______ _______ _____ _____    ______ ____
ROOT
ATOM      1  C   UNL     1       2.375   4.388  19.913  0.00  0.00    +0.000 C 
ATOM      2  C   UNL     1       0.922   4.262  20.358  0.00  0.00    +0.000 C 
ENDROOT
BRANCH   1   3
ATOM      3  C   UNL     1       2.502   4.078  18.405  0.00  0.00    +0.000 C 
ATOM      4  O   UNL     1       1.547   3.870  17.661  0.00  0.00    +0.000 OA
ATOM      5  N   UNL     1       3.816   4.029  17.973  0.00  0.00    +0.000 N 
ATOM      6  H   UNL     1       4.531   4.326  18.632  0.00  0.00    +0.000 HD
BRANCH   5   7
ATOM      7  C   UNL     1       4.125   3.793  16.579  0.00  0.00    +0.000 C 
BRANCH   7   8
ATOM      8  C   UNL     1       5.625   3.816  16.297  0.00  0.00    +0.000 C 
BRANCH   8   9
ATOM      9  C   UNL     1       6.280   5.020  16.908  0.00  0.00    +0.000 A 
ATOM     10  C   UNL     1       7.337   5.058  17.796  0.00  0.00    +0.000 A 
ATOM     11  C   UNL     1       7.694   6.390  18.154  0.00  0.00    +0.000 A 
ATOM     12  C   UNL     1       6.899   7.323  17.528  0.00  0.00    +0.000 A 
ATOM     13  S   UNL     1       5.729   6.595  16.517  0.00  0.00    +0.000 S 
ENDBRANCH   8   9
ENDBRANCH   7   8
ENDBRANCH   5   7
ENDBRANCH   1   3
BRANCH   1  14
ATOM     14  N   UNL     1       2.946   5.728  20.170  0.00  0.00    +0.000 N 
ATOM     15  H   UNL     1       3.962   5.754  20.200  0.00  0.00    +0.000 HD
BRANCH  14  19
ATOM     16  C   UNL     1       1.244   9.419  18.974  0.00  0.00    +0.000 A 
ATOM     17  C   UNL     1       1.967   8.627  18.083  0.00  0.00    +0.000 A 
ATOM     18  C   UNL     1       2.504   7.393  18.482  0.00  0.00    +0.000 A 
ATOM     19  C   UNL     1       2.323   6.912  19.787  0.00  0.00    +0.000 A 
ATOM     20  C   UNL     1       1.619   7.726  20.675  0.00  0.00    +0.000 A 
ATOM     21  C   UNL     1       1.086   8.944  20.274  0.00  0.00    +0.000 A 
ATOM     22  F   UNL     1       0.415   9.655  21.202  0.00  0.00    +0.000 F 
BRANCH  16  24
ATOM     23  C   UNL     1       1.502  11.773  18.810  0.00  0.00    +0.000 C 
ATOM     24  O   UNL     1       0.779  10.598  18.456  0.00  0.00    +0.000 OA
ENDBRANCH  16  24
ENDBRANCH  14  19
ENDBRANCH   1  14
TORSDOF 7
ENDMDL
MODEL 8
REMARK VINA RESULT:      -6.9      5.232      7.603
REMARK  Name = 
REMARK  9 active torsions:
REMARK  status: ('A' for Active; 'I' for Inactive)
REMARK    1  A    between atoms: C_1  and  O_2
REMARK    2  A    between atoms: O_2  and  C_3
REMARK    3  A    between atoms: C_6  and  N_7
REMARK    4  A    between atoms: N_7  and  C_8
REMARK    5  A    between atoms: C_8  and  C_9
REMARK    6  A    between atoms: C_8  and  C_10
REMARK    7  A    between atoms: N_12  and  C_13
REMARK    8  A    between atoms: C_13  and  C_14
REMARK    9  A    between atoms: C_14  and  C_15
REMARK                            x       y       z     vdW  Elec       q    Type
REMARK                         _______ _______ _______ _____ _____    ______ ____
ROOT
ATOM      1  C   UNL     1       2.445   5.560  18.997  0.00  0.00    +0.000 C 
ATOM      2  C   UNL     1       1.572   4.601  19.800  0.00  0.00    +0.000 C 
ENDROOT
BRANCH   1   3
ATOM      3  C   UNL     1       2.150   7.021  19.402  0.00  0.00    +0.000 C 
ATOM      4  O   UNL     1       2.263   7.982  18.647  0.00  0.00    +0.000 OA
ATOM      5  N   UNL     1       1.768   7.146  20.726  0.00  0.00    +0.000 N 
ATOM      6  H   UNL     1       1.592   6.286  21.241  0.00  0.00    +0.000 HD
BRANCH   5   7
ATOM      7  C   UNL     1       1.410   8.438  21.271  0.00  0.00    +0.000 C 
BRANCH   7   8
ATOM      8  C   UNL     1      -0.089   8.572  21.529  0.00  0.00    +0.000 C 
BRANCH   8   9
ATOM      9  C   UNL     1      -0.464   9.987  21.856  0.00  0.00    +0.000 A 
ATOM     10  C   UNL     1      -0.897  10.498  23.064  0.00  0.00    +0.000 A 
ATOM     11  C   UNL     1      -1.154  11.898  22.998  0.00  0.00    +0.000 A 
ATOM     12  C   UNL     1      -0.910  12.408  21.743  0.00  0.00    +0.000 A 
ATOM     13  S   UNL     1      -0.376  11.204  20.653  0.00  0.00    +0.000 S 
ENDBRANCH   8   9
ENDBRANCH   7   8
ENDBRANCH   5   7
ENDBRANCH   1   3
BRANCH   1  14
ATOM     14  N   UNL     1       3.893   5.305  19.166  0.00  0.00    +0.000 N 
ATOM     15  H   UNL     1       4.121   4.659  19.917  0.00  0.00    +0.000 HD
BRANCH  14  19
ATOM     16  C   UNL     1       6.758   5.289  16.046  0.00  0.00    +0.000 A 
ATOM     17  C   UNL     1       5.728   4.350  16.094  0.00  0.00    +0.000 A 
ATOM     18  C   UNL     1       4.768   4.382  17.118  0.00  0.00    +0.000 A 
ATOM     19  C   UNL     1       4.808   5.362  18.120  0.00  0.00    +0.000 A 
ATOM     20  C   UNL     1       5.858   6.280  18.073  0.00  0.00    +0.000 A 
ATOM     21  C   UNL     1       6.802   6.247  17.056  0.00  0.00    +0.000 A 
ATOM     22  F   UNL     1       7.775   7.181  17.091  0.00  0.00    +0.000 F 
BRANCH  16  24
ATOM     23  C   UNL     1       7.075   4.630  13.788  0.00  0.00    +0.000 C 
ATOM     24  O   UNL     1       7.626   5.143  14.997  0.00  0.00    +0.000 OA
ENDBRANCH  16  24
ENDBRANCH  14  19
ENDBRANCH   1  14
TORSDOF 7
ENDMDL
MODEL 9
REMARK VINA RESULT:      -6.9      4.683      6.983
REMARK  Name = 
REMARK  9 active torsions:
REMARK  status: ('A' for Active; 'I' for Inactive)
REMARK    1  A    between atoms: C_1  and  O_2
REMARK    2  A    between atoms: O_2  and  C_3
REMARK    3  A    between atoms: C_6  and  N_7
REMARK    4  A    between atoms: N_7  and  C_8
REMARK    5  A    between atoms: C_8  and  C_9
REMARK    6  A    between atoms: C_8  and  C_10
REMARK    7  A    between atoms: N_12  and  C_13
REMARK    8  A    between atoms: C_13  and  C_14
REMARK    9  A    between atoms: C_14  and  C_15
REMARK                            x       y       z     vdW  Elec       q    Type
REMARK                         _______ _______ _______ _____ _____    ______ ____
ROOT
ATOM      1  C   UNL     1       2.920   3.798  19.592  0.00  0.00    +0.000 C 
ATOM      2  C   UNL     1       2.336   3.408  20.947  0.00  0.00    +0.000 C 
ENDROOT
BRANCH   1   3
ATOM      3  C   UNL     1       2.427   5.203  19.180  0.00  0.00    +0.000 C 
ATOM      4  O   UNL     1       2.025   5.490  18.057  0.00  0.00    +0.000 OA
ATOM      5  N   UNL     1       2.510   6.125  20.208  0.00  0.00    +0.000 N 
ATOM      6  H   UNL     1       2.746   5.771  21.131  0.00  0.00    +0.000 HD
BRANCH   5   7
ATOM      7  C   UNL     1       2.050   7.485  20.017  0.00  0.00    +0.000 C 
BRANCH   7   8
ATOM      8  C   UNL     1       1.139   7.962  21.145  0.00  0.00    +0.000 C 
BRANCH   8   9
ATOM      9  C   UNL     1       0.681   9.372  20.921  0.00  0.00    +0.000 A 
ATOM     10  C   UNL     1       0.254  10.290  21.861  0.00  0.00    +0.000 A 
ATOM     11  C   UNL     1      -0.097  11.540  21.275  0.00  0.00    +0.000 A 
ATOM     12  C   UNL     1       0.073  11.535  19.909  0.00  0.00    +0.000 A 
ATOM     13  S   UNL     1       0.652  10.031  19.339  0.00  0.00    +0.000 S 
ENDBRANCH   8   9
ENDBRANCH   7   8
ENDBRANCH   5   7
ENDBRANCH   1   3
BRANCH   1  14
ATOM     14  N   UNL     1       4.399   3.793  19.576  0.00  0.00    +0.000 N 
ATOM     15  H   UNL     1       4.823   3.024  20.090  0.00  0.00    +0.000 HD
BRANCH  14  19
ATOM     16  C   UNL     1       6.792   5.167  16.361  0.00  0.00    +0.000 A 
ATOM     17  C   UNL     1       5.789   4.216  16.170  0.00  0.00    +0.000 A 
ATOM     18  C   UNL     1       4.985   3.788  17.237  0.00  0.00    +0.000 A 
ATOM     19  C   UNL     1       5.156   4.308  18.528  0.00  0.00    +0.000 A 
ATOM     20  C   UNL     1       6.178   5.240  18.711  0.00  0.00    +0.000 A 
ATOM     21  C   UNL     1       6.968   5.663  17.650  0.00  0.00    +0.000 A 
ATOM     22  F   UNL     1       7.926   6.573  17.924  0.00  0.00    +0.000 F 
BRANCH  16  24
ATOM     23  C   UNL     1       7.101   4.857  14.028  0.00  0.00    +0.000 C 
ATOM     24  O   UNL     1       7.503   5.493  15.237  0.00  0.00    +0.000 OA
ENDBRANCH  16  24
ENDBRANCH  14  19
ENDBRANCH   1  14
TORSDOF 7
ENDMDL
