MODEL 1
REMARK VINA RESULT:      -9.3      0.000      0.000
REMARK  Name = 
REMARK  7 active torsions:
REMARK  status: ('A' for Active; 'I' for Inactive)
REMARK    1  A    between atoms: C_2  and  C_4
REMARK    2  A    between atoms: C_9  and  C_10
REMARK    3  A    between atoms: C_10  and  O_11
REMARK    4  A    between atoms: O_11  and  C_12
REMARK    5  A    between atoms: C_14  and  C_15
REMARK    6  A    between atoms: C_18  and  C_19
REMARK    7  A    between atoms: C_19  and  N_20
REMARK                            x       y       z     vdW  Elec       q    Type
REMARK                         _______ _______ _______ _____ _____    ______ ____
ROOT
ATOM      1  C   UNL     1       3.554   4.812  17.850  0.00  0.00    +0.000 A 
ATOM      2  C   UNL     1       3.987   5.985  18.492  0.00  0.00    +0.000 A 
ATOM      3  C   UNL     1       3.306   6.387  19.636  0.00  0.00    +0.000 A 
ATOM      4  C   UNL     1       2.994   5.304  20.426  0.00  0.00    +0.000 A 
ATOM      5  C   UNL     1       2.167   4.425  19.788  0.00  0.00    +0.000 A 
ATOM      6  N   UNL     1       1.119   3.996  20.494  0.00  0.00    +0.000 NA
ATOM      7  C   UNL     1       0.358   3.038  19.927  0.00  0.00    +0.000 A 
ATOM      8  C   UNL     1       0.711   2.413  18.757  0.00  0.00    +0.000 A 
ATOM      9  C   UNL     1       1.806   2.894  18.023  0.00  0.00    +0.000 A 
ATOM     10  C   UNL     1       2.518   4.035  18.476  0.00  0.00    +0.000 A 
ENDROOT
BRANCH   3  11
ATOM     11  C   UNL     1       2.223   7.427  19.580  0.00  0.00    +0.000 A 
ATOM     12  C   UNL     1       1.470   7.792  20.705  0.00  0.00    +0.000 A 
ATOM     13  C   UNL     1       0.579   8.877  20.671  0.00  0.00    +0.000 A 
ATOM     14  C   UNL     1       0.409   9.637  19.508  0.00  0.00    +0.000 A 
ATOM     15  C   UNL     1       1.165   9.290  18.382  0.00  0.00    +0.000 A 
ATOM     16  C   UNL     1       2.062   8.215  18.421  0.00  0.00    +0.000 A 
BRANCH  14  17
ATOM     17  C   UNL     1      -0.628  10.735  19.426  0.00  0.00    +0.000 C 
BRANCH  17  18
ATOM     18  N   UNL     1      -1.277  11.043  18.154  0.00  0.00    +0.000 NA
ATOM     19  C   UNL     1      -2.220  12.164  18.125  0.00  0.00    +0.000 C 
ATOM     20  C   UNL     1      -3.689  11.781  18.380  0.00  0.00    +0.000 C 
ATOM     21  O   UNL     1      -4.116  10.692  17.548  0.00  0.00    +0.000 OA
ATOM     22  C   UNL     1      -3.258   9.555  17.694  0.00  0.00    +0.000 C 
ATOM     23  C   UNL     1      -1.798   9.910  17.387  0.00  0.00    +0.000 C 
ENDBRANCH  17  18
ENDBRANCH  14  17
ENDBRANCH   3  11
BRANCH   1  24
ATOM     24  O   UNL     1       4.339   4.395  16.825  0.00  0.00    +0.000 OA
BRANCH  24  25
ATOM     25  C   UNL     1       5.553   3.662  17.016  0.00  0.00    +0.000 C 
BRANCH  25  31
ATOM     26  C   UNL     1       6.851   5.853  16.679  0.00  0.00    +0.000 A 
ATOM     27  C   UNL     1       7.560   6.899  17.307  0.00  0.00    +0.000 A 
ATOM     28  C   UNL     1       8.037   6.745  18.600  0.00  0.00    +0.000 A 
ATOM     29  C   UNL     1       7.784   5.555  19.259  0.00  0.00    +0.000 A 
ATOM     30  N   UNL     1       7.033   4.562  18.735  0.00  0.00    +0.000 NA
ATOM     31  C   UNL     1       6.549   4.722  17.470  0.00  0.00    +0.000 A 
BRANCH  26  33
ATOM     32  N   UNL     1       5.295   6.726  15.001  0.00  0.00    +0.000 N 
ATOM     33  C   UNL     1       6.455   6.001  15.245  0.00  0.00    +0.000 C 
ATOM     34  O   UNL     1       7.070   5.560  14.292  0.00  0.00    +0.000 OA
ATOM     35  H   UNL     1       5.089   6.907  14.037  0.00  0.00    +0.000 HD
ATOM     36  H   UNL     1       4.880   7.347  15.688  0.00  0.00    +0.000 HD
ENDBRANCH  26  33
ENDBRANCH  25  31
ENDBRANCH  24  25
ENDBRANCH   1  24
TORSDOF 7
ENDMDL
MODEL 2
REMARK VINA RESULT:      -9.2      1.392      2.213
REMARK  Name = 
REMARK  7 active torsions:
REMARK  status: ('A' for Active; 'I' for Inactive)
REMARK    1  A    between atoms: C_2  and  C_4
REMARK    2  A    between atoms: C_9  and  C_10
REMARK    3  A    between atoms: C_10  and  O_11
REMARK    4  A    between atoms: O_11  and  C_12
REMARK    5  A    between atoms: C_14  and  C_15
REMARK    6  A    between atoms: C_18  and  C_19
REMARK    7  A    between atoms: C_19  and  N_20
REMARK                            x       y       z     vdW  Elec       q    Type
REMARK                         _______ _______ _______ _____ _____    ______ ____
ROOT
ATOM      1  C   UNL     1       3.410   4.559  17.371  0.00  0.00    +0.000 A 
ATOM      2  C   UNL     1       3.978   5.784  17.760  0.00  0.00    +0.000 A 
ATOM      3  C   UNL     1       3.576   6.329  18.975  0.00  0.00    +0.000 A 
ATOM      4  C   UNL     1       3.452   5.349  19.934  0.00  0.00    +0.000 A 
ATOM      5  C   UNL     1       2.501   4.426  19.604  0.00  0.00    +0.000 A 
ATOM      6  N   UNL     1       1.641   4.106  20.573  0.00  0.00    +0.000 NA
ATOM      7  C   UNL     1       0.771   3.111  20.306  0.00  0.00    +0.000 A 
ATOM      8  C   UNL     1       0.848   2.351  19.166  0.00  0.00    +0.000 A 
ATOM      9  C   UNL     1       1.747   2.718  18.153  0.00  0.00    +0.000 A 
ATOM     10  C   UNL     1       2.544   3.884  18.300  0.00  0.00    +0.000 A 
ENDROOT
BRANCH   3  11
ATOM     11  C   UNL     1       2.509   7.384  19.046  0.00  0.00    +0.000 A 
ATOM     12  C   UNL     1       1.883   7.743  20.250  0.00  0.00    +0.000 A 
ATOM     13  C   UNL     1       1.010   8.840  20.324  0.00  0.00    +0.000 A 
ATOM     14  C   UNL     1       0.731   9.619  19.195  0.00  0.00    +0.000 A 
ATOM     15  C   UNL     1       1.359   9.279  17.991  0.00  0.00    +0.000 A 
ATOM     16  C   UNL     1       2.238   8.191  17.922  0.00  0.00    +0.000 A 
BRANCH  14  17
ATOM     17  C   UNL     1      -0.293  10.732  19.236  0.00  0.00    +0.000 C 
BRANCH  17  18
ATOM     18  N   UNL     1      -1.072  11.063  18.046  0.00  0.00    +0.000 NA
ATOM     19  C   UNL     1      -2.001  12.193  18.133  0.00  0.00    +0.000 C 
ATOM     20  C   UNL     1      -3.438  11.819  18.541  0.00  0.00    +0.000 C 
ATOM     21  O   UNL     1      -3.963  10.746  17.746  0.00  0.00    +0.000 OA
ATOM     22  C   UNL     1      -3.107   9.599  17.784  0.00  0.00    +0.000 C 
ATOM     23  C   UNL     1      -1.684   9.945  17.326  0.00  0.00    +0.000 C 
ENDBRANCH  17  18
ENDBRANCH  14  17
ENDBRANCH   3  11
BRANCH   1  24
ATOM     24  O   UNL     1       3.941   4.010  16.249  0.00  0.00    +0.000 OA
BRANCH  24  25
ATOM     25  C   UNL     1       5.216   3.363  16.222  0.00  0.00    +0.000 C 
BRANCH  25  31
ATOM     26  C   UNL     1       7.022   4.849  15.160  0.00  0.00    +0.000 A 
ATOM     27  C   UNL     1       7.758   5.138  13.991  0.00  0.00    +0.000 A 
ATOM     28  C   UNL     1       7.318   4.687  12.756  0.00  0.00    +0.000 A 
ATOM     29  C   UNL     1       6.158   3.934  12.704  0.00  0.00    +0.000 A 
ATOM     30  N   UNL     1       5.469   3.554  13.802  0.00  0.00    +0.000 NA
ATOM     31  C   UNL     1       5.913   3.984  15.019  0.00  0.00    +0.000 A 
BRANCH  26  33
ATOM     32  N   UNL     1       7.405   6.835  16.540  0.00  0.00    +0.000 N 
ATOM     33  C   UNL     1       7.454   5.450  16.459  0.00  0.00    +0.000 C 
ATOM     34  O   UNL     1       7.820   4.827  17.439  0.00  0.00    +0.000 OA
ATOM     35  H   UNL     1       7.599   7.227  17.442  0.00  0.00    +0.000 HD
ATOM     36  H   UNL     1       6.869   7.405  15.893  0.00  0.00    +0.000 HD
ENDBRANCH  26  33
ENDBRANCH  25  31
ENDBRANCH  24  25
ENDBRANCH   1  24
TORSDOF 7
ENDMDL
MODEL 3
REMARK VINA RESULT:      -9.2      1.576      2.026
REMARK  Name = 
REMARK  7 active torsions:
REMARK  status: ('A' for Active; 'I' for Inactive)
REMARK    1  A    between atoms: C_2  and  C_4
REMARK    2  A    between atoms: C_9  and  C_10
REMARK    3  A    between atoms: C_10  and  O_11
REMARK    4  A    between atoms: O_11  and  C_12
REMARK    5  A    between atoms: C_14  and  C_15
REMARK    6  A    between atoms: C_18  and  C_19
REMARK    7  A    between atoms: C_19  and  N_20
REMARK                            x       y       z     vdW  Elec       q    Type
REMARK                         _______ _______ _______ _____ _____    ______ ____
ROOT
ATOM      1  C   UNL     1       3.398   4.936  17.730  0.00  0.00    +0.000 A 
ATOM      2  C   UNL     1       3.863   6.140  18.288  0.00  0.00    +0.000 A 
ATOM      3  C   UNL     1       3.266   6.584  19.462  0.00  0.00    +0.000 A 
ATOM      4  C   UNL     1       3.028   5.533  20.319  0.00  0.00    +0.000 A 
ATOM      5  C   UNL     1       2.167   4.620  19.783  0.00  0.00    +0.000 A 
ATOM      6  N   UNL     1       1.181   4.211  20.585  0.00  0.00    +0.000 NA
ATOM      7  C   UNL     1       0.391   3.222  20.117  0.00  0.00    +0.000 A 
ATOM      8  C   UNL     1       0.663   2.551  18.952  0.00  0.00    +0.000 A 
ATOM      9  C   UNL     1       1.693   3.011  18.116  0.00  0.00    +0.000 A 
ATOM     10  C   UNL     1       2.422   4.177  18.466  0.00  0.00    +0.000 A 
ENDROOT
BRANCH   3  11
ATOM     11  C   UNL     1       2.169   7.610  19.445  0.00  0.00    +0.000 A 
ATOM     12  C   UNL     1       1.449   7.963  20.596  0.00  0.00    +0.000 A 
ATOM     13  C   UNL     1       0.543   9.036  20.595  0.00  0.00    +0.000 A 
ATOM     14  C   UNL     1       0.325   9.797  19.440  0.00  0.00    +0.000 A 
ATOM     15  C   UNL     1       1.047   9.463  18.289  0.00  0.00    +0.000 A 
ATOM     16  C   UNL     1       1.959   8.399  18.295  0.00  0.00    +0.000 A 
BRANCH  14  17
ATOM     17  C   UNL     1      -0.728  10.881  19.395  0.00  0.00    +0.000 C 
BRANCH  17  18
ATOM     18  N   UNL     1      -0.540  12.124  20.140  0.00  0.00    +0.000 NA
ATOM     19  C   UNL     1      -1.162  13.339  19.606  0.00  0.00    +0.000 C 
ATOM     20  C   UNL     1      -0.261  14.171  18.675  0.00  0.00    +0.000 C 
ATOM     21  O   UNL     1       1.024  14.431  19.258  0.00  0.00    +0.000 OA
ATOM     22  C   UNL     1       1.676  13.219  19.649  0.00  0.00    +0.000 C 
ATOM     23  C   UNL     1       0.813  12.405  20.622  0.00  0.00    +0.000 C 
ENDBRANCH  17  18
ENDBRANCH  14  17
ENDBRANCH   3  11
BRANCH   1  24
ATOM     24  O   UNL     1       4.108   4.484  16.667  0.00  0.00    +0.000 OA
BRANCH  24  25
ATOM     25  C   UNL     1       5.263   3.649  16.794  0.00  0.00    +0.000 C 
BRANCH  25  31
ATOM     26  C   UNL     1       6.930   5.597  16.652  0.00  0.00    +0.000 A 
ATOM     27  C   UNL     1       7.666   6.559  17.375  0.00  0.00    +0.000 A 
ATOM     28  C   UNL     1       7.866   6.410  18.739  0.00  0.00    +0.000 A 
ATOM     29  C   UNL     1       7.311   5.311  19.370  0.00  0.00    +0.000 A 
ATOM     30  N   UNL     1       6.522   4.413  18.740  0.00  0.00    +0.000 NA
ATOM     31  C   UNL     1       6.312   4.571  17.401  0.00  0.00    +0.000 A 
BRANCH  26  33
ATOM     32  N   UNL     1       5.635   6.213  14.667  0.00  0.00    +0.000 N 
ATOM     33  C   UNL     1       6.834   5.721  15.165  0.00  0.00    +0.000 C 
ATOM     34  O   UNL     1       7.718   5.446  14.374  0.00  0.00    +0.000 OA
ATOM     35  H   UNL     1       5.612   6.389  13.680  0.00  0.00    +0.000 HD
ATOM     36  H   UNL     1       4.965   6.714  15.242  0.00  0.00    +0.000 HD
ENDBRANCH  26  33
ENDBRANCH  25  31
ENDBRANCH  24  25
ENDBRANCH   1  24
TORSDOF 7
ENDMDL
MODEL 4
REMARK VINA RESULT:      -9.1      1.413      1.816
REMARK  Name = 
REMARK  7 active torsions:
REMARK  status: ('A' for Active; 'I' for Inactive)
REMARK    1  A    between atoms: C_2  and  C_4
REMARK    2  A    between atoms: C_9  and  C_10
REMARK    3  A    between atoms: C_10  and  O_11
REMARK    4  A    between atoms: O_11  and  C_12
REMARK    5  A    between atoms: C_14  and  C_15
REMARK    6  A    between atoms: C_18  and  C_19
REMARK    7  A    between atoms: C_19  and  N_20
REMARK                            x       y       z     vdW  Elec       q    Type
REMARK                         _______ _______ _______ _____ _____    ______ ____
ROOT
ATOM      1  C   UNL     1       3.387   4.957  17.696  0.00  0.00    +0.000 A 
ATOM      2  C   UNL     1       3.847   6.175  18.225  0.00  0.00    +0.000 A 
ATOM      3  C   UNL     1       3.265   6.631  19.403  0.00  0.00    +0.000 A 
ATOM      4  C   UNL     1       3.056   5.591  20.281  0.00  0.00    +0.000 A 
ATOM      5  C   UNL     1       2.197   4.659  19.775  0.00  0.00    +0.000 A 
ATOM      6  N   UNL     1       1.230   4.251  20.601  0.00  0.00    +0.000 NA
ATOM      7  C   UNL     1       0.446   3.245  20.164  0.00  0.00    +0.000 A 
ATOM      8  C   UNL     1       0.705   2.558  19.004  0.00  0.00    +0.000 A 
ATOM      9  C   UNL     1       1.714   3.017  18.143  0.00  0.00    +0.000 A 
ATOM     10  C   UNL     1       2.435   4.198  18.461  0.00  0.00    +0.000 A 
ENDROOT
BRANCH   3  11
ATOM     11  C   UNL     1       2.155   7.643  19.389  0.00  0.00    +0.000 A 
ATOM     12  C   UNL     1       1.441   7.995  20.544  0.00  0.00    +0.000 A 
ATOM     13  C   UNL     1       0.522   9.057  20.544  0.00  0.00    +0.000 A 
ATOM     14  C   UNL     1       0.284   9.806  19.386  0.00  0.00    +0.000 A 
ATOM     15  C   UNL     1       0.999   9.473  18.230  0.00  0.00    +0.000 A 
ATOM     16  C   UNL     1       1.924   8.420  18.235  0.00  0.00    +0.000 A 
BRANCH  14  17
ATOM     17  C   UNL     1      -0.784  10.877  19.344  0.00  0.00    +0.000 C 
BRANCH  17  18
ATOM     18  N   UNL     1      -0.593  12.138  20.056  0.00  0.00    +0.000 NA
ATOM     19  C   UNL     1      -0.381  12.076  21.505  0.00  0.00    +0.000 C 
ATOM     20  C   UNL     1      -1.661  12.195  22.352  0.00  0.00    +0.000 C 
ATOM     21  O   UNL     1      -2.459  13.324  21.969  0.00  0.00    +0.000 OA
ATOM     22  C   UNL     1      -2.772  13.294  20.573  0.00  0.00    +0.000 C 
ATOM     23  C   UNL     1      -1.503  13.233  19.713  0.00  0.00    +0.000 C 
ENDBRANCH  17  18
ENDBRANCH  14  17
ENDBRANCH   3  11
BRANCH   1  24
ATOM     24  O   UNL     1       4.084   4.496  16.627  0.00  0.00    +0.000 OA
BRANCH  24  25
ATOM     25  C   UNL     1       5.237   3.657  16.747  0.00  0.00    +0.000 C 
BRANCH  25  31
ATOM     26  C   UNL     1       6.905   5.606  16.615  0.00  0.00    +0.000 A 
ATOM     27  C   UNL     1       7.646   6.560  17.344  0.00  0.00    +0.000 A 
ATOM     28  C   UNL     1       7.852   6.396  18.705  0.00  0.00    +0.000 A 
ATOM     29  C   UNL     1       7.300   5.291  19.328  0.00  0.00    +0.000 A 
ATOM     30  N   UNL     1       6.508   4.400  18.693  0.00  0.00    +0.000 NA
ATOM     31  C   UNL     1       6.290   4.572  17.357  0.00  0.00    +0.000 A 
BRANCH  26  33
ATOM     32  N   UNL     1       5.603   6.251  14.644  0.00  0.00    +0.000 N 
ATOM     33  C   UNL     1       6.801   5.745  15.130  0.00  0.00    +0.000 C 
ATOM     34  O   UNL     1       7.678   5.471  14.331  0.00  0.00    +0.000 OA
ATOM     35  H   UNL     1       5.574   6.436  13.659  0.00  0.00    +0.000 HD
ATOM     36  H   UNL     1       4.939   6.750  15.228  0.00  0.00    +0.000 HD
ENDBRANCH  26  33
ENDBRANCH  25  31
ENDBRANCH  24  25
ENDBRANCH   1  24
TORSDOF 7
ENDMDL
MODEL 5
REMARK VINA RESULT:      -9.0      1.947      2.932
REMARK  Name = 
REMARK  7 active torsions:
REMARK  status: ('A' for Active; 'I' for Inactive)
REMARK    1  A    between atoms: C_2  and  C_4
REMARK    2  A    between atoms: C_9  and  C_10
REMARK    3  A    between atoms: C_10  and  O_11
REMARK    4  A    between atoms: O_11  and  C_12
REMARK    5  A    between atoms: C_14  and  C_15
REMARK    6  A    between atoms: C_18  and  C_19
REMARK    7  A    between atoms: C_19  and  N_20
REMARK                            x       y       z     vdW  Elec       q    Type
REMARK                         _______ _______ _______ _____ _____    ______ ____
ROOT
ATOM      1  C   UNL     1       3.451   4.559  17.237  0.00  0.00    +0.000 A 
ATOM      2  C   UNL     1       4.043   5.776  17.618  0.00  0.00    +0.000 A 
ATOM      3  C   UNL     1       3.676   6.321  18.843  0.00  0.00    +0.000 A 
ATOM      4  C   UNL     1       3.562   5.339  19.802  0.00  0.00    +0.000 A 
ATOM      5  C   UNL     1       2.592   4.430  19.491  0.00  0.00    +0.000 A 
ATOM      6  N   UNL     1       1.751   4.116  20.479  0.00  0.00    +0.000 NA
ATOM      7  C   UNL     1       0.863   3.133  20.228  0.00  0.00    +0.000 A 
ATOM      8  C   UNL     1       0.904   2.376  19.084  0.00  0.00    +0.000 A 
ATOM      9  C   UNL     1       1.784   2.736  18.051  0.00  0.00    +0.000 A 
ATOM     10  C   UNL     1       2.598   3.892  18.184  0.00  0.00    +0.000 A 
ENDROOT
BRANCH   3  11
ATOM     11  C   UNL     1       2.624   7.389  18.943  0.00  0.00    +0.000 A 
ATOM     12  C   UNL     1       1.964   7.686  20.145  0.00  0.00    +0.000 A 
ATOM     13  C   UNL     1       1.106   8.792  20.257  0.00  0.00    +0.000 A 
ATOM     14  C   UNL     1       0.878   9.643  19.168  0.00  0.00    +0.000 A 
ATOM     15  C   UNL     1       1.541   9.364  17.968  0.00  0.00    +0.000 A 
ATOM     16  C   UNL     1       2.405   8.266  17.862  0.00  0.00    +0.000 A 
BRANCH  14  17
ATOM     17  C   UNL     1      -0.129  10.769  19.244  0.00  0.00    +0.000 C 
BRANCH  17  18
ATOM     18  N   UNL     1       0.174  11.981  20.002  0.00  0.00    +0.000 NA
ATOM     19  C   UNL     1      -0.876  12.523  20.868  0.00  0.00    +0.000 C 
ATOM     20  C   UNL     1      -1.778  13.582  20.208  0.00  0.00    +0.000 C 
ATOM     21  O   UNL     1      -1.016  14.616  19.568  0.00  0.00    +0.000 OA
ATOM     22  C   UNL     1      -0.088  14.074  18.622  0.00  0.00    +0.000 C 
ATOM     23  C   UNL     1       0.855  13.057  19.279  0.00  0.00    +0.000 C 
ENDBRANCH  17  18
ENDBRANCH  14  17
ENDBRANCH   3  11
BRANCH   1  24
ATOM     24  O   UNL     1       3.949   4.008  16.102  0.00  0.00    +0.000 OA
BRANCH  24  25
ATOM     25  C   UNL     1       5.212   3.340  16.044  0.00  0.00    +0.000 C 
BRANCH  25  31
ATOM     26  C   UNL     1       7.001   4.812  14.934  0.00  0.00    +0.000 A 
ATOM     27  C   UNL     1       7.716   5.086  13.749  0.00  0.00    +0.000 A 
ATOM     28  C   UNL     1       7.253   4.623  12.527  0.00  0.00    +0.000 A 
ATOM     29  C   UNL     1       6.092   3.872  12.503  0.00  0.00    +0.000 A 
ATOM     30  N   UNL     1       5.422   3.505  13.618  0.00  0.00    +0.000 NA
ATOM     31  C   UNL     1       5.889   3.947  14.822  0.00  0.00    +0.000 A 
BRANCH  26  33
ATOM     32  N   UNL     1       7.965   4.551  17.169  0.00  0.00    +0.000 N 
ATOM     33  C   UNL     1       7.457   5.425  16.218  0.00  0.00    +0.000 C 
ATOM     34  O   UNL     1       7.435   6.614  16.481  0.00  0.00    +0.000 OA
ATOM     35  H   UNL     1       8.361   4.976  17.987  0.00  0.00    +0.000 HD
ATOM     36  H   UNL     1       8.271   3.609  16.944  0.00  0.00    +0.000 HD
ENDBRANCH  26  33
ENDBRANCH  25  31
ENDBRANCH  24  25
ENDBRANCH   1  24
TORSDOF 7
ENDMDL
MODEL 6
REMARK VINA RESULT:      -8.9      2.478      5.514
REMARK  Name = 
REMARK  7 active torsions:
REMARK  status: ('A' for Active; 'I' for Inactive)
REMARK    1  A    between atoms: C_2  and  C_4
REMARK    2  A    between atoms: C_9  and  C_10
REMARK    3  A    between atoms: C_10  and  O_11
REMARK    4  A    between atoms: O_11  and  C_12
REMARK    5  A    between atoms: C_14  and  C_15
REMARK    6  A    between atoms: C_18  and  C_19
REMARK    7  A    between atoms: C_19  and  N_20
REMARK                            x       y       z     vdW  Elec       q    Type
REMARK                         _______ _______ _______ _____ _____    ______ ____
ROOT
ATOM      1  C   UNL     1       5.190   4.687  18.432  0.00  0.00    +0.000 A 
ATOM      2  C   UNL     1       3.941   4.943  17.843  0.00  0.00    +0.000 A 
ATOM      3  C   UNL     1       3.752   6.178  17.233  0.00  0.00    +0.000 A 
ATOM      4  C   UNL     1       4.877   6.557  16.535  0.00  0.00    +0.000 A 
ATOM      5  C   UNL     1       5.961   6.705  17.352  0.00  0.00    +0.000 A 
ATOM      6  N   UNL     1       6.676   7.818  17.173  0.00  0.00    +0.000 NA
ATOM      7  C   UNL     1       7.815   7.925  17.885  0.00  0.00    +0.000 A 
ATOM      8  C   UNL     1       8.313   6.893  18.640  0.00  0.00    +0.000 A 
ATOM      9  C   UNL     1       7.535   5.741  18.829  0.00  0.00    +0.000 A 
ATOM     10  C   UNL     1       6.234   5.663  18.266  0.00  0.00    +0.000 A 
ENDROOT
BRANCH   3  11
ATOM     11  C   UNL     1       3.074   7.312  17.949  0.00  0.00    +0.000 A 
ATOM     12  C   UNL     1       2.724   8.508  17.305  0.00  0.00    +0.000 A 
ATOM     13  C   UNL     1       1.948   9.487  17.946  0.00  0.00    +0.000 A 
ATOM     14  C   UNL     1       1.492   9.303  19.257  0.00  0.00    +0.000 A 
ATOM     15  C   UNL     1       1.823   8.108  19.905  0.00  0.00    +0.000 A 
ATOM     16  C   UNL     1       2.589   7.128  19.260  0.00  0.00    +0.000 A 
BRANCH  14  17
ATOM     17  C   UNL     1       0.752  10.396  19.996  0.00  0.00    +0.000 C 
BRANCH  17  18
ATOM     18  N   UNL     1      -0.480  10.093  20.720  0.00  0.00    +0.000 NA
ATOM     19  C   UNL     1      -1.302  11.222  21.167  0.00  0.00    +0.000 C 
ATOM     20  C   UNL     1      -1.000  11.718  22.593  0.00  0.00    +0.000 C 
ATOM     21  O   UNL     1      -0.987  10.646  23.546  0.00  0.00    +0.000 OA
ATOM     22  C   UNL     1      -0.074   9.614  23.161  0.00  0.00    +0.000 C 
ATOM     23  C   UNL     1      -0.397   9.070  21.763  0.00  0.00    +0.000 C 
ENDBRANCH  17  18
ENDBRANCH  14  17
ENDBRANCH   3  11
BRANCH   1  24
ATOM     24  O   UNL     1       5.362   3.421  18.888  0.00  0.00    +0.000 OA
BRANCH  24  25
ATOM     25  C   UNL     1       4.701   2.910  20.049  0.00  0.00    +0.000 C 
BRANCH  25  31
ATOM     26  C   UNL     1       2.138   2.970  20.220  0.00  0.00    +0.000 A 
ATOM     27  C   UNL     1       0.918   2.830  19.526  0.00  0.00    +0.000 A 
ATOM     28  C   UNL     1       0.881   2.192  18.295  0.00  0.00    +0.000 A 
ATOM     29  C   UNL     1       2.067   1.719  17.761  0.00  0.00    +0.000 A 
ATOM     30  N   UNL     1       3.271   1.910  18.343  0.00  0.00    +0.000 NA
ATOM     31  C   UNL     1       3.308   2.553  19.546  0.00  0.00    +0.000 A 
BRANCH  26  33
ATOM     32  N   UNL     1       2.529   4.878  21.704  0.00  0.00    +0.000 N 
ATOM     33  C   UNL     1       2.129   3.553  21.597  0.00  0.00    +0.000 C 
ATOM     34  O   UNL     1       1.786   2.970  22.609  0.00  0.00    +0.000 OA
ATOM     35  H   UNL     1       2.426   5.293  22.612  0.00  0.00    +0.000 HD
ATOM     36  H   UNL     1       2.566   5.508  20.909  0.00  0.00    +0.000 HD
ENDBRANCH  26  33
ENDBRANCH  25  31
ENDBRANCH  24  25
ENDBRANCH   1  24
TORSDOF 7
ENDMDL
MODEL 7
REMARK VINA RESULT:      -8.9      0.581      1.036
REMARK  Name = 
REMARK  7 active torsions:
REMARK  status: ('A' for Active; 'I' for Inactive)
REMARK    1  A    between atoms: C_2  and  C_4
REMARK    2  A    between atoms: C_9  and  C_10
REMARK    3  A    between atoms: C_10  and  O_11
REMARK    4  A    between atoms: O_11  and  C_12
REMARK    5  A    between atoms: C_14  and  C_15
REMARK    6  A    between atoms: C_18  and  C_19
REMARK    7  A    between atoms: C_19  and  N_20
REMARK                            x       y       z     vdW  Elec       q    Type
REMARK                         _______ _______ _______ _____ _____    ______ ____
ROOT
ATOM      1  C   UNL     1       3.521   4.973  17.783  0.00  0.00    +0.000 A 
ATOM      2  C   UNL     1       3.915   6.226  18.282  0.00  0.00    +0.000 A 
ATOM      3  C   UNL     1       3.214   6.743  19.367  0.00  0.00    +0.000 A 
ATOM      4  C   UNL     1       2.927   5.753  20.280  0.00  0.00    +0.000 A 
ATOM      5  C   UNL     1       2.131   4.781  19.748  0.00  0.00    +0.000 A 
ATOM      6  N   UNL     1       1.090   4.408  20.496  0.00  0.00    +0.000 NA
ATOM      7  C   UNL     1       0.361   3.368  20.045  0.00  0.00    +0.000 A 
ATOM      8  C   UNL     1       0.740   2.618  18.960  0.00  0.00    +0.000 A 
ATOM      9  C   UNL     1       1.827   3.039  18.178  0.00  0.00    +0.000 A 
ATOM     10  C   UNL     1       2.503   4.247  18.494  0.00  0.00    +0.000 A 
ENDROOT
BRANCH   3  11
ATOM     11  C   UNL     1       2.103   7.736  19.182  0.00  0.00    +0.000 A 
ATOM     12  C   UNL     1       1.414   8.307  20.263  0.00  0.00    +0.000 A 
ATOM     13  C   UNL     1       0.495   9.351  20.078  0.00  0.00    +0.000 A 
ATOM     14  C   UNL     1       0.230   9.864  18.803  0.00  0.00    +0.000 A 
ATOM     15  C   UNL     1       0.921   9.313  17.718  0.00  0.00    +0.000 A 
ATOM     16  C   UNL     1       1.847   8.278  17.906  0.00  0.00    +0.000 A 
BRANCH  14  17
ATOM     17  C   UNL     1      -0.839  10.910  18.578  0.00  0.00    +0.000 C 
BRANCH  17  18
ATOM     18  N   UNL     1      -2.252  10.541  18.618  0.00  0.00    +0.000 NA
ATOM     19  C   UNL     1      -2.678   9.389  17.819  0.00  0.00    +0.000 C 
ATOM     20  C   UNL     1      -3.167   9.730  16.399  0.00  0.00    +0.000 C 
ATOM     21  O   UNL     1      -4.147  10.778  16.404  0.00  0.00    +0.000 OA
ATOM     22  C   UNL     1      -3.661  11.948  17.071  0.00  0.00    +0.000 C 
ATOM     23  C   UNL     1      -3.221  11.633  18.507  0.00  0.00    +0.000 C 
ENDBRANCH  17  18
ENDBRANCH  14  17
ENDBRANCH   3  11
BRANCH   1  24
ATOM     24  O   UNL     1       4.325   4.460  16.818  0.00  0.00    +0.000 OA
BRANCH  24  25
ATOM     25  C   UNL     1       5.500   3.696  17.103  0.00  0.00    +0.000 C 
BRANCH  25  31
ATOM     26  C   UNL     1       6.882   5.822  16.697  0.00  0.00    +0.000 A 
ATOM     27  C   UNL     1       7.608   6.875  17.294  0.00  0.00    +0.000 A 
ATOM     28  C   UNL     1       8.042   6.772  18.607  0.00  0.00    +0.000 A 
ATOM     29  C   UNL     1       7.728   5.626  19.317  0.00  0.00    +0.000 A 
ATOM     30  N   UNL     1       6.959   4.632  18.821  0.00  0.00    +0.000 NA
ATOM     31  C   UNL     1       6.519   4.743  17.534  0.00  0.00    +0.000 A 
BRANCH  26  33
ATOM     32  N   UNL     1       5.362   6.587  14.937  0.00  0.00    +0.000 N 
ATOM     33  C   UNL     1       6.534   5.910  15.247  0.00  0.00    +0.000 C 
ATOM     34  O   UNL     1       7.197   5.457  14.331  0.00  0.00    +0.000 OA
ATOM     35  H   UNL     1       5.185   6.730  13.961  0.00  0.00    +0.000 HD
ATOM     36  H   UNL     1       4.903   7.217  15.588  0.00  0.00    +0.000 HD
ENDBRANCH  26  33
ENDBRANCH  25  31
ENDBRANCH  24  25
ENDBRANCH   1  24
TORSDOF 7
ENDMDL
MODEL 8
REMARK VINA RESULT:      -8.9      1.578      2.590
REMARK  Name = 
REMARK  7 active torsions:
REMARK  status: ('A' for Active; 'I' for Inactive)
REMARK    1  A    between atoms: C_2  and  C_4
REMARK    2  A    between atoms: C_9  and  C_10
REMARK    3  A    between atoms: C_10  and  O_11
REMARK    4  A    between atoms: O_11  and  C_12
REMARK    5  A    between atoms: C_14  and  C_15
REMARK    6  A    between atoms: C_18  and  C_19
REMARK    7  A    between atoms: C_19  and  N_20
REMARK                            x       y       z     vdW  Elec       q    Type
REMARK                         _______ _______ _______ _____ _____    ______ ____
ROOT
ATOM      1  C   UNL     1       3.514   4.459  17.206  0.00  0.00    +0.000 A 
ATOM      2  C   UNL     1       4.136   5.660  17.587  0.00  0.00    +0.000 A 
ATOM      3  C   UNL     1       3.748   6.239  18.790  0.00  0.00    +0.000 A 
ATOM      4  C   UNL     1       3.567   5.278  19.759  0.00  0.00    +0.000 A 
ATOM      5  C   UNL     1       2.576   4.398  19.430  0.00  0.00    +0.000 A 
ATOM      6  N   UNL     1       1.692   4.131  20.394  0.00  0.00    +0.000 NA
ATOM      7  C   UNL     1       0.778   3.176  20.128  0.00  0.00    +0.000 A 
ATOM      8  C   UNL     1       0.830   2.399  18.998  0.00  0.00    +0.000 A 
ATOM      9  C   UNL     1       1.756   2.710  17.991  0.00  0.00    +0.000 A 
ATOM     10  C   UNL     1       2.607   3.838  18.133  0.00  0.00    +0.000 A 
ENDROOT
BRANCH   3  11
ATOM     11  C   UNL     1       2.733   7.345  18.838  0.00  0.00    +0.000 A 
ATOM     12  C   UNL     1       2.045   7.687  20.012  0.00  0.00    +0.000 A 
ATOM     13  C   UNL     1       1.225   8.825  20.077  0.00  0.00    +0.000 A 
ATOM     14  C   UNL     1       1.062   9.663  18.967  0.00  0.00    +0.000 A 
ATOM     15  C   UNL     1       1.753   9.339  17.794  0.00  0.00    +0.000 A 
ATOM     16  C   UNL     1       2.580   8.210  17.735  0.00  0.00    +0.000 A 
BRANCH  14  17
ATOM     17  C   UNL     1       0.095  10.825  18.990  0.00  0.00    +0.000 C 
BRANCH  17  18
ATOM     18  N   UNL     1      -1.239  10.664  19.564  0.00  0.00    +0.000 NA
ATOM     19  C   UNL     1      -2.347  10.386  18.645  0.00  0.00    +0.000 C 
ATOM     20  C   UNL     1      -3.096  11.632  18.139  0.00  0.00    +0.000 C 
ATOM     21  O   UNL     1      -3.488  12.499  19.213  0.00  0.00    +0.000 OA
ATOM     22  C   UNL     1      -2.367  12.871  20.022  0.00  0.00    +0.000 C 
ATOM     23  C   UNL     1      -1.643  11.639  20.579  0.00  0.00    +0.000 C 
ENDBRANCH  17  18
ENDBRANCH  14  17
ENDBRANCH   3  11
BRANCH   1  24
ATOM     24  O   UNL     1       4.029   3.872  16.096  0.00  0.00    +0.000 OA
BRANCH  24  25
ATOM     25  C   UNL     1       5.328   3.274  16.059  0.00  0.00    +0.000 C 
BRANCH  25  31
ATOM     26  C   UNL     1       7.021   4.845  14.935  0.00  0.00    +0.000 A 
ATOM     27  C   UNL     1       7.735   5.141  13.754  0.00  0.00    +0.000 A 
ATOM     28  C   UNL     1       7.330   4.610  12.539  0.00  0.00    +0.000 A 
ATOM     29  C   UNL     1       6.229   3.773  12.518  0.00  0.00    +0.000 A 
ATOM     30  N   UNL     1       5.569   3.387  13.632  0.00  0.00    +0.000 NA
ATOM     31  C   UNL     1       5.979   3.896  14.830  0.00  0.00    +0.000 A 
BRANCH  26  33
ATOM     32  N   UNL     1       7.780   4.699  17.258  0.00  0.00    +0.000 N 
ATOM     33  C   UNL     1       7.407   5.527  16.208  0.00  0.00    +0.000 C 
ATOM     34  O   UNL     1       7.435   6.731  16.385  0.00  0.00    +0.000 OA
ATOM     35  H   UNL     1       8.133   5.161  18.075  0.00  0.00    +0.000 HD
ATOM     36  H   UNL     1       8.046   3.728  17.126  0.00  0.00    +0.000 HD
ENDBRANCH  26  33
ENDBRANCH  25  31
ENDBRANCH  24  25
ENDBRANCH   1  24
TORSDOF 7
ENDMDL
MODEL 9
REMARK VINA RESULT:      -8.9      1.988      5.225
REMARK  Name = 
REMARK  7 active torsions:
REMARK  status: ('A' for Active; 'I' for Inactive)
REMARK    1  A    between atoms: C_2  and  C_4
REMARK    2  A    between atoms: C_9  and  C_10
REMARK    3  A    between atoms: C_10  and  O_11
REMARK    4  A    between atoms: O_11  and  C_12
REMARK    5  A    between atoms: C_14  and  C_15
REMARK    6  A    between atoms: C_18  and  C_19
REMARK    7  A    between atoms: C_19  and  N_20
REMARK                            x       y       z     vdW  Elec       q    Type
REMARK                         _______ _______ _______ _____ _____    ______ ____
ROOT
ATOM      1  C   UNL     1       5.163   4.704  18.324  0.00  0.00    +0.000 A 
ATOM      2  C   UNL     1       3.922   4.990  17.728  0.00  0.00    +0.000 A 
ATOM      3  C   UNL     1       3.751   6.246  17.156  0.00  0.00    +0.000 A 
ATOM      4  C   UNL     1       4.887   6.636  16.483  0.00  0.00    +0.000 A 
ATOM      5  C   UNL     1       5.963   6.748  17.316  0.00  0.00    +0.000 A 
ATOM      6  N   UNL     1       6.690   7.859  17.181  0.00  0.00    +0.000 NA
ATOM      7  C   UNL     1       7.822   7.934  17.910  0.00  0.00    +0.000 A 
ATOM      8  C   UNL     1       8.302   6.874  18.637  0.00  0.00    +0.000 A 
ATOM      9  C   UNL     1       7.512   5.723  18.780  0.00  0.00    +0.000 A 
ATOM     10  C   UNL     1       6.217   5.675  18.201  0.00  0.00    +0.000 A 
ENDROOT
BRANCH   3  11
ATOM     11  C   UNL     1       3.075   7.362  17.899  0.00  0.00    +0.000 A 
ATOM     12  C   UNL     1       2.760   8.588  17.295  0.00  0.00    +0.000 A 
ATOM     13  C   UNL     1       1.985   9.555  17.956  0.00  0.00    +0.000 A 
ATOM     14  C   UNL     1       1.495   9.328  19.248  0.00  0.00    +0.000 A 
ATOM     15  C   UNL     1       1.791   8.103  19.856  0.00  0.00    +0.000 A 
ATOM     16  C   UNL     1       2.555   7.136  19.191  0.00  0.00    +0.000 A 
BRANCH  14  17
ATOM     17  C   UNL     1       0.755  10.404  20.012  0.00  0.00    +0.000 C 
BRANCH  17  18
ATOM     18  N   UNL     1      -0.705  10.436  20.015  0.00  0.00    +0.000 NA
ATOM     19  C   UNL     1      -1.393  10.255  18.733  0.00  0.00    +0.000 C 
ATOM     20  C   UNL     1      -1.715  11.559  17.981  0.00  0.00    +0.000 C 
ATOM     21  O   UNL     1      -2.376  12.517  18.821  0.00  0.00    +0.000 OA
ATOM     22  C   UNL     1      -1.620  12.784  20.006  0.00  0.00    +0.000 C 
ATOM     23  C   UNL     1      -1.339  11.499  20.796  0.00  0.00    +0.000 C 
ENDBRANCH  17  18
ENDBRANCH  14  17
ENDBRANCH   3  11
BRANCH   1  24
ATOM     24  O   UNL     1       5.318   3.423  18.741  0.00  0.00    +0.000 OA
BRANCH  24  25
ATOM     25  C   UNL     1       4.724   2.912  19.938  0.00  0.00    +0.000 C 
BRANCH  25  31
ATOM     26  C   UNL     1       2.178   3.079  20.231  0.00  0.00    +0.000 A 
ATOM     27  C   UNL     1       0.920   2.951  19.605  0.00  0.00    +0.000 A 
ATOM     28  C   UNL     1       0.797   2.253  18.413  0.00  0.00    +0.000 A 
ATOM     29  C   UNL     1       1.936   1.709  17.847  0.00  0.00    +0.000 A 
ATOM     30  N   UNL     1       3.174   1.882  18.359  0.00  0.00    +0.000 NA
ATOM     31  C   UNL     1       3.296   2.583  19.522  0.00  0.00    +0.000 A 
BRANCH  26  33
ATOM     32  N   UNL     1       2.398   5.112  21.578  0.00  0.00    +0.000 N 
ATOM     33  C   UNL     1       2.260   3.730  21.574  0.00  0.00    +0.000 C 
ATOM     34  O   UNL     1       2.196   3.154  22.644  0.00  0.00    +0.000 OA
ATOM     35  H   UNL     1       2.352   5.553  22.477  0.00  0.00    +0.000 HD
ATOM     36  H   UNL     1       2.188   5.688  20.768  0.00  0.00    +0.000 HD
ENDBRANCH  26  33
ENDBRANCH  25  31
ENDBRANCH  24  25
ENDBRANCH   1  24
TORSDOF 7
ENDMDL
