MODEL 1
REMARK VINA RESULT:      -7.7      0.000      0.000
REMARK  Name = 
REMARK  3 active torsions:
REMARK  status: ('A' for Active; 'I' for Inactive)
REMARK    1  A    between atoms: C_2  and  O_3
REMARK    2  A    between atoms: C_2  and  C_4
REMARK    3  A    between atoms: C_8  and  C_9
REMARK                            x       y       z     vdW  Elec       q    Type
REMARK                         _______ _______ _______ _____ _____    ______ ____
ROOT
ATOM      1  C   UNL     1       4.538   3.798  17.959  0.00  0.00    +0.000 A 
ATOM      2  N   UNL     1       3.307   4.221  18.015  0.00  0.00    +0.000 NA
ATOM      3  C   UNL     1       2.608   3.801  19.155  0.00  0.00    +0.000 A 
ATOM      4  C   UNL     1       1.264   4.149  19.418  0.00  0.00    +0.000 A 
ATOM      5  C   UNL     1       0.840   3.604  20.614  0.00  0.00    +0.000 A 
ATOM      6  S   UNL     1       2.077   2.683  21.384  0.00  0.00    +0.000 S 
ATOM      7  C   UNL     1       3.165   3.019  20.129  0.00  0.00    +0.000 A 
ATOM      8  C   UNL     1       4.520   2.562  20.064  0.00  0.00    +0.000 A 
ATOM      9  O   UNL     1       5.104   1.868  20.890  0.00  0.00    +0.000 OA
ATOM     10  N   UNL     1       5.149   3.005  18.920  0.00  0.00    +0.000 N 
ATOM     11  H   UNL     1       6.116   2.735  18.790  0.00  0.00    +0.000 HD
ENDROOT
BRANCH   1  16
ATOM     12  C   UNL     1       5.972   4.093  14.499  0.00  0.00    +0.000 A 
ATOM     13  C   UNL     1       7.082   4.894  14.773  0.00  0.00    +0.000 A 
ATOM     14  C   UNL     1       7.289   5.299  16.080  0.00  0.00    +0.000 A 
ATOM     15  N   UNL     1       6.477   4.962  17.106  0.00  0.00    +0.000 NA
ATOM     16  C   UNL     1       5.417   4.165  16.809  0.00  0.00    +0.000 A 
ATOM     17  C   UNL     1       5.124   3.704  15.533  0.00  0.00    +0.000 A 
BRANCH  12  19
ATOM     18  O   UNL     1       4.686   3.679  12.554  0.00  0.00    +0.000 OA
ATOM     19  C   UNL     1       5.772   3.633  13.106  0.00  0.00    +0.000 C 
BRANCH  19  20
ATOM     20  O   UNL     1       6.878   3.124  12.528  0.00  0.00    +0.000 OA
ATOM     21  H   UNL     1       6.762   2.725  11.648  0.00  0.00    +0.000 HD
ENDBRANCH  19  20
ENDBRANCH  12  19
ENDBRANCH   1  16
TORSDOF 3
ENDMDL
MODEL 2
REMARK VINA RESULT:      -7.3      1.081      1.349
REMARK  Name = 
REMARK  3 active torsions:
REMARK  status: ('A' for Active; 'I' for Inactive)
REMARK    1  A    between atoms: C_2  and  O_3
REMARK    2  A    between atoms: C_2  and  C_4
REMARK    3  A    between atoms: C_8  and  C_9
REMARK                            x       y       z     vdW  Elec       q    Type
REMARK                         _______ _______ _______ _____ _____    ______ ____
ROOT
ATOM      1  C   UNL     1       4.728   4.219  18.672  0.00  0.00    +0.000 A 
ATOM      2  N   UNL     1       3.477   4.583  18.702  0.00  0.00    +0.000 NA
ATOM      3  C   UNL     1       2.693   3.865  19.615  0.00  0.00    +0.000 A 
ATOM      4  C   UNL     1       1.314   4.100  19.812  0.00  0.00    +0.000 A 
ATOM      5  C   UNL     1       0.804   3.253  20.776  0.00  0.00    +0.000 A 
ATOM      6  S   UNL     1       2.005   2.194  21.413  0.00  0.00    +0.000 S 
ATOM      7  C   UNL     1       3.191   2.870  20.410  0.00  0.00    +0.000 A 
ATOM      8  C   UNL     1       4.568   2.479  20.376  0.00  0.00    +0.000 A 
ATOM      9  O   UNL     1       5.103   1.607  21.054  0.00  0.00    +0.000 OA
ATOM     10  N   UNL     1       5.282   3.218  19.458  0.00  0.00    +0.000 N 
ATOM     11  H   UNL     1       6.270   3.015  19.367  0.00  0.00    +0.000 HD
ENDROOT
BRANCH   1  16
ATOM     12  C   UNL     1       6.723   5.151  15.628  0.00  0.00    +0.000 A 
ATOM     13  C   UNL     1       7.487   6.192  16.159  0.00  0.00    +0.000 A 
ATOM     14  C   UNL     1       7.295   6.533  17.486  0.00  0.00    +0.000 A 
ATOM     15  N   UNL     1       6.409   5.915  18.298  0.00  0.00    +0.000 NA
ATOM     16  C   UNL     1       5.695   4.893  17.755  0.00  0.00    +0.000 A 
ATOM     17  C   UNL     1       5.816   4.473  16.438  0.00  0.00    +0.000 A 
BRANCH  12  19
ATOM     18  O   UNL     1       6.363   3.841  13.689  0.00  0.00    +0.000 OA
ATOM     19  C   UNL     1       6.955   4.767  14.217  0.00  0.00    +0.000 C 
BRANCH  19  20
ATOM     20  O   UNL     1       7.900   5.497  13.595  0.00  0.00    +0.000 OA
ATOM     21  H   UNL     1       8.639   5.810  14.147  0.00  0.00    +0.000 HD
ENDBRANCH  19  20
ENDBRANCH  12  19
ENDBRANCH   1  16
TORSDOF 3
ENDMDL
MODEL 3
REMARK VINA RESULT:      -7.2      1.893      2.371
REMARK  Name = 
REMARK  3 active torsions:
REMARK  status: ('A' for Active; 'I' for Inactive)
REMARK    1  A    between atoms: C_2  and  O_3
REMARK    2  A    between atoms: C_2  and  C_4
REMARK    3  A    between atoms: C_8  and  C_9
REMARK                            x       y       z     vdW  Elec       q    Type
REMARK                         _______ _______ _______ _____ _____    ______ ____
ROOT
ATOM      1  C   UNL     1       4.210   3.950  18.311  0.00  0.00    +0.000 A 
ATOM      2  N   UNL     1       4.216   3.535  19.546  0.00  0.00    +0.000 NA
ATOM      3  C   UNL     1       2.943   3.279  20.071  0.00  0.00    +0.000 A 
ATOM      4  C   UNL     1       2.720   2.816  21.388  0.00  0.00    +0.000 A 
ATOM      5  C   UNL     1       1.371   2.644  21.626  0.00  0.00    +0.000 A 
ATOM      6  S   UNL     1       0.410   3.049  20.255  0.00  0.00    +0.000 S 
ATOM      7  C   UNL     1       1.790   3.445  19.354  0.00  0.00    +0.000 A 
ATOM      8  C   UNL     1       1.791   3.896  17.996  0.00  0.00    +0.000 A 
ATOM      9  O   UNL     1       0.812   4.066  17.275  0.00  0.00    +0.000 OA
ATOM     10  N   UNL     1       3.070   4.133  17.542  0.00  0.00    +0.000 N 
ATOM     11  H   UNL     1       3.170   4.452  16.586  0.00  0.00    +0.000 HD
ENDROOT
BRANCH   1  16
ATOM     12  C   UNL     1       6.745   4.627  15.621  0.00  0.00    +0.000 A 
ATOM     13  C   UNL     1       7.875   4.838  16.413  0.00  0.00    +0.000 A 
ATOM     14  C   UNL     1       7.735   4.755  17.787  0.00  0.00    +0.000 A 
ATOM     15  N   UNL     1       6.566   4.480  18.406  0.00  0.00    +0.000 NA
ATOM     16  C   UNL     1       5.490   4.260  17.606  0.00  0.00    +0.000 A 
ATOM     17  C   UNL     1       5.526   4.318  16.220  0.00  0.00    +0.000 A 
BRANCH  12  19
ATOM     18  O   UNL     1       6.259   3.974  13.397  0.00  0.00    +0.000 OA
ATOM     19  C   UNL     1       6.904   4.683  14.151  0.00  0.00    +0.000 C 
BRANCH  19  20
ATOM     20  O   UNL     1       7.847   5.549  13.731  0.00  0.00    +0.000 OA
ATOM     21  H   UNL     1       7.868   6.415  14.175  0.00  0.00    +0.000 HD
ENDBRANCH  19  20
ENDBRANCH  12  19
ENDBRANCH   1  16
TORSDOF 3
ENDMDL
MODEL 4
REMARK VINA RESULT:      -7.1      4.247      5.150
REMARK  Name = 
REMARK  3 active torsions:
REMARK  status: ('A' for Active; 'I' for Inactive)
REMARK    1  A    between atoms: C_2  and  O_3
REMARK    2  A    between atoms: C_2  and  C_4
REMARK    3  A    between atoms: C_8  and  C_9
REMARK                            x       y       z     vdW  Elec       q    Type
REMARK                         _______ _______ _______ _____ _____    ______ ____
ROOT
ATOM      1  C   UNL     1       2.872   6.952  18.512  0.00  0.00    +0.000 A 
ATOM      2  N   UNL     1       2.367   6.818  19.706  0.00  0.00    +0.000 NA
ATOM      3  C   UNL     1       1.651   7.936  20.154  0.00  0.00    +0.000 A 
ATOM      4  C   UNL     1       1.018   8.002  21.415  0.00  0.00    +0.000 A 
ATOM      5  C   UNL     1       0.382   9.216  21.583  0.00  0.00    +0.000 A 
ATOM      6  S   UNL     1       0.572  10.245  20.214  0.00  0.00    +0.000 S 
ATOM      7  C   UNL     1       1.490   9.071  19.408  0.00  0.00    +0.000 A 
ATOM      8  C   UNL     1       2.044   9.210  18.095  0.00  0.00    +0.000 A 
ATOM      9  O   UNL     1       1.945  10.182  17.353  0.00  0.00    +0.000 OA
ATOM     10  N   UNL     1       2.737   8.081  17.716  0.00  0.00    +0.000 N 
ATOM     11  H   UNL     1       3.161   8.085  16.796  0.00  0.00    +0.000 HD
ENDROOT
BRANCH   1  16
ATOM     12  C   UNL     1       5.684   4.950  17.028  0.00  0.00    +0.000 A 
ATOM     13  C   UNL     1       5.007   3.761  16.756  0.00  0.00    +0.000 A 
ATOM     14  C   UNL     1       3.665   3.683  17.085  0.00  0.00    +0.000 A 
ATOM     15  N   UNL     1       2.973   4.694  17.655  0.00  0.00    +0.000 NA
ATOM     16  C   UNL     1       3.658   5.845  17.889  0.00  0.00    +0.000 A 
ATOM     17  C   UNL     1       5.002   6.024  17.594  0.00  0.00    +0.000 A 
BRANCH  12  19
ATOM     18  O   UNL     1       7.969   4.339  17.150  0.00  0.00    +0.000 OA
ATOM     19  C   UNL     1       7.111   5.042  16.645  0.00  0.00    +0.000 C 
BRANCH  19  20
ATOM     20  O   UNL     1       7.376   5.995  15.729  0.00  0.00    +0.000 OA
ATOM     21  H   UNL     1       6.801   6.011  14.943  0.00  0.00    +0.000 HD
ENDBRANCH  19  20
ENDBRANCH  12  19
ENDBRANCH   1  16
TORSDOF 3
ENDMDL
MODEL 5
REMARK VINA RESULT:      -7.1      1.300      1.366
REMARK  Name = 
REMARK  3 active torsions:
REMARK  status: ('A' for Active; 'I' for Inactive)
REMARK    1  A    between atoms: C_2  and  O_3
REMARK    2  A    between atoms: C_2  and  C_4
REMARK    3  A    between atoms: C_8  and  C_9
REMARK                            x       y       z     vdW  Elec       q    Type
REMARK                         _______ _______ _______ _____ _____    ______ ____
ROOT
ATOM      1  C   UNL     1       4.592   4.116  17.127  0.00  0.00    +0.000 A 
ATOM      2  N   UNL     1       4.097   5.154  17.740  0.00  0.00    +0.000 NA
ATOM      3  C   UNL     1       3.293   4.838  18.844  0.00  0.00    +0.000 A 
ATOM      4  C   UNL     1       2.663   5.810  19.653  0.00  0.00    +0.000 A 
ATOM      5  C   UNL     1       1.944   5.212  20.670  0.00  0.00    +0.000 A 
ATOM      6  S   UNL     1       2.048   3.493  20.615  0.00  0.00    +0.000 S 
ATOM      7  C   UNL     1       3.048   3.555  19.249  0.00  0.00    +0.000 A 
ATOM      8  C   UNL     1       3.598   2.419  18.573  0.00  0.00    +0.000 A 
ATOM      9  O   UNL     1       3.440   1.239  18.867  0.00  0.00    +0.000 OA
ATOM     10  N   UNL     1       4.373   2.797  17.498  0.00  0.00    +0.000 N 
ATOM     11  H   UNL     1       4.811   2.058  16.960  0.00  0.00    +0.000 HD
ENDROOT
BRANCH   1  16
ATOM     12  C   UNL     1       5.992   3.901  13.647  0.00  0.00    +0.000 A 
ATOM     13  C   UNL     1       7.151   4.660  13.814  0.00  0.00    +0.000 A 
ATOM     14  C   UNL     1       7.401   5.207  15.061  0.00  0.00    +0.000 A 
ATOM     15  N   UNL     1       6.585   5.047  16.126  0.00  0.00    +0.000 NA
ATOM     16  C   UNL     1       5.475   4.286  15.935  0.00  0.00    +0.000 A 
ATOM     17  C   UNL     1       5.137   3.693  14.726  0.00  0.00    +0.000 A 
BRANCH  12  19
ATOM     18  O   UNL     1       4.711   3.472  11.702  0.00  0.00    +0.000 OA
ATOM     19  C   UNL     1       5.745   3.289  12.322  0.00  0.00    +0.000 C 
BRANCH  19  20
ATOM     20  O   UNL     1       6.737   2.487  11.891  0.00  0.00    +0.000 OA
ATOM     21  H   UNL     1       7.623   2.660  12.257  0.00  0.00    +0.000 HD
ENDBRANCH  19  20
ENDBRANCH  12  19
ENDBRANCH   1  16
TORSDOF 3
ENDMDL
MODEL 6
REMARK VINA RESULT:      -7.1      5.298      7.463
REMARK  Name = 
REMARK  3 active torsions:
REMARK  status: ('A' for Active; 'I' for Inactive)
REMARK    1  A    between atoms: C_2  and  O_3
REMARK    2  A    between atoms: C_2  and  C_4
REMARK    3  A    between atoms: C_8  and  C_9
REMARK                            x       y       z     vdW  Elec       q    Type
REMARK                         _______ _______ _______ _____ _____    ______ ____
ROOT
ATOM      1  C   UNL     1       1.679   8.004  20.299  0.00  0.00    +0.000 A 
ATOM      2  N   UNL     1       1.442   8.820  19.311  0.00  0.00    +0.000 NA
ATOM      3  C   UNL     1       0.933  10.065  19.706  0.00  0.00    +0.000 A 
ATOM      4  C   UNL     1       0.612  11.099  18.798  0.00  0.00    +0.000 A 
ATOM      5  C   UNL     1       0.141  12.211  19.467  0.00  0.00    +0.000 A 
ATOM      6  S   UNL     1       0.095  11.974  21.173  0.00  0.00    +0.000 S 
ATOM      7  C   UNL     1       0.705  10.401  21.012  0.00  0.00    +0.000 A 
ATOM      8  C   UNL     1       0.972   9.501  22.093  0.00  0.00    +0.000 A 
ATOM      9  O   UNL     1       0.807   9.717  23.289  0.00  0.00    +0.000 OA
ATOM     10  N   UNL     1       1.465   8.298  21.639  0.00  0.00    +0.000 N 
ATOM     11  H   UNL     1       1.690   7.597  22.335  0.00  0.00    +0.000 HD
ENDROOT
BRANCH   1  16
ATOM     12  C   UNL     1       2.359   4.316  20.525  0.00  0.00    +0.000 A 
ATOM     13  C   UNL     1       3.292   4.187  19.495  0.00  0.00    +0.000 A 
ATOM     14  C   UNL     1       3.637   5.320  18.779  0.00  0.00    +0.000 A 
ATOM     15  N   UNL     1       3.121   6.545  19.021  0.00  0.00    +0.000 NA
ATOM     16  C   UNL     1       2.230   6.640  20.044  0.00  0.00    +0.000 A 
ATOM     17  C   UNL     1       1.822   5.566  20.822  0.00  0.00    +0.000 A 
BRANCH  12  19
ATOM     18  O   UNL     1       2.851   2.492  21.954  0.00  0.00    +0.000 OA
ATOM     19  C   UNL     1       2.018   3.109  21.311  0.00  0.00    +0.000 C 
BRANCH  19  20
ATOM     20  O   UNL     1       0.728   2.735  21.215  0.00  0.00    +0.000 OA
ATOM     21  H   UNL     1       0.064   3.394  21.487  0.00  0.00    +0.000 HD
ENDBRANCH  19  20
ENDBRANCH  12  19
ENDBRANCH   1  16
TORSDOF 3
ENDMDL
MODEL 7
REMARK VINA RESULT:      -7.1      3.221      6.667
REMARK  Name = 
REMARK  3 active torsions:
REMARK  status: ('A' for Active; 'I' for Inactive)
REMARK    1  A    between atoms: C_2  and  O_3
REMARK    2  A    between atoms: C_2  and  C_4
REMARK    3  A    between atoms: C_8  and  C_9
REMARK                            x       y       z     vdW  Elec       q    Type
REMARK                         _______ _______ _______ _____ _____    ______ ____
ROOT
ATOM      1  C   UNL     1       4.571   5.231  17.502  0.00  0.00    +0.000 A 
ATOM      2  N   UNL     1       4.338   4.438  16.494  0.00  0.00    +0.000 NA
ATOM      3  C   UNL     1       5.325   4.470  15.499  0.00  0.00    +0.000 A 
ATOM      4  C   UNL     1       5.275   3.686  14.325  0.00  0.00    +0.000 A 
ATOM      5  C   UNL     1       6.381   3.917  13.533  0.00  0.00    +0.000 A 
ATOM      6  S   UNL     1       7.449   5.077  14.227  0.00  0.00    +0.000 S 
ATOM      7  C   UNL     1       6.439   5.261  15.575  0.00  0.00    +0.000 A 
ATOM      8  C   UNL     1       6.690   6.126  16.687  0.00  0.00    +0.000 A 
ATOM      9  O   UNL     1       7.660   6.862  16.844  0.00  0.00    +0.000 OA
ATOM     10  N   UNL     1       5.684   6.051  17.625  0.00  0.00    +0.000 N 
ATOM     11  H   UNL     1       5.778   6.626  18.453  0.00  0.00    +0.000 HD
ENDROOT
BRANCH   1  16
ATOM     12  C   UNL     1       2.438   4.306  20.453  0.00  0.00    +0.000 A 
ATOM     13  C   UNL     1       1.861   5.548  20.723  0.00  0.00    +0.000 A 
ATOM     14  C   UNL     1       2.215   6.621  19.924  0.00  0.00    +0.000 A 
ATOM     15  N   UNL     1       3.087   6.534  18.896  0.00  0.00    +0.000 NA
ATOM     16  C   UNL     1       3.616   5.306  18.647  0.00  0.00    +0.000 A 
ATOM     17  C   UNL     1       3.324   4.169  19.388  0.00  0.00    +0.000 A 
BRANCH  12  19
ATOM     18  O   UNL     1       2.824   2.542  21.986  0.00  0.00    +0.000 OA
ATOM     19  C   UNL     1       2.032   3.153  21.289  0.00  0.00    +0.000 C 
BRANCH  19  20
ATOM     20  O   UNL     1       0.732   2.819  21.174  0.00  0.00    +0.000 OA
ATOM     21  H   UNL     1       0.293   3.068  20.340  0.00  0.00    +0.000 HD
ENDBRANCH  19  20
ENDBRANCH  12  19
ENDBRANCH   1  16
TORSDOF 3
ENDMDL
MODEL 8
REMARK VINA RESULT:      -7.1      1.916      2.300
REMARK  Name = 
REMARK  3 active torsions:
REMARK  status: ('A' for Active; 'I' for Inactive)
REMARK    1  A    between atoms: C_2  and  O_3
REMARK    2  A    between atoms: C_2  and  C_4
REMARK    3  A    between atoms: C_8  and  C_9
REMARK                            x       y       z     vdW  Elec       q    Type
REMARK                         _______ _______ _______ _____ _____    ______ ____
ROOT
ATOM      1  C   UNL     1       4.975   4.732  16.308  0.00  0.00    +0.000 A 
ATOM      2  N   UNL     1       4.438   5.876  16.626  0.00  0.00    +0.000 NA
ATOM      3  C   UNL     1       3.747   5.867  17.845  0.00  0.00    +0.000 A 
ATOM      4  C   UNL     1       3.097   7.000  18.381  0.00  0.00    +0.000 A 
ATOM      5  C   UNL     1       2.509   6.701  19.594  0.00  0.00    +0.000 A 
ATOM      6  S   UNL     1       2.756   5.058  20.050  0.00  0.00    +0.000 S 
ATOM      7  C   UNL     1       3.644   4.757  18.639  0.00  0.00    +0.000 A 
ATOM      8  C   UNL     1       4.240   3.505  18.286  0.00  0.00    +0.000 A 
ATOM      9  O   UNL     1       4.206   2.464  18.935  0.00  0.00    +0.000 OA
ATOM     10  N   UNL     1       4.899   3.580  17.078  0.00  0.00    +0.000 N 
ATOM     11  H   UNL     1       5.358   2.739  16.748  0.00  0.00    +0.000 HD
ENDROOT
BRANCH   1  16
ATOM     12  C   UNL     1       6.079   3.607  12.898  0.00  0.00    +0.000 A 
ATOM     13  C   UNL     1       7.233   4.380  12.759  0.00  0.00    +0.000 A 
ATOM     14  C   UNL     1       7.576   5.234  13.793  0.00  0.00    +0.000 A 
ATOM     15  N   UNL     1       6.857   5.362  14.929  0.00  0.00    +0.000 NA
ATOM     16  C   UNL     1       5.750   4.581  15.041  0.00  0.00    +0.000 A 
ATOM     17  C   UNL     1       5.323   3.692  14.064  0.00  0.00    +0.000 A 
BRANCH  12  19
ATOM     18  O   UNL     1       4.642   2.676  11.262  0.00  0.00    +0.000 OA
ATOM     19  C   UNL     1       5.734   2.670  11.805  0.00  0.00    +0.000 C 
BRANCH  19  20
ATOM     20  O   UNL     1       6.709   1.792  11.502  0.00  0.00    +0.000 OA
ATOM     21  H   UNL     1       6.833   1.592  10.556  0.00  0.00    +0.000 HD
ENDBRANCH  19  20
ENDBRANCH  12  19
ENDBRANCH   1  16
TORSDOF 3
ENDMDL
MODEL 9
REMARK VINA RESULT:      -7.1      5.276      7.965
REMARK  Name = 
REMARK  3 active torsions:
REMARK  status: ('A' for Active; 'I' for Inactive)
REMARK    1  A    between atoms: C_2  and  O_3
REMARK    2  A    between atoms: C_2  and  C_4
REMARK    3  A    between atoms: C_8  and  C_9
REMARK                            x       y       z     vdW  Elec       q    Type
REMARK                         _______ _______ _______ _____ _____    ______ ____
ROOT
ATOM      1  C   UNL     1       2.122   7.037  19.921  0.00  0.00    +0.000 A 
ATOM      2  N   UNL     1       2.872   6.913  18.862  0.00  0.00    +0.000 NA
ATOM      3  C   UNL     1       3.469   5.653  18.726  0.00  0.00    +0.000 A 
ATOM      4  C   UNL     1       4.315   5.303  17.650  0.00  0.00    +0.000 A 
ATOM      5  C   UNL     1       4.750   3.998  17.772  0.00  0.00    +0.000 A 
ATOM      6  S   UNL     1       4.129   3.234  19.186  0.00  0.00    +0.000 S 
ATOM      7  C   UNL     1       3.284   4.636  19.622  0.00  0.00    +0.000 A 
ATOM      8  C   UNL     1       2.456   4.777  20.781  0.00  0.00    +0.000 A 
ATOM      9  O   UNL     1       2.226   3.922  21.631  0.00  0.00    +0.000 OA
ATOM     10  N   UNL     1       1.903   6.037  20.857  0.00  0.00    +0.000 N 
ATOM     11  H   UNL     1       1.294   6.229  21.645  0.00  0.00    +0.000 HD
ENDROOT
BRANCH   1  16
ATOM     12  C   UNL     1       0.233   9.774  21.668  0.00  0.00    +0.000 A 
ATOM     13  C   UNL     1       0.133  10.694  20.623  0.00  0.00    +0.000 A 
ATOM     14  C   UNL     1       0.702  10.363  19.405  0.00  0.00    +0.000 A 
ATOM     15  N   UNL     1       1.348   9.200  19.171  0.00  0.00    +0.000 NA
ATOM     16  C   UNL     1       1.411   8.319  20.204  0.00  0.00    +0.000 A 
ATOM     17  C   UNL     1       0.871   8.554  21.460  0.00  0.00    +0.000 A 
BRANCH  12  19
ATOM     18  O   UNL     1      -1.231  11.007  23.062  0.00  0.00    +0.000 OA
ATOM     19  C   UNL     1      -0.406  10.116  22.959  0.00  0.00    +0.000 C 
BRANCH  19  20
ATOM     20  O   UNL     1       0.038   9.389  24.003  0.00  0.00    +0.000 OA
ATOM     21  H   UNL     1      -0.253   8.460  24.038  0.00  0.00    +0.000 HD
ENDBRANCH  19  20
ENDBRANCH  12  19
ENDBRANCH   1  16
TORSDOF 3
ENDMDL
