MODEL 1
REMARK VINA RESULT:      -6.8      0.000      0.000
REMARK  Name = 
REMARK  12 active torsions:
REMARK  status: ('A' for Active; 'I' for Inactive)
REMARK    1  A    between atoms: C_1  and  C_2
REMARK    2  A    between atoms: C_2  and  S_3
REMARK    3  A    between atoms: C_2  and  C_25
REMARK    4  A    between atoms: S_3  and  C_4
REMARK    5  A    between atoms: C_8  and  C_9
REMARK    6  A    between atoms: C_11  and  C_12
REMARK    7  A    between atoms: C_15  and  O_16
REMARK    8  A    between atoms: O_16  and  C_17
REMARK    9  A    between atoms: C_17  and  C_18
REMARK   10  A    between atoms: C_18  and  O_19
REMARK   11  A    between atoms: C_22  and  C_23
REMARK   12  A    between atoms: C_29  and  C_30
REMARK                            x       y       z     vdW  Elec       q    Type
REMARK                         _______ _______ _______ _____ _____    ______ ____
ROOT
ATOM      1  C   UNL     1       2.062   6.973  20.066  0.00  0.00    +0.000 A 
ATOM      2  N   UNL     1       1.590   5.950  20.812  0.00  0.00    +0.000 NA
ATOM      3  C   UNL     1       2.072   4.717  20.574  0.00  0.00    +0.000 A 
ATOM      4  N   UNL     1       1.413   3.682  21.233  0.00  0.00    +0.000 N 
ATOM      5  C   UNL     1       3.082   4.469  19.636  0.00  0.00    +0.000 A 
ATOM      6  C   UNL     1       3.535   5.518  18.782  0.00  0.00    +0.000 A 
ATOM      7  C   UNL     1       2.952   6.793  18.996  0.00  0.00    +0.000 A 
ATOM      8  H   UNL     1       0.775   4.053  21.930  0.00  0.00    +0.000 HD
ATOM      9  H   UNL     1       1.993   2.927  21.586  0.00  0.00    +0.000 HD
ENDROOT
BRANCH   6  10
ATOM     10  C   UNL     1       4.567   5.285  17.718  0.00  0.00    +0.000 A 
ATOM     11  C   UNL     1       4.302   4.417  16.651  0.00  0.00    +0.000 A 
ATOM     12  C   UNL     1       5.263   4.100  15.697  0.00  0.00    +0.000 A 
ATOM     13  C   UNL     1       6.501   4.731  15.685  0.00  0.00    +0.000 A 
ATOM     14  C   UNL     1       6.781   5.650  16.691  0.00  0.00    +0.000 A 
ATOM     15  C   UNL     1       5.843   5.888  17.715  0.00  0.00    +0.000 A 
BRANCH  13  16
ATOM     16  O   UNL     1       7.467   4.511  14.733  0.00  0.00    +0.000 OA
BRANCH  16  17
ATOM     17  C   UNL     1       6.967   4.581  13.386  0.00  0.00    +0.000 C 
BRANCH  17  18
ATOM     18  C   UNL     1       7.832   5.484  12.525  0.00  0.00    +0.000 C 
BRANCH  18  19
ATOM     19  O   UNL     1       8.906   6.026  13.284  0.00  0.00    +0.000 OA
ATOM     20  H   UNL     1       9.219   6.804  12.786  0.00  0.00    +0.000 HD
ENDBRANCH  18  19
ENDBRANCH  17  18
ENDBRANCH  16  17
ENDBRANCH  13  16
ENDBRANCH   6  10
BRANCH   5  21
ATOM     21  C   UNL     1       3.639   3.138  19.621  0.00  0.00    +0.000 C 
ATOM     22  N   UNL     1       4.059   2.052  19.629  0.00  0.00    +0.000 NA
ENDBRANCH   5  21
BRANCH   7  23
ATOM     23  C   UNL     1       3.195   7.907  18.124  0.00  0.00    +0.000 C 
ATOM     24  N   UNL     1       3.377   8.818  17.423  0.00  0.00    +0.000 NA
ENDBRANCH   7  23
BRANCH   1  25
ATOM     25  S   UNL     1       1.739   8.619  20.690  0.00  0.00    +0.000 S 
BRANCH  25  27
ATOM     26  C   UNL     1       0.240   9.591  18.514  0.00  0.00    +0.000 C 
ATOM     27  C   UNL     1       0.115   9.066  19.946  0.00  0.00    +0.000 C 
BRANCH  27  28
ATOM     28  C   UNL     1      -0.527  10.118  20.848  0.00  0.00    +0.000 A 
ATOM     29  C   UNL     1      -0.505   9.992  22.249  0.00  0.00    +0.000 A 
ATOM     30  C   UNL     1      -1.151  10.918  23.065  0.00  0.00    +0.000 A 
ATOM     31  C   UNL     1      -1.835  11.995  22.499  0.00  0.00    +0.000 A 
ATOM     32  C   UNL     1      -1.868  12.151  21.108  0.00  0.00    +0.000 A 
ATOM     33  C   UNL     1      -1.212  11.211  20.292  0.00  0.00    +0.000 A 
BRANCH  32  34
ATOM     34  C   UNL     1      -2.577  13.274  20.441  0.00  0.00    +0.000 C 
ATOM     35  N   UNL     1      -3.579  12.991  19.549  0.00  0.00    +0.000 N 
ATOM     36  O   UNL     1      -2.283  14.444  20.662  0.00  0.00    +0.000 OA
ATOM     37  H   UNL     1      -3.871  12.067  19.277  0.00  0.00    +0.000 HD
ATOM     38  H   UNL     1      -4.022  13.781  19.102  0.00  0.00    +0.000 HD
ENDBRANCH  32  34
ENDBRANCH  27  28
ENDBRANCH  25  27
ENDBRANCH   1  25
TORSDOF 11
ENDMDL
MODEL 2
REMARK VINA RESULT:      -6.8      4.168      6.968
REMARK  Name = 
REMARK  12 active torsions:
REMARK  status: ('A' for Active; 'I' for Inactive)
REMARK    1  A    between atoms: C_1  and  C_2
REMARK    2  A    between atoms: C_2  and  S_3
REMARK    3  A    between atoms: C_2  and  C_25
REMARK    4  A    between atoms: S_3  and  C_4
REMARK    5  A    between atoms: C_8  and  C_9
REMARK    6  A    between atoms: C_11  and  C_12
REMARK    7  A    between atoms: C_15  and  O_16
REMARK    8  A    between atoms: O_16  and  C_17
REMARK    9  A    between atoms: C_17  and  C_18
REMARK   10  A    between atoms: C_18  and  O_19
REMARK   11  A    between atoms: C_22  and  C_23
REMARK   12  A    between atoms: C_29  and  C_30
REMARK                            x       y       z     vdW  Elec       q    Type
REMARK                         _______ _______ _______ _____ _____    ______ ____
ROOT
ATOM      1  C   UNL     1      -1.359  13.322  20.714  0.00  0.00    +0.000 A 
ATOM      2  N   UNL     1      -2.591  13.333  20.161  0.00  0.00    +0.000 NA
ATOM      3  C   UNL     1      -2.912  12.343  19.308  0.00  0.00    +0.000 A 
ATOM      4  N   UNL     1      -4.113  12.510  18.624  0.00  0.00    +0.000 N 
ATOM      5  C   UNL     1      -2.046  11.276  19.029  0.00  0.00    +0.000 A 
ATOM      6  C   UNL     1      -0.714  11.289  19.538  0.00  0.00    +0.000 A 
ATOM      7  C   UNL     1      -0.372  12.387  20.367  0.00  0.00    +0.000 A 
ATOM      8  H   UNL     1      -4.640  13.284  19.016  0.00  0.00    +0.000 HD
ATOM      9  H   UNL     1      -4.675  11.676  18.482  0.00  0.00    +0.000 HD
ENDROOT
BRANCH   6  10
ATOM     10  C   UNL     1       0.270  10.203  19.211  0.00  0.00    +0.000 A 
ATOM     11  C   UNL     1       0.595   9.231  20.165  0.00  0.00    +0.000 A 
ATOM     12  C   UNL     1       1.570   8.266  19.936  0.00  0.00    +0.000 A 
ATOM     13  C   UNL     1       2.185   8.142  18.695  0.00  0.00    +0.000 A 
ATOM     14  C   UNL     1       1.842   9.050  17.699  0.00  0.00    +0.000 A 
ATOM     15  C   UNL     1       0.931  10.090  17.969  0.00  0.00    +0.000 A 
BRANCH  13  16
ATOM     16  O   UNL     1       3.105   7.171  18.387  0.00  0.00    +0.000 OA
BRANCH  16  17
ATOM     17  C   UNL     1       3.066   6.042  19.279  0.00  0.00    +0.000 C 
BRANCH  17  18
ATOM     18  C   UNL     1       3.684   4.813  18.637  0.00  0.00    +0.000 C 
BRANCH  18  19
ATOM     19  O   UNL     1       4.294   5.145  17.397  0.00  0.00    +0.000 OA
ATOM     20  H   UNL     1       3.659   4.875  16.707  0.00  0.00    +0.000 HD
ENDBRANCH  18  19
ENDBRANCH  17  18
ENDBRANCH  16  17
ENDBRANCH  13  16
ENDBRANCH   6  10
BRANCH   5  21
ATOM     21  C   UNL     1      -2.589  10.188  18.254  0.00  0.00    +0.000 C 
ATOM     22  N   UNL     1      -2.997   9.310  17.606  0.00  0.00    +0.000 NA
ENDBRANCH   5  21
BRANCH   7  23
ATOM     23  C   UNL     1       0.968  12.615  20.830  0.00  0.00    +0.000 C 
ATOM     24  N   UNL     1       2.048  12.813  21.215  0.00  0.00    +0.000 NA
ENDBRANCH   7  23
BRANCH   1  25
ATOM     25  S   UNL     1      -1.127  14.374  22.143  0.00  0.00    +0.000 S 
BRANCH  25  27
ATOM     26  C   UNL     1      -2.009  11.960  23.292  0.00  0.00    +0.000 C 
ATOM     27  C   UNL     1      -1.984  13.476  23.502  0.00  0.00    +0.000 C 
BRANCH  27  28
ATOM     28  C   UNL     1      -3.406  14.027  23.590  0.00  0.00    +0.000 A 
ATOM     29  C   UNL     1      -3.648  15.379  23.896  0.00  0.00    +0.000 A 
ATOM     30  C   UNL     1      -4.947  15.862  24.043  0.00  0.00    +0.000 A 
ATOM     31  C   UNL     1      -6.035  15.004  23.884  0.00  0.00    +0.000 A 
ATOM     32  C   UNL     1      -5.826  13.656  23.572  0.00  0.00    +0.000 A 
ATOM     33  C   UNL     1      -4.511  13.177  23.425  0.00  0.00    +0.000 A 
BRANCH  32  34
ATOM     34  C   UNL     1      -6.941  12.689  23.389  0.00  0.00    +0.000 C 
ATOM     35  N   UNL     1      -6.879  11.792  22.355  0.00  0.00    +0.000 N 
ATOM     36  O   UNL     1      -7.915  12.680  24.134  0.00  0.00    +0.000 OA
ATOM     37  H   UNL     1      -6.140  11.741  21.673  0.00  0.00    +0.000 HD
ATOM     38  H   UNL     1      -7.664  11.165  22.253  0.00  0.00    +0.000 HD
ENDBRANCH  32  34
ENDBRANCH  27  28
ENDBRANCH  25  27
ENDBRANCH   1  25
TORSDOF 11
ENDMDL
MODEL 3
REMARK VINA RESULT:      -6.7      3.095     10.891
REMARK  Name = 
REMARK  12 active torsions:
REMARK  status: ('A' for Active; 'I' for Inactive)
REMARK    1  A    between atoms: C_1  and  C_2
REMARK    2  A    between atoms: C_2  and  S_3
REMARK    3  A    between atoms: C_2  and  C_25
REMARK    4  A    between atoms: S_3  and  C_4
REMARK    5  A    between atoms: C_8  and  C_9
REMARK    6  A    between atoms: C_11  and  C_12
REMARK    7  A    between atoms: C_15  and  O_16
REMARK    8  A    between atoms: O_16  and  C_17
REMARK    9  A    between atoms: C_17  and  C_18
REMARK   10  A    between atoms: C_18  and  O_19
REMARK   11  A    between atoms: C_22  and  C_23
REMARK   12  A    between atoms: C_29  and  C_30
REMARK                            x       y       z     vdW  Elec       q    Type
REMARK                         _______ _______ _______ _____ _____    ______ ____
ROOT
ATOM      1  C   UNL     1       1.170  11.290  18.790  0.00  0.00    +0.000 A 
ATOM      2  N   UNL     1       2.178  12.152  19.053  0.00  0.00    +0.000 NA
ATOM      3  C   UNL     1       1.958  13.128  19.952  0.00  0.00    +0.000 A 
ATOM      4  N   UNL     1       2.956  14.095  20.040  0.00  0.00    +0.000 N 
ATOM      5  C   UNL     1       0.757  13.240  20.666  0.00  0.00    +0.000 A 
ATOM      6  C   UNL     1      -0.345  12.394  20.344  0.00  0.00    +0.000 A 
ATOM      7  C   UNL     1      -0.116  11.427  19.333  0.00  0.00    +0.000 A 
ATOM      8  H   UNL     1       3.779  13.804  19.521  0.00  0.00    +0.000 HD
ATOM      9  H   UNL     1       3.172  14.442  20.968  0.00  0.00    +0.000 HD
ENDROOT
BRANCH   6  10
ATOM     10  C   UNL     1      -1.672  12.523  21.034  0.00  0.00    +0.000 A 
ATOM     11  C   UNL     1      -1.821  12.115  22.366  0.00  0.00    +0.000 A 
ATOM     12  C   UNL     1      -3.053  12.128  23.012  0.00  0.00    +0.000 A 
ATOM     13  C   UNL     1      -4.179  12.669  22.402  0.00  0.00    +0.000 A 
ATOM     14  C   UNL     1      -4.059  13.145  21.101  0.00  0.00    +0.000 A 
ATOM     15  C   UNL     1      -2.834  13.032  20.416  0.00  0.00    +0.000 A 
BRANCH  13  16
ATOM     16  O   UNL     1      -5.407  12.771  23.010  0.00  0.00    +0.000 OA
BRANCH  16  17
ATOM     17  C   UNL     1      -6.494  12.927  22.080  0.00  0.00    +0.000 C 
BRANCH  17  18
ATOM     18  C   UNL     1      -7.662  12.029  22.445  0.00  0.00    +0.000 C 
BRANCH  18  19
ATOM     19  O   UNL     1      -7.576  10.788  21.756  0.00  0.00    +0.000 OA
ATOM     20  H   UNL     1      -8.433  10.344  21.900  0.00  0.00    +0.000 HD
ENDBRANCH  18  19
ENDBRANCH  17  18
ENDBRANCH  16  17
ENDBRANCH  13  16
ENDBRANCH   6  10
BRANCH   5  21
ATOM     21  C   UNL     1       0.728  14.210  21.734  0.00  0.00    +0.000 C 
ATOM     22  N   UNL     1       0.735  15.008  22.582  0.00  0.00    +0.000 NA
ENDBRANCH   5  21
BRANCH   7  23
ATOM     23  C   UNL     1      -1.167  10.607  18.799  0.00  0.00    +0.000 C 
ATOM     24  N   UNL     1      -2.020   9.954  18.353  0.00  0.00    +0.000 NA
ENDBRANCH   7  23
BRANCH   1  25
ATOM     25  S   UNL     1       1.626   9.780  17.945  0.00  0.00    +0.000 S 
BRANCH  25  27
ATOM     26  C   UNL     1       1.659   8.999  20.649  0.00  0.00    +0.000 C 
ATOM     27  C   UNL     1       1.432   8.475  19.229  0.00  0.00    +0.000 C 
BRANCH  27  28
ATOM     28  C   UNL     1       2.426   7.362  18.904  0.00  0.00    +0.000 A 
ATOM     29  C   UNL     1       2.445   6.161  19.636  0.00  0.00    +0.000 A 
ATOM     30  C   UNL     1       3.397   5.176  19.381  0.00  0.00    +0.000 A 
ATOM     31  C   UNL     1       4.353   5.368  18.384  0.00  0.00    +0.000 A 
ATOM     32  C   UNL     1       4.355   6.549  17.633  0.00  0.00    +0.000 A 
ATOM     33  C   UNL     1       3.389   7.538  17.897  0.00  0.00    +0.000 A 
BRANCH  32  34
ATOM     34  C   UNL     1       5.345   6.817  16.556  0.00  0.00    +0.000 C 
ATOM     35  N   UNL     1       6.621   7.178  16.902  0.00  0.00    +0.000 N 
ATOM     36  O   UNL     1       5.046   6.732  15.370  0.00  0.00    +0.000 OA
ATOM     37  H   UNL     1       6.954   7.306  17.843  0.00  0.00    +0.000 HD
ATOM     38  H   UNL     1       7.258   7.370  16.142  0.00  0.00    +0.000 HD
ENDBRANCH  32  34
ENDBRANCH  27  28
ENDBRANCH  25  27
ENDBRANCH   1  25
TORSDOF 11
ENDMDL
MODEL 4
REMARK VINA RESULT:      -6.7      0.785      1.239
REMARK  Name = 
REMARK  12 active torsions:
REMARK  status: ('A' for Active; 'I' for Inactive)
REMARK    1  A    between atoms: C_1  and  C_2
REMARK    2  A    between atoms: C_2  and  S_3
REMARK    3  A    between atoms: C_2  and  C_25
REMARK    4  A    between atoms: S_3  and  C_4
REMARK    5  A    between atoms: C_8  and  C_9
REMARK    6  A    between atoms: C_11  and  C_12
REMARK    7  A    between atoms: C_15  and  O_16
REMARK    8  A    between atoms: O_16  and  C_17
REMARK    9  A    between atoms: C_17  and  C_18
REMARK   10  A    between atoms: C_18  and  O_19
REMARK   11  A    between atoms: C_22  and  C_23
REMARK   12  A    between atoms: C_29  and  C_30
REMARK                            x       y       z     vdW  Elec       q    Type
REMARK                         _______ _______ _______ _____ _____    ______ ____
ROOT
ATOM      1  C   UNL     1       1.980   6.764  20.011  0.00  0.00    +0.000 A 
ATOM      2  N   UNL     1       1.409   5.746  20.692  0.00  0.00    +0.000 NA
ATOM      3  C   UNL     1       1.803   4.492  20.404  0.00  0.00    +0.000 A 
ATOM      4  N   UNL     1       1.048   3.480  20.992  0.00  0.00    +0.000 N 
ATOM      5  C   UNL     1       2.820   4.213  19.481  0.00  0.00    +0.000 A 
ATOM      6  C   UNL     1       3.377   5.265  18.695  0.00  0.00    +0.000 A 
ATOM      7  C   UNL     1       2.886   6.568  18.958  0.00  0.00    +0.000 A 
ATOM      8  H   UNL     1       0.419   3.865  21.689  0.00  0.00    +0.000 HD
ATOM      9  H   UNL     1       1.558   2.666  21.320  0.00  0.00    +0.000 HD
ENDROOT
BRANCH   6  10
ATOM     10  C   UNL     1       4.420   5.005  17.647  0.00  0.00    +0.000 A 
ATOM     11  C   UNL     1       5.776   5.213  17.930  0.00  0.00    +0.000 A 
ATOM     12  C   UNL     1       6.764   5.077  16.961  0.00  0.00    +0.000 A 
ATOM     13  C   UNL     1       6.465   4.601  15.689  0.00  0.00    +0.000 A 
ATOM     14  C   UNL     1       5.137   4.319  15.388  0.00  0.00    +0.000 A 
ATOM     15  C   UNL     1       4.128   4.561  16.340  0.00  0.00    +0.000 A 
BRANCH  13  16
ATOM     16  O   UNL     1       7.404   4.381  14.711  0.00  0.00    +0.000 OA
BRANCH  16  17
ATOM     17  C   UNL     1       7.070   4.991  13.451  0.00  0.00    +0.000 C 
BRANCH  17  18
ATOM     18  C   UNL     1       7.181   3.995  12.311  0.00  0.00    +0.000 C 
BRANCH  18  19
ATOM     19  O   UNL     1       6.429   2.822  12.593  0.00  0.00    +0.000 OA
ATOM     20  H   UNL     1       7.063   2.183  12.970  0.00  0.00    +0.000 HD
ENDBRANCH  18  19
ENDBRANCH  17  18
ENDBRANCH  16  17
ENDBRANCH  13  16
ENDBRANCH   6  10
BRANCH   5  21
ATOM     21  C   UNL     1       3.275   2.845  19.414  0.00  0.00    +0.000 C 
ATOM     22  N   UNL     1       3.624   1.735  19.391  0.00  0.00    +0.000 NA
ENDBRANCH   5  21
BRANCH   7  23
ATOM     23  C   UNL     1       3.239   7.702  18.150  0.00  0.00    +0.000 C 
ATOM     24  N   UNL     1       3.528   8.610  17.482  0.00  0.00    +0.000 NA
ENDBRANCH   7  23
BRANCH   1  25
ATOM     25  S   UNL     1       1.764   8.398  20.709  0.00  0.00    +0.000 S 
BRANCH  25  27
ATOM     26  C   UNL     1       0.450   9.650  18.557  0.00  0.00    +0.000 C 
ATOM     27  C   UNL     1       0.214   9.014  19.929  0.00  0.00    +0.000 C 
BRANCH  27  28
ATOM     28  C   UNL     1      -0.411  10.025  20.888  0.00  0.00    +0.000 A 
ATOM     29  C   UNL     1      -0.462   9.785  22.273  0.00  0.00    +0.000 A 
ATOM     30  C   UNL     1      -1.093  10.678  23.136  0.00  0.00    +0.000 A 
ATOM     31  C   UNL     1      -1.688  11.835  22.634  0.00  0.00    +0.000 A 
ATOM     32  C   UNL     1      -1.647  12.106  21.261  0.00  0.00    +0.000 A 
ATOM     33  C   UNL     1      -1.006  11.198  20.397  0.00  0.00    +0.000 A 
BRANCH  32  34
ATOM     34  C   UNL     1      -2.260  13.320  20.661  0.00  0.00    +0.000 C 
ATOM     35  N   UNL     1      -1.599  13.967  19.650  0.00  0.00    +0.000 N 
ATOM     36  O   UNL     1      -3.336  13.760  21.053  0.00  0.00    +0.000 OA
ATOM     37  H   UNL     1      -0.699  13.704  19.281  0.00  0.00    +0.000 HD
ATOM     38  H   UNL     1      -2.038  14.799  19.282  0.00  0.00    +0.000 HD
ENDBRANCH  32  34
ENDBRANCH  27  28
ENDBRANCH  25  27
ENDBRANCH   1  25
TORSDOF 11
ENDMDL
MODEL 5
REMARK VINA RESULT:      -6.7      0.986      1.344
REMARK  Name = 
REMARK  12 active torsions:
REMARK  status: ('A' for Active; 'I' for Inactive)
REMARK    1  A    between atoms: C_1  and  C_2
REMARK    2  A    between atoms: C_2  and  S_3
REMARK    3  A    between atoms: C_2  and  C_25
REMARK    4  A    between atoms: S_3  and  C_4
REMARK    5  A    between atoms: C_8  and  C_9
REMARK    6  A    between atoms: C_11  and  C_12
REMARK    7  A    between atoms: C_15  and  O_16
REMARK    8  A    between atoms: O_16  and  C_17
REMARK    9  A    between atoms: C_17  and  C_18
REMARK   10  A    between atoms: C_18  and  O_19
REMARK   11  A    between atoms: C_22  and  C_23
REMARK   12  A    between atoms: C_29  and  C_30
REMARK                            x       y       z     vdW  Elec       q    Type
REMARK                         _______ _______ _______ _____ _____    ______ ____
ROOT
ATOM      1  C   UNL     1       2.129   7.014  19.960  0.00  0.00    +0.000 A 
ATOM      2  N   UNL     1       1.780   6.067  20.859  0.00  0.00    +0.000 NA
ATOM      3  C   UNL     1       2.367   4.860  20.766  0.00  0.00    +0.000 A 
ATOM      4  N   UNL     1       1.831   3.872  21.589  0.00  0.00    +0.000 N 
ATOM      5  C   UNL     1       3.364   4.575  19.824  0.00  0.00    +0.000 A 
ATOM      6  C   UNL     1       3.687   5.532  18.817  0.00  0.00    +0.000 A 
ATOM      7  C   UNL     1       2.995   6.767  18.884  0.00  0.00    +0.000 A 
ATOM      8  H   UNL     1       1.185   4.279  22.258  0.00  0.00    +0.000 HD
ATOM      9  H   UNL     1       2.490   3.227  22.012  0.00  0.00    +0.000 HD
ENDROOT
BRANCH   6  10
ATOM     10  C   UNL     1       4.700   5.246  17.747  0.00  0.00    +0.000 A 
ATOM     11  C   UNL     1       6.005   5.740  17.856  0.00  0.00    +0.000 A 
ATOM     12  C   UNL     1       6.946   5.579  16.843  0.00  0.00    +0.000 A 
ATOM     13  C   UNL     1       6.670   4.806  15.721  0.00  0.00    +0.000 A 
ATOM     14  C   UNL     1       5.404   4.242  15.605  0.00  0.00    +0.000 A 
ATOM     15  C   UNL     1       4.423   4.497  16.583  0.00  0.00    +0.000 A 
BRANCH  13  16
ATOM     16  O   UNL     1       7.577   4.554  14.720  0.00  0.00    +0.000 OA
BRANCH  16  17
ATOM     17  C   UNL     1       7.001   4.601  13.402  0.00  0.00    +0.000 C 
BRANCH  17  18
ATOM     18  C   UNL     1       7.853   5.431  12.459  0.00  0.00    +0.000 C 
BRANCH  18  19
ATOM     19  O   UNL     1       8.913   6.065  13.165  0.00  0.00    +0.000 OA
ATOM     20  H   UNL     1       9.605   5.385  13.274  0.00  0.00    +0.000 HD
ENDBRANCH  18  19
ENDBRANCH  17  18
ENDBRANCH  16  17
ENDBRANCH  13  16
ENDBRANCH   6  10
BRANCH   5  21
ATOM     21  C   UNL     1       4.042   3.309  19.963  0.00  0.00    +0.000 C 
ATOM     22  N   UNL     1       4.613   2.304  20.099  0.00  0.00    +0.000 NA
ENDBRANCH   5  21
BRANCH   7  23
ATOM     23  C   UNL     1       3.102   7.767  17.859  0.00  0.00    +0.000 C 
ATOM     24  N   UNL     1       3.172   8.576  17.026  0.00  0.00    +0.000 NA
ENDBRANCH   7  23
BRANCH   1  25
ATOM     25  S   UNL     1       1.674   8.696  20.371  0.00  0.00    +0.000 S 
BRANCH  25  27
ATOM     26  C   UNL     1      -0.851   7.598  20.955  0.00  0.00    +0.000 C 
ATOM     27  C   UNL     1       0.246   8.504  21.517  0.00  0.00    +0.000 C 
BRANCH  27  28
ATOM     28  C   UNL     1      -0.305   9.900  21.800  0.00  0.00    +0.000 A 
ATOM     29  C   UNL     1      -0.845  10.233  23.055  0.00  0.00    +0.000 A 
ATOM     30  C   UNL     1      -1.408  11.486  23.288  0.00  0.00    +0.000 A 
ATOM     31  C   UNL     1      -1.443  12.438  22.269  0.00  0.00    +0.000 A 
ATOM     32  C   UNL     1      -0.906  12.139  21.012  0.00  0.00    +0.000 A 
ATOM     33  C   UNL     1      -0.339  10.871  20.786  0.00  0.00    +0.000 A 
BRANCH  32  34
ATOM     34  C   UNL     1      -0.910  13.108  19.884  0.00  0.00    +0.000 C 
ATOM     35  N   UNL     1      -1.982  13.949  19.734  0.00  0.00    +0.000 N 
ATOM     36  O   UNL     1       0.016  13.167  19.082  0.00  0.00    +0.000 OA
ATOM     37  H   UNL     1      -2.802  13.956  20.319  0.00  0.00    +0.000 HD
ATOM     38  H   UNL     1      -1.955  14.579  18.945  0.00  0.00    +0.000 HD
ENDBRANCH  32  34
ENDBRANCH  27  28
ENDBRANCH  25  27
ENDBRANCH   1  25
TORSDOF 11
ENDMDL
MODEL 6
REMARK VINA RESULT:      -6.7      4.377      7.165
REMARK  Name = 
REMARK  12 active torsions:
REMARK  status: ('A' for Active; 'I' for Inactive)
REMARK    1  A    between atoms: C_1  and  C_2
REMARK    2  A    between atoms: C_2  and  S_3
REMARK    3  A    between atoms: C_2  and  C_25
REMARK    4  A    between atoms: S_3  and  C_4
REMARK    5  A    between atoms: C_8  and  C_9
REMARK    6  A    between atoms: C_11  and  C_12
REMARK    7  A    between atoms: C_15  and  O_16
REMARK    8  A    between atoms: O_16  and  C_17
REMARK    9  A    between atoms: C_17  and  C_18
REMARK   10  A    between atoms: C_18  and  O_19
REMARK   11  A    between atoms: C_22  and  C_23
REMARK   12  A    between atoms: C_29  and  C_30
REMARK                            x       y       z     vdW  Elec       q    Type
REMARK                         _______ _______ _______ _____ _____    ______ ____
ROOT
ATOM      1  C   UNL     1      -1.677  13.368  20.737  0.00  0.00    +0.000 A 
ATOM      2  N   UNL     1      -2.878  13.336  20.117  0.00  0.00    +0.000 NA
ATOM      3  C   UNL     1      -3.111  12.343  19.240  0.00  0.00    +0.000 A 
ATOM      4  N   UNL     1      -4.280  12.469  18.493  0.00  0.00    +0.000 N 
ATOM      5  C   UNL     1      -2.190  11.315  19.000  0.00  0.00    +0.000 A 
ATOM      6  C   UNL     1      -0.888  11.375  19.580  0.00  0.00    +0.000 A 
ATOM      7  C   UNL     1      -0.636  12.477  20.435  0.00  0.00    +0.000 A 
ATOM      8  H   UNL     1      -4.858  13.218  18.863  0.00  0.00    +0.000 HD
ATOM      9  H   UNL     1      -4.799  11.616  18.314  0.00  0.00    +0.000 HD
ENDROOT
BRANCH   6  10
ATOM     10  C   UNL     1       0.154  10.333  19.297  0.00  0.00    +0.000 A 
ATOM     11  C   UNL     1       0.853  10.340  18.084  0.00  0.00    +0.000 A 
ATOM     12  C   UNL     1       1.757   9.339  17.743  0.00  0.00    +0.000 A 
ATOM     13  C   UNL     1       2.107   8.345  18.650  0.00  0.00    +0.000 A 
ATOM     14  C   UNL     1       1.482   8.340  19.893  0.00  0.00    +0.000 A 
ATOM     15  C   UNL     1       0.490   9.294  20.192  0.00  0.00    +0.000 A 
BRANCH  13  16
ATOM     16  O   UNL     1       3.040   7.370  18.400  0.00  0.00    +0.000 OA
BRANCH  16  17
ATOM     17  C   UNL     1       2.716   6.101  18.996  0.00  0.00    +0.000 C 
BRANCH  17  18
ATOM     18  C   UNL     1       2.972   4.958  18.030  0.00  0.00    +0.000 C 
BRANCH  18  19
ATOM     19  O   UNL     1       3.238   3.752  18.737  0.00  0.00    +0.000 OA
ATOM     20  H   UNL     1       2.431   3.210  18.652  0.00  0.00    +0.000 HD
ENDBRANCH  18  19
ENDBRANCH  17  18
ENDBRANCH  16  17
ENDBRANCH  13  16
ENDBRANCH   6  10
BRANCH   5  21
ATOM     21  C   UNL     1      -2.646  10.214  18.186  0.00  0.00    +0.000 C 
ATOM     22  N   UNL     1      -3.026   9.309  17.561  0.00  0.00    +0.000 NA
ENDBRANCH   5  21
BRANCH   7  23
ATOM     23  C   UNL     1       0.667  12.753  20.972  0.00  0.00    +0.000 C 
ATOM     24  N   UNL     1       1.728  12.960  21.402  0.00  0.00    +0.000 NA
ENDBRANCH   7  23
BRANCH   1  25
ATOM     25  S   UNL     1      -1.565  14.414  22.185  0.00  0.00    +0.000 S 
BRANCH  25  27
ATOM     26  C   UNL     1      -2.334  11.938  23.283  0.00  0.00    +0.000 C 
ATOM     27  C   UNL     1      -2.424  13.450  23.497  0.00  0.00    +0.000 C 
BRANCH  27  28
ATOM     28  C   UNL     1      -3.883  13.902  23.516  0.00  0.00    +0.000 A 
ATOM     29  C   UNL     1      -4.237  15.219  23.861  0.00  0.00    +0.000 A 
ATOM     30  C   UNL     1      -5.572  15.609  23.942  0.00  0.00    +0.000 A 
ATOM     31  C   UNL     1      -6.587  14.689  23.678  0.00  0.00    +0.000 A 
ATOM     32  C   UNL     1      -6.267  13.373  23.325  0.00  0.00    +0.000 A 
ATOM     33  C   UNL     1      -4.915  12.989  23.244  0.00  0.00    +0.000 A 
BRANCH  32  34
ATOM     34  C   UNL     1      -7.299  12.345  23.030  0.00  0.00    +0.000 C 
ATOM     35  N   UNL     1      -7.893  12.335  21.795  0.00  0.00    +0.000 N 
ATOM     36  O   UNL     1      -7.636  11.512  23.865  0.00  0.00    +0.000 OA
ATOM     37  H   UNL     1      -7.709  12.994  21.056  0.00  0.00    +0.000 HD
ATOM     38  H   UNL     1      -8.603  11.633  21.641  0.00  0.00    +0.000 HD
ENDBRANCH  32  34
ENDBRANCH  27  28
ENDBRANCH  25  27
ENDBRANCH   1  25
TORSDOF 11
ENDMDL
MODEL 7
REMARK VINA RESULT:      -6.5      2.922     10.769
REMARK  Name = 
REMARK  12 active torsions:
REMARK  status: ('A' for Active; 'I' for Inactive)
REMARK    1  A    between atoms: C_1  and  C_2
REMARK    2  A    between atoms: C_2  and  S_3
REMARK    3  A    between atoms: C_2  and  C_25
REMARK    4  A    between atoms: S_3  and  C_4
REMARK    5  A    between atoms: C_8  and  C_9
REMARK    6  A    between atoms: C_11  and  C_12
REMARK    7  A    between atoms: C_15  and  O_16
REMARK    8  A    between atoms: O_16  and  C_17
REMARK    9  A    between atoms: C_17  and  C_18
REMARK   10  A    between atoms: C_18  and  O_19
REMARK   11  A    between atoms: C_22  and  C_23
REMARK   12  A    between atoms: C_29  and  C_30
REMARK                            x       y       z     vdW  Elec       q    Type
REMARK                         _______ _______ _______ _____ _____    ______ ____
ROOT
ATOM      1  C   UNL     1       0.858   8.918  20.629  0.00  0.00    +0.000 A 
ATOM      2  N   UNL     1       0.724   8.955  19.285  0.00  0.00    +0.000 NA
ATOM      3  C   UNL     1       0.171  10.050  18.733  0.00  0.00    +0.000 A 
ATOM      4  N   UNL     1      -0.119   9.952  17.374  0.00  0.00    +0.000 N 
ATOM      5  C   UNL     1      -0.204  11.169  19.489  0.00  0.00    +0.000 A 
ATOM      6  C   UNL     1      -0.147  11.119  20.913  0.00  0.00    +0.000 A 
ATOM      7  C   UNL     1       0.361   9.921  21.476  0.00  0.00    +0.000 A 
ATOM      8  H   UNL     1       0.300   9.114  16.981  0.00  0.00    +0.000 HD
ATOM      9  H   UNL     1       0.047  10.781  16.814  0.00  0.00    +0.000 HD
ENDROOT
BRANCH   6  10
ATOM     10  C   UNL     1      -0.601  12.267  21.766  0.00  0.00    +0.000 A 
ATOM     11  C   UNL     1      -1.805  12.189  22.478  0.00  0.00    +0.000 A 
ATOM     12  C   UNL     1      -2.309  13.264  23.202  0.00  0.00    +0.000 A 
ATOM     13  C   UNL     1      -1.575  14.434  23.359  0.00  0.00    +0.000 A 
ATOM     14  C   UNL     1      -0.343  14.528  22.720  0.00  0.00    +0.000 A 
ATOM     15  C   UNL     1       0.113  13.476  21.901  0.00  0.00    +0.000 A 
BRANCH  13  16
ATOM     16  O   UNL     1      -1.986  15.504  24.115  0.00  0.00    +0.000 OA
BRANCH  16  17
ATOM     17  C   UNL     1      -0.924  16.113  24.870  0.00  0.00    +0.000 C 
BRANCH  17  18
ATOM     18  C   UNL     1      -0.983  15.704  26.331  0.00  0.00    +0.000 C 
BRANCH  18  19
ATOM     19  O   UNL     1       0.270  15.927  26.966  0.00  0.00    +0.000 OA
ATOM     20  H   UNL     1       0.567  16.808  26.669  0.00  0.00    +0.000 HD
ENDBRANCH  18  19
ENDBRANCH  17  18
ENDBRANCH  16  17
ENDBRANCH  13  16
ENDBRANCH   6  10
BRANCH   5  21
ATOM     21  C   UNL     1      -0.601  12.344  18.751  0.00  0.00    +0.000 C 
ATOM     22  N   UNL     1      -0.943  13.271  18.135  0.00  0.00    +0.000 NA
ENDBRANCH   5  21
BRANCH   7  23
ATOM     23  C   UNL     1       0.342   9.664  22.889  0.00  0.00    +0.000 C 
ATOM     24  N   UNL     1       0.340   9.468  24.036  0.00  0.00    +0.000 NA
ENDBRANCH   7  23
BRANCH   1  25
ATOM     25  S   UNL     1       1.970   7.674  21.277  0.00  0.00    +0.000 S 
BRANCH  25  27
ATOM     26  C   UNL     1       1.819   4.917  20.729  0.00  0.00    +0.000 C 
ATOM     27  C   UNL     1       1.849   6.294  20.064  0.00  0.00    +0.000 C 
BRANCH  27  28
ATOM     28  C   UNL     1       3.045   6.407  19.121  0.00  0.00    +0.000 A 
ATOM     29  C   UNL     1       2.951   7.098  17.899  0.00  0.00    +0.000 A 
ATOM     30  C   UNL     1       4.024   7.140  17.011  0.00  0.00    +0.000 A 
ATOM     31  C   UNL     1       5.219   6.495  17.325  0.00  0.00    +0.000 A 
ATOM     32  C   UNL     1       5.347   5.806  18.537  0.00  0.00    +0.000 A 
ATOM     33  C   UNL     1       4.258   5.769  19.429  0.00  0.00    +0.000 A 
BRANCH  32  34
ATOM     34  C   UNL     1       6.592   5.098  18.935  0.00  0.00    +0.000 C 
ATOM     35  N   UNL     1       7.158   4.209  18.059  0.00  0.00    +0.000 N 
ATOM     36  O   UNL     1       7.119   5.284  20.026  0.00  0.00    +0.000 OA
ATOM     37  H   UNL     1       6.785   3.964  17.156  0.00  0.00    +0.000 HD
ATOM     38  H   UNL     1       7.993   3.734  18.373  0.00  0.00    +0.000 HD
ENDBRANCH  32  34
ENDBRANCH  27  28
ENDBRANCH  25  27
ENDBRANCH   1  25
TORSDOF 11
ENDMDL
MODEL 8
REMARK VINA RESULT:      -6.5      3.282      9.598
REMARK  Name = 
REMARK  12 active torsions:
REMARK  status: ('A' for Active; 'I' for Inactive)
REMARK    1  A    between atoms: C_1  and  C_2
REMARK    2  A    between atoms: C_2  and  S_3
REMARK    3  A    between atoms: C_2  and  C_25
REMARK    4  A    between atoms: S_3  and  C_4
REMARK    5  A    between atoms: C_8  and  C_9
REMARK    6  A    between atoms: C_11  and  C_12
REMARK    7  A    between atoms: C_15  and  O_16
REMARK    8  A    between atoms: O_16  and  C_17
REMARK    9  A    between atoms: C_17  and  C_18
REMARK   10  A    between atoms: C_18  and  O_19
REMARK   11  A    between atoms: C_22  and  C_23
REMARK   12  A    between atoms: C_29  and  C_30
REMARK                            x       y       z     vdW  Elec       q    Type
REMARK                         _______ _______ _______ _____ _____    ______ ____
ROOT
ATOM      1  C   UNL     1       1.095   9.008  19.841  0.00  0.00    +0.000 A 
ATOM      2  N   UNL     1       0.577   8.549  21.002  0.00  0.00    +0.000 NA
ATOM      3  C   UNL     1       0.076   9.445  21.870  0.00  0.00    +0.000 A 
ATOM      4  N   UNL     1      -0.264   8.938  23.122  0.00  0.00    +0.000 N 
ATOM      5  C   UNL     1       0.011  10.816  21.587  0.00  0.00    +0.000 A 
ATOM      6  C   UNL     1       0.624  11.330  20.407  0.00  0.00    +0.000 A 
ATOM      7  C   UNL     1       1.221  10.374  19.547  0.00  0.00    +0.000 A 
ATOM      8  H   UNL     1      -0.234   7.923  23.114  0.00  0.00    +0.000 HD
ATOM      9  H   UNL     1      -1.106   9.309  23.549  0.00  0.00    +0.000 HD
ENDROOT
BRANCH   6  10
ATOM     10  C   UNL     1       0.639  12.798  20.095  0.00  0.00    +0.000 A 
ATOM     11  C   UNL     1      -0.317  13.350  19.234  0.00  0.00    +0.000 A 
ATOM     12  C   UNL     1      -0.282  14.685  18.845  0.00  0.00    +0.000 A 
ATOM     13  C   UNL     1       0.638  15.571  19.394  0.00  0.00    +0.000 A 
ATOM     14  C   UNL     1       1.566  15.076  20.304  0.00  0.00    +0.000 A 
ATOM     15  C   UNL     1       1.591  13.702  20.614  0.00  0.00    +0.000 A 
BRANCH  13  16
ATOM     16  O   UNL     1       0.682  16.912  19.101  0.00  0.00    +0.000 OA
BRANCH  16  17
ATOM     17  C   UNL     1       2.017  17.412  18.909  0.00  0.00    +0.000 C 
BRANCH  17  18
ATOM     18  C   UNL     1       2.417  17.363  17.445  0.00  0.00    +0.000 C 
BRANCH  18  19
ATOM     19  O   UNL     1       1.643  18.279  16.682  0.00  0.00    +0.000 OA
ATOM     20  H   UNL     1       0.753  18.276  17.083  0.00  0.00    +0.000 HD
ENDBRANCH  18  19
ENDBRANCH  17  18
ENDBRANCH  16  17
ENDBRANCH  13  16
ENDBRANCH   6  10
BRANCH   5  21
ATOM     21  C   UNL     1      -0.726  11.635  22.520  0.00  0.00    +0.000 C 
ATOM     22  N   UNL     1      -1.302  12.279  23.300  0.00  0.00    +0.000 NA
ENDBRANCH   5  21
BRANCH   7  23
ATOM     23  C   UNL     1       2.003  10.749  18.402  0.00  0.00    +0.000 C 
ATOM     24  N   UNL     1       2.630  11.071  17.476  0.00  0.00    +0.000 NA
ENDBRANCH   7  23
BRANCH   1  25
ATOM     25  S   UNL     1       1.342   7.791  18.553  0.00  0.00    +0.000 S 
BRANCH  25  27
ATOM     26  C   UNL     1       3.929   6.870  17.932  0.00  0.00    +0.000 C 
ATOM     27  C   UNL     1       2.888   6.923  19.051  0.00  0.00    +0.000 C 
BRANCH  27  28
ATOM     28  C   UNL     1       2.499   5.512  19.488  0.00  0.00    +0.000 A 
ATOM     29  C   UNL     1       1.340   5.275  20.249  0.00  0.00    +0.000 A 
ATOM     30  C   UNL     1       1.026   3.995  20.703  0.00  0.00    +0.000 A 
ATOM     31  C   UNL     1       1.863   2.921  20.405  0.00  0.00    +0.000 A 
ATOM     32  C   UNL     1       3.020   3.124  19.643  0.00  0.00    +0.000 A 
ATOM     33  C   UNL     1       3.329   4.419  19.188  0.00  0.00    +0.000 A 
BRANCH  32  34
ATOM     34  C   UNL     1       3.954   2.023  19.289  0.00  0.00    +0.000 C 
ATOM     35  N   UNL     1       5.114   1.880  20.006  0.00  0.00    +0.000 N 
ATOM     36  O   UNL     1       3.718   1.247  18.370  0.00  0.00    +0.000 OA
ATOM     37  H   UNL     1       5.413   2.484  20.755  0.00  0.00    +0.000 HD
ATOM     38  H   UNL     1       5.731   1.133  19.722  0.00  0.00    +0.000 HD
ENDBRANCH  32  34
ENDBRANCH  27  28
ENDBRANCH  25  27
ENDBRANCH   1  25
TORSDOF 11
ENDMDL
MODEL 9
REMARK VINA RESULT:      -6.5      2.481     10.822
REMARK  Name = 
REMARK  12 active torsions:
REMARK  status: ('A' for Active; 'I' for Inactive)
REMARK    1  A    between atoms: C_1  and  C_2
REMARK    2  A    between atoms: C_2  and  S_3
REMARK    3  A    between atoms: C_2  and  C_25
REMARK    4  A    between atoms: S_3  and  C_4
REMARK    5  A    between atoms: C_8  and  C_9
REMARK    6  A    between atoms: C_11  and  C_12
REMARK    7  A    between atoms: C_15  and  O_16
REMARK    8  A    between atoms: O_16  and  C_17
REMARK    9  A    between atoms: C_17  and  C_18
REMARK   10  A    between atoms: C_18  and  O_19
REMARK   11  A    between atoms: C_22  and  C_23
REMARK   12  A    between atoms: C_29  and  C_30
REMARK                            x       y       z     vdW  Elec       q    Type
REMARK                         _______ _______ _______ _____ _____    ______ ____
ROOT
ATOM      1  C   UNL     1       1.626   8.921  19.392  0.00  0.00    +0.000 A 
ATOM      2  N   UNL     1       2.296   9.623  18.452  0.00  0.00    +0.000 NA
ATOM      3  C   UNL     1       2.033  10.937  18.335  0.00  0.00    +0.000 A 
ATOM      4  N   UNL     1       2.605  11.564  17.230  0.00  0.00    +0.000 N 
ATOM      5  C   UNL     1       1.149  11.609  19.188  0.00  0.00    +0.000 A 
ATOM      6  C   UNL     1       0.372  10.874  20.131  0.00  0.00    +0.000 A 
ATOM      7  C   UNL     1       0.606   9.476  20.179  0.00  0.00    +0.000 A 
ATOM      8  H   UNL     1       3.277  10.949  16.781  0.00  0.00    +0.000 HD
ATOM      9  H   UNL     1       2.958  12.504  17.373  0.00  0.00    +0.000 HD
ENDROOT
BRANCH   6  10
ATOM     10  C   UNL     1      -0.637  11.541  21.020  0.00  0.00    +0.000 A 
ATOM     11  C   UNL     1      -1.848  12.007  20.493  0.00  0.00    +0.000 A 
ATOM     12  C   UNL     1      -2.767  12.714  21.260  0.00  0.00    +0.000 A 
ATOM     13  C   UNL     1      -2.583  12.885  22.628  0.00  0.00    +0.000 A 
ATOM     14  C   UNL     1      -1.422  12.380  23.204  0.00  0.00    +0.000 A 
ATOM     15  C   UNL     1      -0.446  11.758  22.402  0.00  0.00    +0.000 A 
BRANCH  13  16
ATOM     16  O   UNL     1      -3.484  13.515  23.451  0.00  0.00    +0.000 OA
BRANCH  16  17
ATOM     17  C   UNL     1      -4.819  13.553  22.916  0.00  0.00    +0.000 C 
BRANCH  17  18
ATOM     18  C   UNL     1      -5.796  12.824  23.821  0.00  0.00    +0.000 C 
BRANCH  18  19
ATOM     19  O   UNL     1      -5.113  12.213  24.909  0.00  0.00    +0.000 OA
ATOM     20  H   UNL     1      -4.320  12.759  25.067  0.00  0.00    +0.000 HD
ENDBRANCH  18  19
ENDBRANCH  17  18
ENDBRANCH  16  17
ENDBRANCH  13  16
ENDBRANCH   6  10
BRANCH   5  21
ATOM     21  C   UNL     1       1.109  13.047  19.077  0.00  0.00    +0.000 C 
ATOM     22  N   UNL     1       1.041  14.205  18.980  0.00  0.00    +0.000 NA
ENDBRANCH   5  21
BRANCH   7  23
ATOM     23  C   UNL     1      -0.200   8.587  20.968  0.00  0.00    +0.000 C 
ATOM     24  N   UNL     1      -0.839   7.855  21.609  0.00  0.00    +0.000 NA
ENDBRANCH   7  23
BRANCH   1  25
ATOM     25  S   UNL     1       2.301   7.317  19.809  0.00  0.00    +0.000 S 
BRANCH  25  27
ATOM     26  C   UNL     1       1.449   5.369  17.965  0.00  0.00    +0.000 C 
ATOM     27  C   UNL     1       2.483   6.474  18.182  0.00  0.00    +0.000 C 
BRANCH  27  28
ATOM     28  C   UNL     1       3.899   5.903  18.119  0.00  0.00    +0.000 A 
ATOM     29  C   UNL     1       4.658   5.697  19.285  0.00  0.00    +0.000 A 
ATOM     30  C   UNL     1       5.972   5.240  19.217  0.00  0.00    +0.000 A 
ATOM     31  C   UNL     1       6.560   4.977  17.980  0.00  0.00    +0.000 A 
ATOM     32  C   UNL     1       5.827   5.165  16.802  0.00  0.00    +0.000 A 
ATOM     33  C   UNL     1       4.500   5.626  16.880  0.00  0.00    +0.000 A 
BRANCH  32  34
ATOM     34  C   UNL     1       6.392   4.902  15.452  0.00  0.00    +0.000 C 
ATOM     35  N   UNL     1       7.631   5.401  15.142  0.00  0.00    +0.000 N 
ATOM     36  O   UNL     1       5.776   4.259  14.609  0.00  0.00    +0.000 OA
ATOM     37  H   UNL     1       8.199   5.966  15.751  0.00  0.00    +0.000 HD
ATOM     38  H   UNL     1       7.971   5.218  14.209  0.00  0.00    +0.000 HD
ENDBRANCH  32  34
ENDBRANCH  27  28
ENDBRANCH  25  27
ENDBRANCH   1  25
TORSDOF 11
ENDMDL
