MODEL 1
REMARK VINA RESULT:      -8.2      0.000      0.000
REMARK  Name = 
REMARK  5 active torsions:
REMARK  status: ('A' for Active; 'I' for Inactive)
REMARK    1  A    between atoms: C_2  and  C_26
REMARK    2  A    between atoms: N_3  and  C_4
REMARK    3  A    between atoms: C_6  and  C_7
REMARK    4  A    between atoms: C_10  and  C_11
REMARK    5  A    between atoms: N_17  and  C_18
REMARK                            x       y       z     vdW  Elec       q    Type
REMARK                         _______ _______ _______ _____ _____    ______ ____
ROOT
ATOM      1  C   UNL     1       1.794   9.000  19.578  0.00  0.00    +0.000 C 
ATOM      2  C   UNL     1       0.324   9.512  19.542  0.00  0.00    +0.000 C 
ATOM      3  C   UNL     1       0.277   9.368  21.083  0.00  0.00    +0.000 C 
ATOM      4  C   UNL     1       1.834   9.506  21.032  0.00  0.00    +0.000 C 
ENDROOT
BRANCH   3   5
ATOM      5  C   UNL     1      -0.466  10.440  21.916  0.00  0.00    +0.000 A 
ATOM      6  N   UNL     1      -1.104  10.179  23.038  0.00  0.00    +0.000 NA
ATOM      7  N   UNL     1      -1.489  11.376  23.608  0.00  0.00    +0.000 NA
ATOM      8  C   UNL     1      -1.150  12.364  22.794  0.00  0.00    +0.000 A 
ATOM      9  N   UNL     1      -0.419  11.823  21.734  0.00  0.00    +0.000 N 
BRANCH   9  10
ATOM     10  C   UNL     1       0.192  12.522  20.661  0.00  0.00    +0.000 A 
ATOM     11  C   UNL     1       1.549  12.842  20.726  0.00  0.00    +0.000 A 
ATOM     12  C   UNL     1       2.186  13.450  19.645  0.00  0.00    +0.000 A 
ATOM     13  C   UNL     1       1.479  13.685  18.470  0.00  0.00    +0.000 A 
ATOM     14  C   UNL     1       0.126  13.361  18.394  0.00  0.00    +0.000 A 
ATOM     15  C   UNL     1      -0.521  12.817  19.501  0.00  0.00    +0.000 A 
ATOM     16  F   UNL     1      -1.844  12.612  19.422  0.00  0.00    +0.000 F 
ENDBRANCH   9  10
BRANCH   8  17
ATOM     17  C   UNL     1      -1.579  13.774  22.917  0.00  0.00    +0.000 A 
ATOM     18  C   UNL     1      -2.710  14.283  22.303  0.00  0.00    +0.000 A 
ATOM     19  C   UNL     1      -3.072  15.603  22.529  0.00  0.00    +0.000 A 
ATOM     20  C   UNL     1      -2.290  16.397  23.384  0.00  0.00    +0.000 A 
ATOM     21  C   UNL     1      -1.174  15.821  23.940  0.00  0.00    +0.000 A 
ATOM     22  N   UNL     1      -0.784  14.551  23.716  0.00  0.00    +0.000 NA
ENDBRANCH   8  17
ENDBRANCH   3   5
BRANCH   1  25
ATOM     23  O   UNL     1       3.288   7.795  17.568  0.00  0.00    +0.000 OA
ATOM     24  C   UNL     1       2.879   7.046  18.456  0.00  0.00    +0.000 C 
ATOM     25  N   UNL     1       2.037   7.523  19.446  0.00  0.00    +0.000 N 
ATOM     26  H   UNL     1       1.844   6.883  20.215  0.00  0.00    +0.000 HD
BRANCH  24  27
ATOM     27  C   UNL     1       3.268   5.593  18.407  0.00  0.00    +0.000 A 
ATOM     28  C   UNL     1       4.021   5.238  17.277  0.00  0.00    +0.000 A 
ATOM     29  C   UNL     1       4.305   3.918  17.033  0.00  0.00    +0.000 A 
ATOM     30  N   UNL     1       3.779   2.926  17.755  0.00  0.00    +0.000 NA
ATOM     31  C   UNL     1       3.070   3.272  18.847  0.00  0.00    +0.000 A 
ATOM     32  C   UNL     1       2.383   2.270  19.498  0.00  0.00    +0.000 A 
ATOM     33  C   UNL     1       1.467   2.633  20.454  0.00  0.00    +0.000 A 
ATOM     34  F   UNL     1       0.210   2.743  19.947  0.00  0.00    +0.000 F 
ATOM     35  C   UNL     1       1.846   3.737  21.173  0.00  0.00    +0.000 A 
ATOM     36  N   UNL     1       2.374   4.816  20.556  0.00  0.00    +0.000 NA
ATOM     37  C   UNL     1       2.876   4.602  19.307  0.00  0.00    +0.000 A 
ENDBRANCH  24  27
ENDBRANCH   1  25
TORSDOF 5
ENDMDL
MODEL 2
REMARK VINA RESULT:      -8.2      1.699      2.092
REMARK  Name = 
REMARK  5 active torsions:
REMARK  status: ('A' for Active; 'I' for Inactive)
REMARK    1  A    between atoms: C_2  and  C_26
REMARK    2  A    between atoms: N_3  and  C_4
REMARK    3  A    between atoms: C_6  and  C_7
REMARK    4  A    between atoms: C_10  and  C_11
REMARK    5  A    between atoms: N_17  and  C_18
REMARK                            x       y       z     vdW  Elec       q    Type
REMARK                         _______ _______ _______ _____ _____    ______ ____
ROOT
ATOM      1  C   UNL     1       0.882   8.131  21.392  0.00  0.00    +0.000 C 
ATOM      2  C   UNL     1       1.214   9.192  22.483  0.00  0.00    +0.000 C 
ATOM      3  C   UNL     1       0.857  10.297  21.460  0.00  0.00    +0.000 C 
ATOM      4  C   UNL     1      -0.014   9.208  20.753  0.00  0.00    +0.000 C 
ENDROOT
BRANCH   3   5
ATOM      5  C   UNL     1       0.096  11.554  21.947  0.00  0.00    +0.000 A 
ATOM      6  N   UNL     1      -0.741  11.552  22.964  0.00  0.00    +0.000 NA
ATOM      7  N   UNL     1      -1.095  12.858  23.240  0.00  0.00    +0.000 NA
ATOM      8  C   UNL     1      -0.531  13.650  22.341  0.00  0.00    +0.000 A 
ATOM      9  N   UNL     1       0.307  12.872  21.540  0.00  0.00    +0.000 N 
BRANCH   9  10
ATOM     10  C   UNL     1       1.152  13.315  20.489  0.00  0.00    +0.000 A 
ATOM     11  C   UNL     1       2.409  13.845  20.787  0.00  0.00    +0.000 A 
ATOM     12  C   UNL     1       3.286  14.204  19.765  0.00  0.00    +0.000 A 
ATOM     13  C   UNL     1       2.932  13.975  18.438  0.00  0.00    +0.000 A 
ATOM     14  C   UNL     1       1.683  13.438  18.133  0.00  0.00    +0.000 A 
ATOM     15  C   UNL     1       0.784  13.146  19.155  0.00  0.00    +0.000 A 
ATOM     16  F   UNL     1      -0.444  12.726  18.817  0.00  0.00    +0.000 F 
ENDBRANCH   9  10
BRANCH   8  17
ATOM     17  C   UNL     1      -0.834  15.083  22.139  0.00  0.00    +0.000 A 
ATOM     18  C   UNL     1      -1.497  15.572  21.026  0.00  0.00    +0.000 A 
ATOM     19  C   UNL     1      -1.796  16.925  20.953  0.00  0.00    +0.000 A 
ATOM     20  C   UNL     1      -1.431  17.772  22.011  0.00  0.00    +0.000 A 
ATOM     21  C   UNL     1      -0.761  17.211  23.070  0.00  0.00    +0.000 A 
ATOM     22  N   UNL     1      -0.432  15.907  23.155  0.00  0.00    +0.000 NA
ENDBRANCH   8  17
ENDBRANCH   3   5
BRANCH   1  25
ATOM     23  O   UNL     1       1.321   5.492  20.639  0.00  0.00    +0.000 OA
ATOM     24  C   UNL     1       2.054   6.330  20.112  0.00  0.00    +0.000 C 
ATOM     25  N   UNL     1       1.992   7.658  20.496  0.00  0.00    +0.000 N 
ATOM     26  H   UNL     1       2.531   8.313  19.932  0.00  0.00    +0.000 HD
BRANCH  24  27
ATOM     27  C   UNL     1       3.054   5.868  19.087  0.00  0.00    +0.000 A 
ATOM     28  C   UNL     1       3.506   6.882  18.228  0.00  0.00    +0.000 A 
ATOM     29  C   UNL     1       4.297   6.564  17.154  0.00  0.00    +0.000 A 
ATOM     30  N   UNL     1       4.555   5.302  16.801  0.00  0.00    +0.000 NA
ATOM     31  C   UNL     1       4.132   4.334  17.637  0.00  0.00    +0.000 A 
ATOM     32  C   UNL     1       4.240   3.031  17.199  0.00  0.00    +0.000 A 
ATOM     33  C   UNL     1       3.598   2.055  17.920  0.00  0.00    +0.000 A 
ATOM     34  F   UNL     1       2.355   1.790  17.435  0.00  0.00    +0.000 F 
ATOM     35  C   UNL     1       3.599   2.292  19.270  0.00  0.00    +0.000 A 
ATOM     36  N   UNL     1       3.334   3.524  19.757  0.00  0.00    +0.000 NA
ATOM     37  C   UNL     1       3.475   4.554  18.877  0.00  0.00    +0.000 A 
ENDBRANCH  24  27
ENDBRANCH   1  25
TORSDOF 5
ENDMDL
MODEL 3
REMARK VINA RESULT:      -8.0      2.613      3.656
REMARK  Name = 
REMARK  5 active torsions:
REMARK  status: ('A' for Active; 'I' for Inactive)
REMARK    1  A    between atoms: C_2  and  C_26
REMARK    2  A    between atoms: N_3  and  C_4
REMARK    3  A    between atoms: C_6  and  C_7
REMARK    4  A    between atoms: C_10  and  C_11
REMARK    5  A    between atoms: N_17  and  C_18
REMARK                            x       y       z     vdW  Elec       q    Type
REMARK                         _______ _______ _______ _____ _____    ______ ____
ROOT
ATOM      1  C   UNL     1       1.469   7.995  21.321  0.00  0.00    +0.000 C 
ATOM      2  C   UNL     1       1.668   9.536  21.424  0.00  0.00    +0.000 C 
ATOM      3  C   UNL     1       0.337   9.719  20.654  0.00  0.00    +0.000 C 
ATOM      4  C   UNL     1      -0.035   8.294  21.180  0.00  0.00    +0.000 C 
ENDROOT
BRANCH   3   5
ATOM      5  C   UNL     1      -0.621  10.860  21.072  0.00  0.00    +0.000 A 
ATOM      6  N   UNL     1      -0.533  11.506  22.216  0.00  0.00    +0.000 NA
ATOM      7  N   UNL     1      -1.413  12.569  22.187  0.00  0.00    +0.000 NA
ATOM      8  C   UNL     1      -2.093  12.527  21.051  0.00  0.00    +0.000 A 
ATOM      9  N   UNL     1      -1.567  11.498  20.267  0.00  0.00    +0.000 N 
BRANCH   9  10
ATOM     10  C   UNL     1      -1.950  11.133  18.950  0.00  0.00    +0.000 A 
ATOM     11  C   UNL     1      -2.698   9.973  18.743  0.00  0.00    +0.000 A 
ATOM     12  C   UNL     1      -3.158   9.646  17.468  0.00  0.00    +0.000 A 
ATOM     13  C   UNL     1      -2.922  10.512  16.405  0.00  0.00    +0.000 A 
ATOM     14  C   UNL     1      -2.183  11.676  16.606  0.00  0.00    +0.000 A 
ATOM     15  C   UNL     1      -1.668  11.964  17.867  0.00  0.00    +0.000 A 
ATOM     16  F   UNL     1      -0.878  13.040  17.997  0.00  0.00    +0.000 F 
ENDBRANCH   9  10
BRANCH   8  17
ATOM     17  C   UNL     1      -3.283  13.341  20.724  0.00  0.00    +0.000 A 
ATOM     18  C   UNL     1      -4.475  12.800  20.272  0.00  0.00    +0.000 A 
ATOM     19  C   UNL     1      -5.561  13.634  20.053  0.00  0.00    +0.000 A 
ATOM     20  C   UNL     1      -5.436  15.011  20.302  0.00  0.00    +0.000 A 
ATOM     21  C   UNL     1      -4.215  15.469  20.731  0.00  0.00    +0.000 A 
ATOM     22  N   UNL     1      -3.135  14.686  20.925  0.00  0.00    +0.000 NA
ENDBRANCH   8  17
ENDBRANCH   3   5
BRANCH   1  25
ATOM     23  O   UNL     1       1.807   5.244  21.119  0.00  0.00    +0.000 OA
ATOM     24  C   UNL     1       2.086   5.895  20.112  0.00  0.00    +0.000 C 
ATOM     25  N   UNL     1       2.057   7.278  20.138  0.00  0.00    +0.000 N 
ATOM     26  H   UNL     1       2.172   7.745  19.240  0.00  0.00    +0.000 HD
BRANCH  24  27
ATOM     27  C   UNL     1       2.515   5.155  18.873  0.00  0.00    +0.000 A 
ATOM     28  C   UNL     1       1.875   3.920  18.691  0.00  0.00    +0.000 A 
ATOM     29  C   UNL     1       2.287   3.078  17.689  0.00  0.00    +0.000 A 
ATOM     30  N   UNL     1       3.372   3.320  16.950  0.00  0.00    +0.000 NA
ATOM     31  C   UNL     1       3.975   4.513  17.118  0.00  0.00    +0.000 A 
ATOM     32  C   UNL     1       5.187   4.702  16.490  0.00  0.00    +0.000 A 
ATOM     33  C   UNL     1       5.928   5.803  16.841  0.00  0.00    +0.000 A 
ATOM     34  F   UNL     1       6.829   5.526  17.822  0.00  0.00    +0.000 F 
ATOM     35  C   UNL     1       5.161   6.904  17.123  0.00  0.00    +0.000 A 
ATOM     36  N   UNL     1       4.047   6.794  17.878  0.00  0.00    +0.000 NA
ATOM     37  C   UNL     1       3.520   5.542  17.986  0.00  0.00    +0.000 A 
ENDBRANCH  24  27
ENDBRANCH   1  25
TORSDOF 5
ENDMDL
MODEL 4
REMARK VINA RESULT:      -8.0      2.005      2.805
REMARK  Name = 
REMARK  5 active torsions:
REMARK  status: ('A' for Active; 'I' for Inactive)
REMARK    1  A    between atoms: C_2  and  C_26
REMARK    2  A    between atoms: N_3  and  C_4
REMARK    3  A    between atoms: C_6  and  C_7
REMARK    4  A    between atoms: C_10  and  C_11
REMARK    5  A    between atoms: N_17  and  C_18
REMARK                            x       y       z     vdW  Elec       q    Type
REMARK                         _______ _______ _______ _____ _____    ______ ____
ROOT
ATOM      1  C   UNL     1       1.135   7.754  21.596  0.00  0.00    +0.000 C 
ATOM      2  C   UNL     1       1.701   9.103  22.129  0.00  0.00    +0.000 C 
ATOM      3  C   UNL     1       0.646   9.840  21.268  0.00  0.00    +0.000 C 
ATOM      4  C   UNL     1      -0.180   8.515  21.343  0.00  0.00    +0.000 C 
ENDROOT
BRANCH   3   5
ATOM      5  C   UNL     1      -0.048  11.098  21.845  0.00  0.00    +0.000 A 
ATOM      6  N   UNL     1      -0.873  11.070  22.872  0.00  0.00    +0.000 NA
ATOM      7  N   UNL     1      -1.161  12.371  23.235  0.00  0.00    +0.000 NA
ATOM      8  C   UNL     1      -0.571  13.192  22.380  0.00  0.00    +0.000 A 
ATOM      9  N   UNL     1       0.220  12.428  21.519  0.00  0.00    +0.000 N 
BRANCH   9  10
ATOM     10  C   UNL     1       1.073  12.896  20.486  0.00  0.00    +0.000 A 
ATOM     11  C   UNL     1       2.307  13.464  20.810  0.00  0.00    +0.000 A 
ATOM     12  C   UNL     1       3.194  13.849  19.806  0.00  0.00    +0.000 A 
ATOM     13  C   UNL     1       2.875  13.611  18.473  0.00  0.00    +0.000 A 
ATOM     14  C   UNL     1       1.649  13.037  18.142  0.00  0.00    +0.000 A 
ATOM     15  C   UNL     1       0.738  12.718  19.145  0.00  0.00    +0.000 A 
ATOM     16  F   UNL     1      -0.469  12.261  18.780  0.00  0.00    +0.000 F 
ENDBRANCH   9  10
BRANCH   8  17
ATOM     17  C   UNL     1      -0.807  14.647  22.273  0.00  0.00    +0.000 A 
ATOM     18  C   UNL     1      -1.754  15.206  21.432  0.00  0.00    +0.000 A 
ATOM     19  C   UNL     1      -1.952  16.579  21.447  0.00  0.00    +0.000 A 
ATOM     20  C   UNL     1      -1.195  17.377  22.320  0.00  0.00    +0.000 A 
ATOM     21  C   UNL     1      -0.264  16.746  23.108  0.00  0.00    +0.000 A 
ATOM     22  N   UNL     1      -0.030  15.419  23.094  0.00  0.00    +0.000 NA
ENDBRANCH   8  17
ENDBRANCH   3   5
BRANCH   1  25
ATOM     23  O   UNL     1       1.888   5.098  21.276  0.00  0.00    +0.000 OA
ATOM     24  C   UNL     1       1.989   5.808  20.276  0.00  0.00    +0.000 C 
ATOM     25  N   UNL     1       1.743   7.169  20.352  0.00  0.00    +0.000 N 
ATOM     26  H   UNL     1       1.719   7.669  19.465  0.00  0.00    +0.000 HD
BRANCH  24  27
ATOM     27  C   UNL     1       2.440   5.177  18.986  0.00  0.00    +0.000 A 
ATOM     28  C   UNL     1       1.974   3.867  18.795  0.00  0.00    +0.000 A 
ATOM     29  C   UNL     1       2.438   3.125  17.739  0.00  0.00    +0.000 A 
ATOM     30  N   UNL     1       3.428   3.544  16.947  0.00  0.00    +0.000 NA
ATOM     31  C   UNL     1       3.862   4.807  17.126  0.00  0.00    +0.000 A 
ATOM     32  C   UNL     1       4.992   5.190  16.436  0.00  0.00    +0.000 A 
ATOM     33  C   UNL     1       5.588   6.376  16.785  0.00  0.00    +0.000 A 
ATOM     34  F   UNL     1       6.580   6.205  17.700  0.00  0.00    +0.000 F 
ATOM     35  C   UNL     1       4.690   7.344  17.153  0.00  0.00    +0.000 A 
ATOM     36  N   UNL     1       3.653   7.051  17.968  0.00  0.00    +0.000 NA
ATOM     37  C   UNL     1       3.320   5.733  18.057  0.00  0.00    +0.000 A 
ENDBRANCH  24  27
ENDBRANCH   1  25
TORSDOF 5
ENDMDL
MODEL 5
REMARK VINA RESULT:      -8.0      1.070      1.356
REMARK  Name = 
REMARK  5 active torsions:
REMARK  status: ('A' for Active; 'I' for Inactive)
REMARK    1  A    between atoms: C_2  and  C_26
REMARK    2  A    between atoms: N_3  and  C_4
REMARK    3  A    between atoms: C_6  and  C_7
REMARK    4  A    between atoms: C_10  and  C_11
REMARK    5  A    between atoms: N_17  and  C_18
REMARK                            x       y       z     vdW  Elec       q    Type
REMARK                         _______ _______ _______ _____ _____    ______ ____
ROOT
ATOM      1  C   UNL     1       1.032   9.928  19.461  0.00  0.00    +0.000 C 
ATOM      2  C   UNL     1      -0.491  10.103  19.740  0.00  0.00    +0.000 C 
ATOM      3  C   UNL     1      -0.159  10.247  21.245  0.00  0.00    +0.000 C 
ATOM      4  C   UNL     1       1.263  10.698  20.775  0.00  0.00    +0.000 C 
ENDROOT
BRANCH   3   5
ATOM      5  C   UNL     1      -0.945  11.277  22.092  0.00  0.00    +0.000 A 
ATOM      6  N   UNL     1      -1.616  10.965  23.182  0.00  0.00    +0.000 NA
ATOM      7  N   UNL     1      -2.038  12.135  23.783  0.00  0.00    +0.000 NA
ATOM      8  C   UNL     1      -1.688  13.157  23.017  0.00  0.00    +0.000 A 
ATOM      9  N   UNL     1      -0.915  12.666  21.963  0.00  0.00    +0.000 N 
BRANCH   9  10
ATOM     10  C   UNL     1      -0.280  13.413  20.937  0.00  0.00    +0.000 A 
ATOM     11  C   UNL     1       0.975  13.979  21.167  0.00  0.00    +0.000 A 
ATOM     12  C   UNL     1       1.651  14.641  20.143  0.00  0.00    +0.000 A 
ATOM     13  C   UNL     1       1.100  14.686  18.866  0.00  0.00    +0.000 A 
ATOM     14  C   UNL     1      -0.149  14.116  18.627  0.00  0.00    +0.000 A 
ATOM     15  C   UNL     1      -0.851  13.517  19.669  0.00  0.00    +0.000 A 
ATOM     16  F   UNL     1      -2.090  13.069  19.422  0.00  0.00    +0.000 F 
ENDBRANCH   9  10
BRANCH   8  17
ATOM     17  C   UNL     1      -2.142  14.555  23.178  0.00  0.00    +0.000 A 
ATOM     18  C   UNL     1      -1.474  15.489  23.949  0.00  0.00    +0.000 A 
ATOM     19  C   UNL     1      -1.937  16.796  23.988  0.00  0.00    +0.000 A 
ATOM     20  C   UNL     1      -3.069  17.151  23.237  0.00  0.00    +0.000 A 
ATOM     21  C   UNL     1      -3.684  16.160  22.512  0.00  0.00    +0.000 A 
ATOM     22  N   UNL     1      -3.274  14.877  22.478  0.00  0.00    +0.000 NA
ENDBRANCH   8  17
ENDBRANCH   3   5
BRANCH   1  25
ATOM     23  O   UNL     1       2.332   8.719  17.324  0.00  0.00    +0.000 OA
ATOM     24  C   UNL     1       2.314   8.077  18.373  0.00  0.00    +0.000 C 
ATOM     25  N   UNL     1       1.602   8.538  19.468  0.00  0.00    +0.000 N 
ATOM     26  H   UNL     1       1.737   8.025  20.337  0.00  0.00    +0.000 HD
BRANCH  24  27
ATOM     27  C   UNL     1       3.034   6.756  18.421  0.00  0.00    +0.000 A 
ATOM     28  C   UNL     1       4.054   6.623  17.467  0.00  0.00    +0.000 A 
ATOM     29  C   UNL     1       4.680   5.414  17.301  0.00  0.00    +0.000 A 
ATOM     30  N   UNL     1       4.271   4.303  17.919  0.00  0.00    +0.000 NA
ATOM     31  C   UNL     1       3.301   4.439  18.845  0.00  0.00    +0.000 A 
ATOM     32  C   UNL     1       2.755   3.284  19.361  0.00  0.00    +0.000 A 
ATOM     33  C   UNL     1       1.612   3.393  20.113  0.00  0.00    +0.000 A 
ATOM     34  F   UNL     1       0.487   3.225  19.367  0.00  0.00    +0.000 F 
ATOM     35  C   UNL     1       1.575   4.530  20.878  0.00  0.00    +0.000 A 
ATOM     36  N   UNL     1       1.946   5.722  20.363  0.00  0.00    +0.000 NA
ATOM     37  C   UNL     1       2.717   5.672  19.241  0.00  0.00    +0.000 A 
ENDBRANCH  24  27
ENDBRANCH   1  25
TORSDOF 5
ENDMDL
MODEL 6
REMARK VINA RESULT:      -7.9      1.953      2.537
REMARK  Name = 
REMARK  5 active torsions:
REMARK  status: ('A' for Active; 'I' for Inactive)
REMARK    1  A    between atoms: C_2  and  C_26
REMARK    2  A    between atoms: N_3  and  C_4
REMARK    3  A    between atoms: C_6  and  C_7
REMARK    4  A    between atoms: C_10  and  C_11
REMARK    5  A    between atoms: N_17  and  C_18
REMARK                            x       y       z     vdW  Elec       q    Type
REMARK                         _______ _______ _______ _____ _____    ______ ____
ROOT
ATOM      1  C   UNL     1       0.881   8.166  21.409  0.00  0.00    +0.000 C 
ATOM      2  C   UNL     1       1.211   9.229  22.499  0.00  0.00    +0.000 C 
ATOM      3  C   UNL     1       0.868  10.332  21.469  0.00  0.00    +0.000 C 
ATOM      4  C   UNL     1      -0.004   9.246  20.759  0.00  0.00    +0.000 C 
ENDROOT
BRANCH   3   5
ATOM      5  C   UNL     1       0.111  11.595  21.947  0.00  0.00    +0.000 A 
ATOM      6  N   UNL     1      -0.725  11.604  22.964  0.00  0.00    +0.000 NA
ATOM      7  N   UNL     1      -1.076  12.912  23.229  0.00  0.00    +0.000 NA
ATOM      8  C   UNL     1      -0.512  13.696  22.323  0.00  0.00    +0.000 A 
ATOM      9  N   UNL     1       0.324  12.909  21.528  0.00  0.00    +0.000 N 
BRANCH   9  10
ATOM     10  C   UNL     1       1.169  13.341  20.473  0.00  0.00    +0.000 A 
ATOM     11  C   UNL     1       0.837  13.040  19.151  0.00  0.00    +0.000 A 
ATOM     12  C   UNL     1       1.608  13.530  18.098  0.00  0.00    +0.000 A 
ATOM     13  C   UNL     1       2.681  14.376  18.362  0.00  0.00    +0.000 A 
ATOM     14  C   UNL     1       3.014  14.687  19.679  0.00  0.00    +0.000 A 
ATOM     15  C   UNL     1       2.283  14.139  20.729  0.00  0.00    +0.000 A 
ATOM     16  F   UNL     1       2.696  14.382  21.981  0.00  0.00    +0.000 F 
ENDBRANCH   9  10
BRANCH   8  17
ATOM     17  C   UNL     1      -0.811  15.128  22.109  0.00  0.00    +0.000 A 
ATOM     18  C   UNL     1      -0.181  16.149  22.798  0.00  0.00    +0.000 A 
ATOM     19  C   UNL     1      -0.479  17.467  22.483  0.00  0.00    +0.000 A 
ATOM     20  C   UNL     1      -1.406  17.742  21.465  0.00  0.00    +0.000 A 
ATOM     21  C   UNL     1      -1.999  16.672  20.842  0.00  0.00    +0.000 A 
ATOM     22  N   UNL     1      -1.751  15.383  21.147  0.00  0.00    +0.000 NA
ENDBRANCH   8  17
ENDBRANCH   3   5
BRANCH   1  25
ATOM     23  O   UNL     1       1.268   5.533  20.606  0.00  0.00    +0.000 OA
ATOM     24  C   UNL     1       2.031   6.363  20.111  0.00  0.00    +0.000 C 
ATOM     25  N   UNL     1       1.996   7.684  20.523  0.00  0.00    +0.000 N 
ATOM     26  H   UNL     1       2.562   8.336  19.983  0.00  0.00    +0.000 HD
BRANCH  24  27
ATOM     27  C   UNL     1       3.038   5.897  19.095  0.00  0.00    +0.000 A 
ATOM     28  C   UNL     1       3.480   6.904  18.222  0.00  0.00    +0.000 A 
ATOM     29  C   UNL     1       4.277   6.579  17.154  0.00  0.00    +0.000 A 
ATOM     30  N   UNL     1       4.549   5.316  16.819  0.00  0.00    +0.000 NA
ATOM     31  C   UNL     1       4.135   4.354  17.668  0.00  0.00    +0.000 A 
ATOM     32  C   UNL     1       4.258   3.047  17.249  0.00  0.00    +0.000 A 
ATOM     33  C   UNL     1       3.625   2.074  17.982  0.00  0.00    +0.000 A 
ATOM     34  F   UNL     1       2.386   1.789  17.499  0.00  0.00    +0.000 F 
ATOM     35  C   UNL     1       3.621   2.330  19.329  0.00  0.00    +0.000 A 
ATOM     36  N   UNL     1       3.342   3.566  19.797  0.00  0.00    +0.000 NA
ATOM     37  C   UNL     1       3.473   4.585  18.903  0.00  0.00    +0.000 A 
ENDBRANCH  24  27
ENDBRANCH   1  25
TORSDOF 5
ENDMDL
MODEL 7
REMARK VINA RESULT:      -7.8      2.362      3.344
REMARK  Name = 
REMARK  5 active torsions:
REMARK  status: ('A' for Active; 'I' for Inactive)
REMARK    1  A    between atoms: C_2  and  C_26
REMARK    2  A    between atoms: N_3  and  C_4
REMARK    3  A    between atoms: C_6  and  C_7
REMARK    4  A    between atoms: C_10  and  C_11
REMARK    5  A    between atoms: N_17  and  C_18
REMARK                            x       y       z     vdW  Elec       q    Type
REMARK                         _______ _______ _______ _____ _____    ______ ____
ROOT
ATOM      1  C   UNL     1       1.802   7.299  19.406  0.00  0.00    +0.000 C 
ATOM      2  C   UNL     1       1.483   7.295  20.930  0.00  0.00    +0.000 C 
ATOM      3  C   UNL     1       1.569   8.840  20.913  0.00  0.00    +0.000 C 
ATOM      4  C   UNL     1       1.236   8.732  19.389  0.00  0.00    +0.000 C 
ENDROOT
BRANCH   3   5
ATOM      5  C   UNL     1       0.567   9.658  21.763  0.00  0.00    +0.000 A 
ATOM      6  N   UNL     1       0.020   9.213  22.875  0.00  0.00    +0.000 NA
ATOM      7  N   UNL     1      -0.670  10.252  23.467  0.00  0.00    +0.000 NA
ATOM      8  C   UNL     1      -0.605  11.312  22.676  0.00  0.00    +0.000 A 
ATOM      9  N   UNL     1       0.244  11.008  21.610  0.00  0.00    +0.000 N 
BRANCH   9  10
ATOM     10  C   UNL     1       0.649  11.867  20.556  0.00  0.00    +0.000 A 
ATOM     11  C   UNL     1       1.869  12.541  20.641  0.00  0.00    +0.000 A 
ATOM     12  C   UNL     1       2.323  13.319  19.577  0.00  0.00    +0.000 A 
ATOM     13  C   UNL     1       1.585  13.378  18.399  0.00  0.00    +0.000 A 
ATOM     14  C   UNL     1       0.370  12.702  18.304  0.00  0.00    +0.000 A 
ATOM     15  C   UNL     1      -0.112  11.981  19.394  0.00  0.00    +0.000 A 
ATOM     16  F   UNL     1      -1.329  11.428  19.298  0.00  0.00    +0.000 F 
ENDBRANCH   9  10
BRANCH   8  17
ATOM     17  C   UNL     1      -1.393  12.554  22.825  0.00  0.00    +0.000 A 
ATOM     18  C   UNL     1      -2.704  12.681  22.399  0.00  0.00    +0.000 A 
ATOM     19  C   UNL     1      -3.387  13.864  22.641  0.00  0.00    +0.000 A 
ATOM     20  C   UNL     1      -2.740  14.908  23.322  0.00  0.00    +0.000 A 
ATOM     21  C   UNL     1      -1.434  14.708  23.695  0.00  0.00    +0.000 A 
ATOM     22  N   UNL     1      -0.737  13.581  23.449  0.00  0.00    +0.000 NA
ENDBRANCH   8  17
ENDBRANCH   3   5
BRANCH   1  25
ATOM     23  O   UNL     1       2.944   5.164  18.041  0.00  0.00    +0.000 OA
ATOM     24  C   UNL     1       3.673   6.140  18.219  0.00  0.00    +0.000 C 
ATOM     25  N   UNL     1       3.240   7.213  18.979  0.00  0.00    +0.000 N 
ATOM     26  H   UNL     1       3.842   8.035  18.976  0.00  0.00    +0.000 HD
BRANCH  24  27
ATOM     27  C   UNL     1       5.063   6.114  17.641  0.00  0.00    +0.000 A 
ATOM     28  C   UNL     1       5.839   7.238  17.962  0.00  0.00    +0.000 A 
ATOM     29  C   UNL     1       7.065   7.412  17.372  0.00  0.00    +0.000 A 
ATOM     30  N   UNL     1       7.507   6.622  16.390  0.00  0.00    +0.000 NA
ATOM     31  C   UNL     1       6.765   5.537  16.095  0.00  0.00    +0.000 A 
ATOM     32  C   UNL     1       7.120   4.816  14.976  0.00  0.00    +0.000 A 
ATOM     33  C   UNL     1       6.243   3.862  14.521  0.00  0.00    +0.000 A 
ATOM     34  F   UNL     1       5.405   4.347  13.565  0.00  0.00    +0.000 F 
ATOM     35  C   UNL     1       5.576   3.216  15.529  0.00  0.00    +0.000 A 
ATOM     36  N   UNL     1       5.064   3.905  16.572  0.00  0.00    +0.000 NA
ATOM     37  C   UNL     1       5.579   5.150  16.774  0.00  0.00    +0.000 A 
ENDBRANCH  24  27
ENDBRANCH   1  25
TORSDOF 5
ENDMDL
MODEL 8
REMARK VINA RESULT:      -7.8      0.802      1.132
REMARK  Name = 
REMARK  5 active torsions:
REMARK  status: ('A' for Active; 'I' for Inactive)
REMARK    1  A    between atoms: C_2  and  C_26
REMARK    2  A    between atoms: N_3  and  C_4
REMARK    3  A    between atoms: C_6  and  C_7
REMARK    4  A    between atoms: C_10  and  C_11
REMARK    5  A    between atoms: N_17  and  C_18
REMARK                            x       y       z     vdW  Elec       q    Type
REMARK                         _______ _______ _______ _____ _____    ______ ____
ROOT
ATOM      1  C   UNL     1       1.632   8.990  19.253  0.00  0.00    +0.000 C 
ATOM      2  C   UNL     1       0.159   9.488  19.345  0.00  0.00    +0.000 C 
ATOM      3  C   UNL     1       0.249   9.346  20.884  0.00  0.00    +0.000 C 
ATOM      4  C   UNL     1       1.794   9.499  20.698  0.00  0.00    +0.000 C 
ENDROOT
BRANCH   3   5
ATOM      5  C   UNL     1      -0.429  10.413  21.777  0.00  0.00    +0.000 A 
ATOM      6  N   UNL     1      -0.937  10.155  22.965  0.00  0.00    +0.000 NA
ATOM      7  N   UNL     1      -1.291  11.352  23.556  0.00  0.00    +0.000 NA
ATOM      8  C   UNL     1      -1.067  12.334  22.697  0.00  0.00    +0.000 A 
ATOM      9  N   UNL     1      -0.440  11.794  21.572  0.00  0.00    +0.000 N 
BRANCH   9  10
ATOM     10  C   UNL     1       0.034  12.490  20.430  0.00  0.00    +0.000 A 
ATOM     11  C   UNL     1      -0.835  12.758  19.372  0.00  0.00    +0.000 A 
ATOM     12  C   UNL     1      -0.410  13.516  18.282  0.00  0.00    +0.000 A 
ATOM     13  C   UNL     1       0.871  14.061  18.276  0.00  0.00    +0.000 A 
ATOM     14  C   UNL     1       1.741  13.805  19.333  0.00  0.00    +0.000 A 
ATOM     15  C   UNL     1       1.335  12.990  20.386  0.00  0.00    +0.000 A 
ATOM     16  F   UNL     1       2.234  12.685  21.333  0.00  0.00    +0.000 F 
ENDBRANCH   9  10
BRANCH   8  17
ATOM     17  C   UNL     1      -1.517  13.734  22.846  0.00  0.00    +0.000 A 
ATOM     18  C   UNL     1      -2.768  14.178  22.453  0.00  0.00    +0.000 A 
ATOM     19  C   UNL     1      -3.129  15.496  22.693  0.00  0.00    +0.000 A 
ATOM     20  C   UNL     1      -2.223  16.354  23.338  0.00  0.00    +0.000 A 
ATOM     21  C   UNL     1      -0.997  15.840  23.680  0.00  0.00    +0.000 A 
ATOM     22  N   UNL     1      -0.609  14.573  23.434  0.00  0.00    +0.000 NA
ENDBRANCH   8  17
ENDBRANCH   3   5
BRANCH   1  25
ATOM     23  O   UNL     1       3.566   7.845  17.619  0.00  0.00    +0.000 OA
ATOM     24  C   UNL     1       2.934   7.064  18.330  0.00  0.00    +0.000 C 
ATOM     25  N   UNL     1       1.877   7.514  19.102  0.00  0.00    +0.000 N 
ATOM     26  H   UNL     1       1.485   6.843  19.760  0.00  0.00    +0.000 HD
BRANCH  24  27
ATOM     27  C   UNL     1       3.299   5.604  18.298  0.00  0.00    +0.000 A 
ATOM     28  C   UNL     1       4.047   5.225  17.173  0.00  0.00    +0.000 A 
ATOM     29  C   UNL     1       4.310   3.898  16.944  0.00  0.00    +0.000 A 
ATOM     30  N   UNL     1       3.767   2.922  17.677  0.00  0.00    +0.000 NA
ATOM     31  C   UNL     1       3.062   3.292  18.763  0.00  0.00    +0.000 A 
ATOM     32  C   UNL     1       2.358   2.308  19.424  0.00  0.00    +0.000 A 
ATOM     33  C   UNL     1       1.447   2.697  20.374  0.00  0.00    +0.000 A 
ATOM     34  F   UNL     1       0.192   2.821  19.864  0.00  0.00    +0.000 F 
ATOM     35  C   UNL     1       1.842   3.802  21.082  0.00  0.00    +0.000 A 
ATOM     36  N   UNL     1       2.389   4.866  20.454  0.00  0.00    +0.000 NA
ATOM     37  C   UNL     1       2.889   4.630  19.209  0.00  0.00    +0.000 A 
ENDBRANCH  24  27
ENDBRANCH   1  25
TORSDOF 5
ENDMDL
MODEL 9
REMARK VINA RESULT:      -7.8      2.397      3.502
REMARK  Name = 
REMARK  5 active torsions:
REMARK  status: ('A' for Active; 'I' for Inactive)
REMARK    1  A    between atoms: C_2  and  C_26
REMARK    2  A    between atoms: N_3  and  C_4
REMARK    3  A    between atoms: C_6  and  C_7
REMARK    4  A    between atoms: C_10  and  C_11
REMARK    5  A    between atoms: N_17  and  C_18
REMARK                            x       y       z     vdW  Elec       q    Type
REMARK                         _______ _______ _______ _____ _____    ______ ____
ROOT
ATOM      1  C   UNL     1       1.200   7.502  21.563  0.00  0.00    +0.000 C 
ATOM      2  C   UNL     1       1.574   8.938  22.036  0.00  0.00    +0.000 C 
ATOM      3  C   UNL     1       0.471   9.491  21.102  0.00  0.00    +0.000 C 
ATOM      4  C   UNL     1      -0.188   8.078  21.226  0.00  0.00    +0.000 C 
ENDROOT
BRANCH   3   5
ATOM      5  C   UNL     1      -0.394  10.680  21.584  0.00  0.00    +0.000 A 
ATOM      6  N   UNL     1      -0.318  11.196  22.793  0.00  0.00    +0.000 NA
ATOM      7  N   UNL     1      -1.083  12.345  22.826  0.00  0.00    +0.000 NA
ATOM      8  C   UNL     1      -1.688  12.487  21.657  0.00  0.00    +0.000 A 
ATOM      9  N   UNL     1      -1.216  11.491  20.799  0.00  0.00    +0.000 N 
BRANCH   9  10
ATOM     10  C   UNL     1      -1.547  11.301  19.432  0.00  0.00    +0.000 A 
ATOM     11  C   UNL     1      -2.374  10.240  19.060  0.00  0.00    +0.000 A 
ATOM     12  C   UNL     1      -2.780  10.090  17.735  0.00  0.00    +0.000 A 
ATOM     13  C   UNL     1      -2.407  11.037  16.786  0.00  0.00    +0.000 A 
ATOM     14  C   UNL     1      -1.588  12.103  17.152  0.00  0.00    +0.000 A 
ATOM     15  C   UNL     1      -1.129  12.210  18.462  0.00  0.00    +0.000 A 
ATOM     16  F   UNL     1      -0.263  13.192  18.750  0.00  0.00    +0.000 F 
ENDBRANCH   9  10
BRANCH   8  17
ATOM     17  C   UNL     1      -2.767  13.451  21.351  0.00  0.00    +0.000 A 
ATOM     18  C   UNL     1      -2.539  14.788  21.079  0.00  0.00    +0.000 A 
ATOM     19  C   UNL     1      -3.608  15.605  20.737  0.00  0.00    +0.000 A 
ATOM     20  C   UNL     1      -4.899  15.058  20.663  0.00  0.00    +0.000 A 
ATOM     21  C   UNL     1      -5.042  13.726  20.965  0.00  0.00    +0.000 A 
ATOM     22  N   UNL     1      -4.027  12.917  21.328  0.00  0.00    +0.000 NA
ENDBRANCH   8  17
ENDBRANCH   3   5
BRANCH   1  25
ATOM     23  O   UNL     1       1.507   4.794  21.020  0.00  0.00    +0.000 OA
ATOM     24  C   UNL     1       1.928   5.565  20.158  0.00  0.00    +0.000 C 
ATOM     25  N   UNL     1       1.922   6.932  20.375  0.00  0.00    +0.000 N 
ATOM     26  H   UNL     1       2.163   7.513  19.573  0.00  0.00    +0.000 HD
BRANCH  24  27
ATOM     27  C   UNL     1       2.500   4.986  18.892  0.00  0.00    +0.000 A 
ATOM     28  C   UNL     1       2.198   3.630  18.694  0.00  0.00    +0.000 A 
ATOM     29  C   UNL     1       2.787   2.944  17.662  0.00  0.00    +0.000 A 
ATOM     30  N   UNL     1       3.751   3.474  16.905  0.00  0.00    +0.000 NA
ATOM     31  C   UNL     1       4.026   4.781  17.090  0.00  0.00    +0.000 A 
ATOM     32  C   UNL     1       5.129   5.291  16.440  0.00  0.00    +0.000 A 
ATOM     33  C   UNL     1       5.568   6.541  16.802  0.00  0.00    +0.000 A 
ATOM     34  F   UNL     1       6.537   6.490  17.755  0.00  0.00    +0.000 F 
ATOM     35  C   UNL     1       4.548   7.397  17.129  0.00  0.00    +0.000 A 
ATOM     36  N   UNL     1       3.522   6.987  17.905  0.00  0.00    +0.000 NA
ATOM     37  C   UNL     1       3.344   5.639  17.993  0.00  0.00    +0.000 A 
ENDBRANCH  24  27
ENDBRANCH   1  25
TORSDOF 5
ENDMDL
