MODEL 1
REMARK VINA RESULT:      -9.1      0.000      0.000
REMARK  Name = 
REMARK  5 active torsions:
REMARK  status: ('A' for Active; 'I' for Inactive)
REMARK    1  A    between atoms: C_1  and  C_2
REMARK    2  A    between atoms: C_5  and  N_6
REMARK    3  A    between atoms: N_6  and  C_7
REMARK    4  A    between atoms: C_7  and  C_8
REMARK    5  A    between atoms: C_20  and  C_21
REMARK                            x       y       z     vdW  Elec       q    Type
REMARK                         _______ _______ _______ _____ _____    ______ ____
ROOT
ATOM      1  C   UNL     1       3.278   3.579  19.484  0.00  0.00    +0.000 A 
ATOM      2  C   UNL     1       3.185   2.373  20.160  0.00  0.00    +0.000 A 
ATOM      3  C   UNL     1       2.449   2.592  21.336  0.00  0.00    +0.000 A 
ATOM      4  C   UNL     1       2.092   3.918  21.341  0.00  0.00    +0.000 A 
ATOM      5  N   UNL     1       2.535   4.535  20.176  0.00  0.00    +0.000 N 
ATOM      6  C   UNL     1       2.288   5.859  19.792  0.00  0.00    +0.000 A 
ATOM      7  N   UNL     1       2.638   6.388  18.646  0.00  0.00    +0.000 NA
ATOM      8  N   UNL     1       2.280   7.725  18.573  0.00  0.00    +0.000 NA
ATOM      9  C   UNL     1       1.709   8.170  19.681  0.00  0.00    +0.000 A 
ATOM     10  N   UNL     1       1.250   9.437  19.897  0.00  0.00    +0.000 N 
ATOM     11  C   UNL     1       1.287  10.028  21.229  0.00  0.00    +0.000 C 
ATOM     12  C   UNL     1       0.015  10.847  21.411  0.00  0.00    +0.000 C 
ATOM     13  C   UNL     1      -0.104  11.932  20.334  0.00  0.00    +0.000 C 
ATOM     14  C   UNL     1       0.051  11.313  18.929  0.00  0.00    +0.000 C 
ATOM     15  C   UNL     1       1.283  10.404  18.803  0.00  0.00    +0.000 C 
ATOM     16  S   UNL     1       1.487   6.910  20.849  0.00  0.00    +0.000 S 
ENDROOT
BRANCH  13  17
ATOM     17  C   UNL     1       0.892  13.073  20.562  0.00  0.00    +0.000 C 
ATOM     18  O   UNL     1       2.004  12.863  21.050  0.00  0.00    +0.000 OA
ATOM     19  N   UNL     1       0.509  14.344  20.189  0.00  0.00    +0.000 N 
ATOM     20  C   UNL     1      -0.725  14.773  19.557  0.00  0.00    +0.000 C 
ATOM     21  C   UNL     1      -0.280  15.918  18.670  0.00  0.00    +0.000 C 
ATOM     22  C   UNL     1       0.808  16.593  19.498  0.00  0.00    +0.000 C 
ATOM     23  C   UNL     1       1.441  15.456  20.298  0.00  0.00    +0.000 C 
ENDBRANCH  13  17
BRANCH   1  24
ATOM     24  C   UNL     1       4.065   3.875  18.244  0.00  0.00    +0.000 C 
BRANCH  24  25
ATOM     25  N   UNL     1       5.507   3.809  18.451  0.00  0.00    +0.000 N 
ATOM     26  H   UNL     1       5.913   3.105  17.835  0.00  0.00    +0.000 HD
BRANCH  25  31
ATOM     27  C   UNL     1       8.261   8.776  17.645  0.00  0.00    +0.000 C 
ATOM     28  C   UNL     1       7.524   7.493  17.886  0.00  0.00    +0.000 A 
ATOM     29  C   UNL     1       6.363   7.177  17.177  0.00  0.00    +0.000 A 
ATOM     30  C   UNL     1       5.717   5.954  17.388  0.00  0.00    +0.000 A 
ATOM     31  C   UNL     1       6.227   5.006  18.281  0.00  0.00    +0.000 A 
ATOM     32  C   UNL     1       7.347   5.363  19.040  0.00  0.00    +0.000 A 
ATOM     33  C   UNL     1       7.997   6.584  18.838  0.00  0.00    +0.000 A 
ENDBRANCH  25  31
ENDBRANCH  24  25
ENDBRANCH   1  24
TORSDOF 4
ENDMDL
MODEL 2
REMARK VINA RESULT:      -9.0      1.309      1.428
REMARK  Name = 
REMARK  5 active torsions:
REMARK  status: ('A' for Active; 'I' for Inactive)
REMARK    1  A    between atoms: C_1  and  C_2
REMARK    2  A    between atoms: C_5  and  N_6
REMARK    3  A    between atoms: N_6  and  C_7
REMARK    4  A    between atoms: C_7  and  C_8
REMARK    5  A    between atoms: C_20  and  C_21
REMARK                            x       y       z     vdW  Elec       q    Type
REMARK                         _______ _______ _______ _____ _____    ______ ____
ROOT
ATOM      1  C   UNL     1       3.773   3.423  18.523  0.00  0.00    +0.000 A 
ATOM      2  C   UNL     1       3.871   2.155  19.072  0.00  0.00    +0.000 A 
ATOM      3  C   UNL     1       3.251   2.179  20.332  0.00  0.00    +0.000 A 
ATOM      4  C   UNL     1       2.769   3.453  20.514  0.00  0.00    +0.000 A 
ATOM      5  N   UNL     1       3.022   4.223  19.384  0.00  0.00    +0.000 N 
ATOM      6  C   UNL     1       2.607   5.544  19.170  0.00  0.00    +0.000 A 
ATOM      7  N   UNL     1       2.777   6.215  18.057  0.00  0.00    +0.000 NA
ATOM      8  N   UNL     1       2.286   7.507  18.164  0.00  0.00    +0.000 NA
ATOM      9  C   UNL     1       1.798   7.779  19.364  0.00  0.00    +0.000 A 
ATOM     10  N   UNL     1       1.245   8.963  19.758  0.00  0.00    +0.000 N 
ATOM     11  C   UNL     1       1.370   9.423  21.136  0.00  0.00    +0.000 C 
ATOM     12  C   UNL     1       0.052  10.080  21.528  0.00  0.00    +0.000 C 
ATOM     13  C   UNL     1      -0.288  11.244  20.591  0.00  0.00    +0.000 C 
ATOM     14  C   UNL     1      -0.228  10.783  19.119  0.00  0.00    +0.000 C 
ATOM     15  C   UNL     1       1.065  10.028  18.776  0.00  0.00    +0.000 C 
ATOM     16  S   UNL     1       1.828   6.396  20.406  0.00  0.00    +0.000 S 
ENDROOT
BRANCH  13  17
ATOM     17  C   UNL     1       0.612  12.458  20.841  0.00  0.00    +0.000 C 
ATOM     18  O   UNL     1       1.680  12.596  20.242  0.00  0.00    +0.000 OA
ATOM     19  N   UNL     1       0.179  13.403  21.746  0.00  0.00    +0.000 N 
ATOM     20  C   UNL     1      -1.061  13.440  22.499  0.00  0.00    +0.000 C 
ATOM     21  C   UNL     1      -1.367  14.921  22.593  0.00  0.00    +0.000 C 
ATOM     22  C   UNL     1       0.015  15.548  22.743  0.00  0.00    +0.000 C 
ATOM     23  C   UNL     1       0.944  14.621  21.963  0.00  0.00    +0.000 C 
ENDBRANCH  13  17
BRANCH   1  24
ATOM     24  C   UNL     1       4.388   3.920  17.251  0.00  0.00    +0.000 C 
BRANCH  24  25
ATOM     25  N   UNL     1       5.845   3.880  17.264  0.00  0.00    +0.000 N 
ATOM     26  H   UNL     1       6.190   3.498  16.384  0.00  0.00    +0.000 HD
BRANCH  25  31
ATOM     27  C   UNL     1       8.402   8.946  18.100  0.00  0.00    +0.000 C 
ATOM     28  C   UNL     1       7.710   7.630  17.910  0.00  0.00    +0.000 A 
ATOM     29  C   UNL     1       6.762   7.447  16.901  0.00  0.00    +0.000 A 
ATOM     30  C   UNL     1       6.160   6.198  16.714  0.00  0.00    +0.000 A 
ATOM     31  C   UNL     1       6.511   5.097  17.502  0.00  0.00    +0.000 A 
ATOM     32  C   UNL     1       7.406   5.309  18.556  0.00  0.00    +0.000 A 
ATOM     33  C   UNL     1       8.009   6.556  18.752  0.00  0.00    +0.000 A 
ENDBRANCH  25  31
ENDBRANCH  24  25
ENDBRANCH   1  24
TORSDOF 4
ENDMDL
MODEL 3
REMARK VINA RESULT:      -8.8      3.353      9.566
REMARK  Name = 
REMARK  5 active torsions:
REMARK  status: ('A' for Active; 'I' for Inactive)
REMARK    1  A    between atoms: C_1  and  C_2
REMARK    2  A    between atoms: C_5  and  N_6
REMARK    3  A    between atoms: N_6  and  C_7
REMARK    4  A    between atoms: C_7  and  C_8
REMARK    5  A    between atoms: C_20  and  C_21
REMARK                            x       y       z     vdW  Elec       q    Type
REMARK                         _______ _______ _______ _____ _____    ______ ____
ROOT
ATOM      1  C   UNL     1      -0.967  11.223  21.147  0.00  0.00    +0.000 A 
ATOM      2  C   UNL     1      -1.567  11.482  22.369  0.00  0.00    +0.000 A 
ATOM      3  C   UNL     1      -1.154  10.490  23.273  0.00  0.00    +0.000 A 
ATOM      4  C   UNL     1      -0.295   9.662  22.591  0.00  0.00    +0.000 A 
ATOM      5  N   UNL     1      -0.112  10.131  21.295  0.00  0.00    +0.000 N 
ATOM      6  C   UNL     1       0.754   9.596  20.333  0.00  0.00    +0.000 A 
ATOM      7  N   UNL     1       0.978  10.113  19.150  0.00  0.00    +0.000 NA
ATOM      8  N   UNL     1       1.862   9.338  18.416  0.00  0.00    +0.000 NA
ATOM      9  C   UNL     1       2.245   8.243  19.054  0.00  0.00    +0.000 A 
ATOM     10  N   UNL     1       3.110   7.299  18.582  0.00  0.00    +0.000 N 
ATOM     11  C   UNL     1       2.963   5.898  18.958  0.00  0.00    +0.000 C 
ATOM     12  C   UNL     1       4.359   5.320  19.155  0.00  0.00    +0.000 C 
ATOM     13  C   UNL     1       5.202   5.460  17.882  0.00  0.00    +0.000 C 
ATOM     14  C   UNL     1       5.189   6.922  17.388  0.00  0.00    +0.000 C 
ATOM     15  C   UNL     1       3.776   7.517  17.302  0.00  0.00    +0.000 C 
ATOM     16  S   UNL     1       1.601   8.168  20.659  0.00  0.00    +0.000 S 
ENDROOT
BRANCH  13  17
ATOM     17  C   UNL     1       4.747   4.489  16.788  0.00  0.00    +0.000 C 
ATOM     18  O   UNL     1       3.646   3.937  16.840  0.00  0.00    +0.000 OA
ATOM     19  N   UNL     1       5.604   4.265  15.732  0.00  0.00    +0.000 N 
ATOM     20  C   UNL     1       6.902   4.859  15.472  0.00  0.00    +0.000 C 
ATOM     21  C   UNL     1       6.947   4.948  13.960  0.00  0.00    +0.000 C 
ATOM     22  C   UNL     1       6.225   3.679  13.519  0.00  0.00    +0.000 C 
ATOM     23  C   UNL     1       5.195   3.423  14.617  0.00  0.00    +0.000 C 
ENDBRANCH  13  17
BRANCH   1  24
ATOM     24  C   UNL     1      -1.194  11.931  19.847  0.00  0.00    +0.000 C 
BRANCH  24  25
ATOM     25  N   UNL     1      -2.600  11.985  19.462  0.00  0.00    +0.000 N 
ATOM     26  H   UNL     1      -2.947  12.940  19.550  0.00  0.00    +0.000 HD
BRANCH  25  31
ATOM     27  C   UNL     1      -3.738   9.939  14.226  0.00  0.00    +0.000 C 
ATOM     28  C   UNL     1      -3.462  10.446  15.609  0.00  0.00    +0.000 A 
ATOM     29  C   UNL     1      -2.261  10.157  16.262  0.00  0.00    +0.000 A 
ATOM     30  C   UNL     1      -2.006  10.676  17.536  0.00  0.00    +0.000 A 
ATOM     31  C   UNL     1      -2.922  11.521  18.173  0.00  0.00    +0.000 A 
ATOM     32  C   UNL     1      -4.151  11.742  17.543  0.00  0.00    +0.000 A 
ATOM     33  C   UNL     1      -4.415  11.224  16.272  0.00  0.00    +0.000 A 
ENDBRANCH  25  31
ENDBRANCH  24  25
ENDBRANCH   1  24
TORSDOF 4
ENDMDL
MODEL 4
REMARK VINA RESULT:      -8.7      1.098      1.481
REMARK  Name = 
REMARK  5 active torsions:
REMARK  status: ('A' for Active; 'I' for Inactive)
REMARK    1  A    between atoms: C_1  and  C_2
REMARK    2  A    between atoms: C_5  and  N_6
REMARK    3  A    between atoms: N_6  and  C_7
REMARK    4  A    between atoms: C_7  and  C_8
REMARK    5  A    between atoms: C_20  and  C_21
REMARK                            x       y       z     vdW  Elec       q    Type
REMARK                         _______ _______ _______ _____ _____    ______ ____
ROOT
ATOM      1  C   UNL     1       3.943   3.256  17.977  0.00  0.00    +0.000 A 
ATOM      2  C   UNL     1       3.820   1.918  18.312  0.00  0.00    +0.000 A 
ATOM      3  C   UNL     1       2.857   1.813  19.329  0.00  0.00    +0.000 A 
ATOM      4  C   UNL     1       2.398   3.084  19.576  0.00  0.00    +0.000 A 
ATOM      5  N   UNL     1       3.006   3.986  18.709  0.00  0.00    +0.000 N 
ATOM      6  C   UNL     1       2.731   5.356  18.609  0.00  0.00    +0.000 A 
ATOM      7  N   UNL     1       3.251   6.164  17.719  0.00  0.00    +0.000 NA
ATOM      8  N   UNL     1       2.806   7.466  17.895  0.00  0.00    +0.000 NA
ATOM      9  C   UNL     1       1.998   7.601  18.934  0.00  0.00    +0.000 A 
ATOM     10  N   UNL     1       1.405   8.760  19.346  0.00  0.00    +0.000 N 
ATOM     11  C   UNL     1       1.137   9.000  20.759  0.00  0.00    +0.000 C 
ATOM     12  C   UNL     1      -0.208   9.708  20.864  0.00  0.00    +0.000 C 
ATOM     13  C   UNL     1      -0.205  11.023  20.076  0.00  0.00    +0.000 C 
ATOM     14  C   UNL     1       0.266  10.779  18.627  0.00  0.00    +0.000 C 
ATOM     15  C   UNL     1       1.569   9.970  18.545  0.00  0.00    +0.000 C 
ATOM     16  S   UNL     1       1.659   6.084  19.696  0.00  0.00    +0.000 S 
ENDROOT
BRANCH  13  17
ATOM     17  C   UNL     1       0.632  12.102  20.770  0.00  0.00    +0.000 C 
ATOM     18  O   UNL     1       1.662  11.815  21.382  0.00  0.00    +0.000 OA
ATOM     19  N   UNL     1       0.203  13.408  20.674  0.00  0.00    +0.000 N 
ATOM     20  C   UNL     1      -0.943  13.939  19.959  0.00  0.00    +0.000 C 
ATOM     21  C   UNL     1      -0.463  15.299  19.495  0.00  0.00    +0.000 C 
ATOM     22  C   UNL     1       0.408  15.771  20.655  0.00  0.00    +0.000 C 
ATOM     23  C   UNL     1       0.999  14.488  21.235  0.00  0.00    +0.000 C 
ENDBRANCH  13  17
BRANCH   1  24
ATOM     24  C   UNL     1       4.927   3.877  17.034  0.00  0.00    +0.000 C 
BRANCH  24  25
ATOM     25  N   UNL     1       6.262   4.010  17.603  0.00  0.00    +0.000 N 
ATOM     26  H   UNL     1       6.927   3.458  17.061  0.00  0.00    +0.000 HD
BRANCH  25  31
ATOM     27  C   UNL     1       8.507   9.249  18.242  0.00  0.00    +0.000 C 
ATOM     28  C   UNL     1       7.947   7.872  18.049  0.00  0.00    +0.000 A 
ATOM     29  C   UNL     1       8.250   6.834  18.933  0.00  0.00    +0.000 A 
ATOM     30  C   UNL     1       7.682   5.568  18.757  0.00  0.00    +0.000 A 
ATOM     31  C   UNL     1       6.774   5.315  17.723  0.00  0.00    +0.000 A 
ATOM     32  C   UNL     1       6.536   6.340  16.802  0.00  0.00    +0.000 A 
ATOM     33  C   UNL     1       7.103   7.607  16.968  0.00  0.00    +0.000 A 
ENDBRANCH  25  31
ENDBRANCH  24  25
ENDBRANCH   1  24
TORSDOF 4
ENDMDL
MODEL 5
REMARK VINA RESULT:      -8.7      0.653      1.071
REMARK  Name = 
REMARK  5 active torsions:
REMARK  status: ('A' for Active; 'I' for Inactive)
REMARK    1  A    between atoms: C_1  and  C_2
REMARK    2  A    between atoms: C_5  and  N_6
REMARK    3  A    between atoms: N_6  and  C_7
REMARK    4  A    between atoms: C_7  and  C_8
REMARK    5  A    between atoms: C_20  and  C_21
REMARK                            x       y       z     vdW  Elec       q    Type
REMARK                         _______ _______ _______ _____ _____    ______ ____
ROOT
ATOM      1  C   UNL     1       3.466   3.718  19.518  0.00  0.00    +0.000 A 
ATOM      2  C   UNL     1       3.443   2.543  20.251  0.00  0.00    +0.000 A 
ATOM      3  C   UNL     1       2.710   2.779  21.425  0.00  0.00    +0.000 A 
ATOM      4  C   UNL     1       2.283   4.084  21.372  0.00  0.00    +0.000 A 
ATOM      5  N   UNL     1       2.682   4.667  20.174  0.00  0.00    +0.000 N 
ATOM      6  C   UNL     1       2.363   5.956  19.732  0.00  0.00    +0.000 A 
ATOM      7  N   UNL     1       2.673   6.447  18.557  0.00  0.00    +0.000 NA
ATOM      8  N   UNL     1       2.245   7.760  18.427  0.00  0.00    +0.000 NA
ATOM      9  C   UNL     1       1.662   8.226  19.519  0.00  0.00    +0.000 A 
ATOM     10  N   UNL     1       1.141   9.477  19.681  0.00  0.00    +0.000 N 
ATOM     11  C   UNL     1       1.160  10.132  20.983  0.00  0.00    +0.000 C 
ATOM     12  C   UNL     1      -0.150  10.892  21.143  0.00  0.00    +0.000 C 
ATOM     13  C   UNL     1      -0.337  11.916  20.018  0.00  0.00    +0.000 C 
ATOM     14  C   UNL     1      -0.164  11.240  18.642  0.00  0.00    +0.000 C 
ATOM     15  C   UNL     1       1.112  10.391  18.543  0.00  0.00    +0.000 C 
ATOM     16  S   UNL     1       1.519   7.014  20.747  0.00  0.00    +0.000 S 
ENDROOT
BRANCH  13  17
ATOM     17  C   UNL     1       0.600  13.117  20.179  0.00  0.00    +0.000 C 
ATOM     18  O   UNL     1       1.804  13.026  19.932  0.00  0.00    +0.000 OA
ATOM     19  N   UNL     1       0.050  14.310  20.597  0.00  0.00    +0.000 N 
ATOM     20  C   UNL     1      -1.339  14.621  20.881  0.00  0.00    +0.000 C 
ATOM     21  C   UNL     1      -1.467  16.067  20.448  0.00  0.00    +0.000 C 
ATOM     22  C   UNL     1      -0.118  16.663  20.838  0.00  0.00    +0.000 C 
ATOM     23  C   UNL     1       0.869  15.509  20.685  0.00  0.00    +0.000 C 
ENDBRANCH  13  17
BRANCH   1  24
ATOM     24  C   UNL     1       4.224   3.995  18.256  0.00  0.00    +0.000 C 
BRANCH  24  25
ATOM     25  N   UNL     1       5.669   4.035  18.451  0.00  0.00    +0.000 N 
ATOM     26  H   UNL     1       6.121   3.364  17.831  0.00  0.00    +0.000 HD
BRANCH  25  31
ATOM     27  C   UNL     1       8.416   9.037  17.868  0.00  0.00    +0.000 C 
ATOM     28  C   UNL     1       7.716   7.716  17.991  0.00  0.00    +0.000 A 
ATOM     29  C   UNL     1       8.134   6.756  18.915  0.00  0.00    +0.000 A 
ATOM     30  C   UNL     1       7.440   5.548  19.042  0.00  0.00    +0.000 A 
ATOM     31  C   UNL     1       6.298   5.282  18.279  0.00  0.00    +0.000 A 
ATOM     32  C   UNL     1       5.933   6.217  17.305  0.00  0.00    +0.000 A 
ATOM     33  C   UNL     1       6.624   7.426  17.169  0.00  0.00    +0.000 A 
ENDBRANCH  25  31
ENDBRANCH  24  25
ENDBRANCH   1  24
TORSDOF 4
ENDMDL
MODEL 6
REMARK VINA RESULT:      -8.4      3.532     10.003
REMARK  Name = 
REMARK  5 active torsions:
REMARK  status: ('A' for Active; 'I' for Inactive)
REMARK    1  A    between atoms: C_1  and  C_2
REMARK    2  A    between atoms: C_5  and  N_6
REMARK    3  A    between atoms: N_6  and  C_7
REMARK    4  A    between atoms: C_7  and  C_8
REMARK    5  A    between atoms: C_20  and  C_21
REMARK                            x       y       z     vdW  Elec       q    Type
REMARK                         _______ _______ _______ _____ _____    ______ ____
ROOT
ATOM      1  C   UNL     1      -0.855  11.155  21.032  0.00  0.00    +0.000 A 
ATOM      2  C   UNL     1      -1.477  11.406  22.244  0.00  0.00    +0.000 A 
ATOM      3  C   UNL     1      -1.101  10.393  23.141  0.00  0.00    +0.000 A 
ATOM      4  C   UNL     1      -0.243   9.560  22.465  0.00  0.00    +0.000 A 
ATOM      5  N   UNL     1      -0.023  10.045  21.180  0.00  0.00    +0.000 N 
ATOM      6  C   UNL     1       0.854   9.509  20.229  0.00  0.00    +0.000 A 
ATOM      7  N   UNL     1       1.112  10.040  19.060  0.00  0.00    +0.000 NA
ATOM      8  N   UNL     1       1.999   9.260  18.333  0.00  0.00    +0.000 NA
ATOM      9  C   UNL     1       2.348   8.149  18.961  0.00  0.00    +0.000 A 
ATOM     10  N   UNL     1       3.207   7.196  18.494  0.00  0.00    +0.000 N 
ATOM     11  C   UNL     1       3.027   5.793  18.845  0.00  0.00    +0.000 C 
ATOM     12  C   UNL     1       4.408   5.187  19.063  0.00  0.00    +0.000 C 
ATOM     13  C   UNL     1       5.280   5.331  17.811  0.00  0.00    +0.000 C 
ATOM     14  C   UNL     1       5.304   6.800  17.339  0.00  0.00    +0.000 C 
ATOM     15  C   UNL     1       3.904   7.422  17.232  0.00  0.00    +0.000 C 
ATOM     16  S   UNL     1       1.669   8.061  20.552  0.00  0.00    +0.000 S 
ENDROOT
BRANCH  13  17
ATOM     17  C   UNL     1       4.832   4.385  16.692  0.00  0.00    +0.000 C 
ATOM     18  O   UNL     1       3.739   3.818  16.735  0.00  0.00    +0.000 OA
ATOM     19  N   UNL     1       5.686   4.201  15.626  0.00  0.00    +0.000 N 
ATOM     20  C   UNL     1       6.976   4.819  15.377  0.00  0.00    +0.000 C 
ATOM     21  C   UNL     1       7.012   4.950  13.868  0.00  0.00    +0.000 C 
ATOM     22  C   UNL     1       6.303   3.685  13.395  0.00  0.00    +0.000 C 
ATOM     23  C   UNL     1       5.283   3.386  14.491  0.00  0.00    +0.000 C 
ENDBRANCH  13  17
BRANCH   1  24
ATOM     24  C   UNL     1      -1.042  11.886  19.738  0.00  0.00    +0.000 C 
BRANCH  24  25
ATOM     25  N   UNL     1      -1.711  11.087  18.719  0.00  0.00    +0.000 N 
ATOM     26  H   UNL     1      -1.702  10.103  18.988  0.00  0.00    +0.000 HD
BRANCH  25  31
ATOM     27  C   UNL     1      -7.117  12.665  17.625  0.00  0.00    +0.000 C 
ATOM     28  C   UNL     1      -5.692  12.284  17.893  0.00  0.00    +0.000 A 
ATOM     29  C   UNL     1      -5.098  12.519  19.135  0.00  0.00    +0.000 A 
ATOM     30  C   UNL     1      -3.780  12.116  19.377  0.00  0.00    +0.000 A 
ATOM     31  C   UNL     1      -3.036  11.441  18.404  0.00  0.00    +0.000 A 
ATOM     32  C   UNL     1      -3.614  11.277  17.141  0.00  0.00    +0.000 A 
ATOM     33  C   UNL     1      -4.929  11.680  16.890  0.00  0.00    +0.000 A 
ENDBRANCH  25  31
ENDBRANCH  24  25
ENDBRANCH   1  24
TORSDOF 4
ENDMDL
MODEL 7
REMARK VINA RESULT:      -8.2      2.998      3.613
REMARK  Name = 
REMARK  5 active torsions:
REMARK  status: ('A' for Active; 'I' for Inactive)
REMARK    1  A    between atoms: C_1  and  C_2
REMARK    2  A    between atoms: C_5  and  N_6
REMARK    3  A    between atoms: N_6  and  C_7
REMARK    4  A    between atoms: C_7  and  C_8
REMARK    5  A    between atoms: C_20  and  C_21
REMARK                            x       y       z     vdW  Elec       q    Type
REMARK                         _______ _______ _______ _____ _____    ______ ____
ROOT
ATOM      1  C   UNL     1       3.073   5.728  19.066  0.00  0.00    +0.000 A 
ATOM      2  C   UNL     1       3.216   4.368  19.288  0.00  0.00    +0.000 A 
ATOM      3  C   UNL     1       2.445   4.030  20.412  0.00  0.00    +0.000 A 
ATOM      4  C   UNL     1       1.833   5.184  20.837  0.00  0.00    +0.000 A 
ATOM      5  N   UNL     1       2.153   6.235  19.984  0.00  0.00    +0.000 N 
ATOM      6  C   UNL     1       1.652   7.541  20.051  0.00  0.00    +0.000 A 
ATOM      7  N   UNL     1       1.898   8.487  19.177  0.00  0.00    +0.000 NA
ATOM      8  N   UNL     1       1.284   9.678  19.534  0.00  0.00    +0.000 NA
ATOM      9  C   UNL     1       0.629   9.601  20.681  0.00  0.00    +0.000 A 
ATOM     10  N   UNL     1      -0.071  10.610  21.277  0.00  0.00    +0.000 N 
ATOM     11  C   UNL     1      -0.159  10.702  22.729  0.00  0.00    +0.000 C 
ATOM     12  C   UNL     1      -1.568  11.160  23.082  0.00  0.00    +0.000 C 
ATOM     13  C   UNL     1      -1.893  12.508  22.428  0.00  0.00    +0.000 C 
ATOM     14  C   UNL     1      -1.611  12.450  20.912  0.00  0.00    +0.000 C 
ATOM     15  C   UNL     1      -0.223  11.882  20.578  0.00  0.00    +0.000 C 
ATOM     16  S   UNL     1       0.654   7.998  21.337  0.00  0.00    +0.000 S 
ENDROOT
BRANCH  13  17
ATOM     17  C   UNL     1      -1.143  13.663  23.099  0.00  0.00    +0.000 C 
ATOM     18  O   UNL     1       0.010  13.951  22.773  0.00  0.00    +0.000 OA
ATOM     19  N   UNL     1      -1.806  14.381  24.070  0.00  0.00    +0.000 N 
ATOM     20  C   UNL     1      -3.169  14.226  24.545  0.00  0.00    +0.000 C 
ATOM     21  C   UNL     1      -3.586  15.646  24.874  0.00  0.00    +0.000 C 
ATOM     22  C   UNL     1      -2.305  16.260  25.429  0.00  0.00    +0.000 C 
ATOM     23  C   UNL     1      -1.182  15.544  24.683  0.00  0.00    +0.000 C 
ENDBRANCH  13  17
BRANCH   1  24
ATOM     24  C   UNL     1       3.794   6.572  18.059  0.00  0.00    +0.000 C 
BRANCH  24  25
ATOM     25  N   UNL     1       5.169   6.144  17.831  0.00  0.00    +0.000 N 
ATOM     26  H   UNL     1       5.486   5.566  18.610  0.00  0.00    +0.000 HD
BRANCH  25  31
ATOM     27  C   UNL     1       6.207   3.500  12.848  0.00  0.00    +0.000 C 
ATOM     28  C   UNL     1       5.972   4.198  14.153  0.00  0.00    +0.000 A 
ATOM     29  C   UNL     1       5.505   5.514  14.200  0.00  0.00    +0.000 A 
ATOM     30  C   UNL     1       5.252   6.131  15.430  0.00  0.00    +0.000 A 
ATOM     31  C   UNL     1       5.425   5.446  16.637  0.00  0.00    +0.000 A 
ATOM     32  C   UNL     1       5.964   4.156  16.581  0.00  0.00    +0.000 A 
ATOM     33  C   UNL     1       6.223   3.533  15.356  0.00  0.00    +0.000 A 
ENDBRANCH  25  31
ENDBRANCH  24  25
ENDBRANCH   1  24
TORSDOF 4
ENDMDL
MODEL 8
REMARK VINA RESULT:      -8.1      1.504      1.812
REMARK  Name = 
REMARK  5 active torsions:
REMARK  status: ('A' for Active; 'I' for Inactive)
REMARK    1  A    between atoms: C_1  and  C_2
REMARK    2  A    between atoms: C_5  and  N_6
REMARK    3  A    between atoms: N_6  and  C_7
REMARK    4  A    between atoms: C_7  and  C_8
REMARK    5  A    between atoms: C_20  and  C_21
REMARK                            x       y       z     vdW  Elec       q    Type
REMARK                         _______ _______ _______ _____ _____    ______ ____
ROOT
ATOM      1  C   UNL     1       3.056   3.797  19.342  0.00  0.00    +0.000 A 
ATOM      2  C   UNL     1       3.049   2.584  20.012  0.00  0.00    +0.000 A 
ATOM      3  C   UNL     1       2.468   2.789  21.274  0.00  0.00    +0.000 A 
ATOM      4  C   UNL     1       2.112   4.115  21.338  0.00  0.00    +0.000 A 
ATOM      5  N   UNL     1       2.405   4.744  20.133  0.00  0.00    +0.000 N 
ATOM      6  C   UNL     1       2.111   6.072  19.797  0.00  0.00    +0.000 A 
ATOM      7  N   UNL     1       2.313   6.613  18.621  0.00  0.00    +0.000 NA
ATOM      8  N   UNL     1       1.948   7.950  18.608  0.00  0.00    +0.000 NA
ATOM      9  C   UNL     1       1.520   8.382  19.783  0.00  0.00    +0.000 A 
ATOM     10  N   UNL     1       1.091   9.646  20.068  0.00  0.00    +0.000 N 
ATOM     11  C   UNL     1       1.295  10.223  21.391  0.00  0.00    +0.000 C 
ATOM     12  C   UNL     1       0.055  11.037  21.740  0.00  0.00    +0.000 C 
ATOM     13  C   UNL     1      -0.199  12.133  20.699  0.00  0.00    +0.000 C 
ATOM     14  C   UNL     1      -0.222  11.529  19.279  0.00  0.00    +0.000 C 
ATOM     15  C   UNL     1       0.985  10.624  18.989  0.00  0.00    +0.000 C 
ATOM     16  S   UNL     1       1.448   7.110  20.956  0.00  0.00    +0.000 S 
ENDROOT
BRANCH  13  17
ATOM     17  C   UNL     1       0.816  13.274  20.812  0.00  0.00    +0.000 C 
ATOM     18  O   UNL     1       1.944  13.083  21.270  0.00  0.00    +0.000 OA
ATOM     19  N   UNL     1       0.432  14.521  20.368  0.00  0.00    +0.000 N 
ATOM     20  C   UNL     1      -0.820  14.923  19.754  0.00  0.00    +0.000 C 
ATOM     21  C   UNL     1      -0.398  16.000  18.775  0.00  0.00    +0.000 C 
ATOM     22  C   UNL     1       0.728  16.715  19.515  0.00  0.00    +0.000 C 
ATOM     23  C   UNL     1       1.379  15.626  20.366  0.00  0.00    +0.000 C 
ENDBRANCH  13  17
BRANCH   1  24
ATOM     24  C   UNL     1       3.680   4.107  18.017  0.00  0.00    +0.000 C 
BRANCH  24  25
ATOM     25  N   UNL     1       5.117   3.862  17.988  0.00  0.00    +0.000 N 
ATOM     26  H   UNL     1       5.307   2.887  18.218  0.00  0.00    +0.000 HD
BRANCH  25  31
ATOM     27  C   UNL     1       7.650   5.100  12.993  0.00  0.00    +0.000 C 
ATOM     28  C   UNL     1       6.981   4.813  14.303  0.00  0.00    +0.000 A 
ATOM     29  C   UNL     1       5.665   4.348  14.360  0.00  0.00    +0.000 A 
ATOM     30  C   UNL     1       5.075   4.046  15.593  0.00  0.00    +0.000 A 
ATOM     31  C   UNL     1       5.789   4.167  16.790  0.00  0.00    +0.000 A 
ATOM     32  C   UNL     1       7.079   4.704  16.727  0.00  0.00    +0.000 A 
ATOM     33  C   UNL     1       7.674   5.012  15.500  0.00  0.00    +0.000 A 
ENDBRANCH  25  31
ENDBRANCH  24  25
ENDBRANCH   1  24
TORSDOF 4
ENDMDL
MODEL 9
REMARK VINA RESULT:      -8.1      3.741      9.981
REMARK  Name = 
REMARK  5 active torsions:
REMARK  status: ('A' for Active; 'I' for Inactive)
REMARK    1  A    between atoms: C_1  and  C_2
REMARK    2  A    between atoms: C_5  and  N_6
REMARK    3  A    between atoms: N_6  and  C_7
REMARK    4  A    between atoms: C_7  and  C_8
REMARK    5  A    between atoms: C_20  and  C_21
REMARK                            x       y       z     vdW  Elec       q    Type
REMARK                         _______ _______ _______ _____ _____    ______ ____
ROOT
ATOM      1  C   UNL     1      -0.264  10.339  20.518  0.00  0.00    +0.000 A 
ATOM      2  C   UNL     1      -0.864  10.460  21.761  0.00  0.00    +0.000 A 
ATOM      3  C   UNL     1      -0.431   9.387  22.557  0.00  0.00    +0.000 A 
ATOM      4  C   UNL     1       0.439   8.649  21.792  0.00  0.00    +0.000 A 
ATOM      5  N   UNL     1       0.610   9.252  20.551  0.00  0.00    +0.000 N 
ATOM      6  C   UNL     1       1.482   8.833  19.537  0.00  0.00    +0.000 A 
ATOM      7  N   UNL     1       1.692   9.474  18.414  0.00  0.00    +0.000 NA
ATOM      8  N   UNL     1       2.587   8.794  17.602  0.00  0.00    +0.000 NA
ATOM      9  C   UNL     1       2.990   7.646  18.123  0.00  0.00    +0.000 A 
ATOM     10  N   UNL     1       3.870   6.770  17.555  0.00  0.00    +0.000 N 
ATOM     11  C   UNL     1       3.748   5.335  17.784  0.00  0.00    +0.000 C 
ATOM     12  C   UNL     1       5.154   4.764  17.919  0.00  0.00    +0.000 C 
ATOM     13  C   UNL     1       5.989   5.049  16.665  0.00  0.00    +0.000 C 
ATOM     14  C   UNL     1       5.951   6.553  16.325  0.00  0.00    +0.000 C 
ATOM     15  C   UNL     1       4.528   7.130  16.302  0.00  0.00    +0.000 C 
ATOM     16  S   UNL     1       2.354   7.395  19.713  0.00  0.00    +0.000 S 
ENDROOT
BRANCH  13  17
ATOM     17  C   UNL     1       5.547   4.188  15.478  0.00  0.00    +0.000 C 
ATOM     18  O   UNL     1       4.491   3.554  15.506  0.00  0.00    +0.000 OA
ATOM     19  N   UNL     1       6.363   4.159  14.367  0.00  0.00    +0.000 N 
ATOM     20  C   UNL     1       7.603   4.875  14.130  0.00  0.00    +0.000 C 
ATOM     21  C   UNL     1       7.565   5.152  12.641  0.00  0.00    +0.000 C 
ATOM     22  C   UNL     1       6.909   3.897  12.074  0.00  0.00    +0.000 C 
ATOM     23  C   UNL     1       5.957   3.433  13.174  0.00  0.00    +0.000 C 
ENDBRANCH  13  17
BRANCH   1  24
ATOM     24  C   UNL     1      -0.508  11.173  19.299  0.00  0.00    +0.000 C 
BRANCH  24  25
ATOM     25  N   UNL     1      -1.252  10.469  18.261  0.00  0.00    +0.000 N 
ATOM     26  H   UNL     1      -1.302   9.475  18.485  0.00  0.00    +0.000 HD
BRANCH  25  31
ATOM     27  C   UNL     1      -6.561  12.453  17.380  0.00  0.00    +0.000 C 
ATOM     28  C   UNL     1      -5.160  11.965  17.592  0.00  0.00    +0.000 A 
ATOM     29  C   UNL     1      -4.502  12.153  18.809  0.00  0.00    +0.000 A 
ATOM     30  C   UNL     1      -3.209  11.651  19.000  0.00  0.00    +0.000 A 
ATOM     31  C   UNL     1      -2.558  10.922  17.999  0.00  0.00    +0.000 A 
ATOM     32  C   UNL     1      -3.196  10.804  16.760  0.00  0.00    +0.000 A 
ATOM     33  C   UNL     1      -4.486  11.306  16.560  0.00  0.00    +0.000 A 
ENDBRANCH  25  31
ENDBRANCH  24  25
ENDBRANCH   1  24
TORSDOF 4
ENDMDL
