MODEL 1
REMARK VINA RESULT:      -8.3      0.000      0.000
REMARK  Name = 
REMARK  7 active torsions:
REMARK  status: ('A' for Active; 'I' for Inactive)
REMARK    1  A    between atoms: C_2  and  C_3
REMARK    2  A    between atoms: C_3  and  C_4
REMARK    3  A    between atoms: C_4  and  C_5
REMARK    4  A    between atoms: C_5  and  C_6
REMARK    5  A    between atoms: C_6  and  C_7
REMARK    6  A    between atoms: C_7  and  N_8
REMARK    7  A    between atoms: N_26  and  C_27
REMARK                            x       y       z     vdW  Elec       q    Type
REMARK                         _______ _______ _______ _____ _____    ______ ____
ROOT
ATOM      1  C   UNL     1       8.514  11.165  17.901  0.00  0.00    +0.000 C 
ENDROOT
BRANCH   1   2
ATOM      2  C   UNL     1       8.900   9.702  18.180  0.00  0.00    +0.000 C 
BRANCH   2   3
ATOM      3  C   UNL     1       7.840   8.753  17.635  0.00  0.00    +0.000 C 
BRANCH   3   4
ATOM      4  C   UNL     1       7.878   7.327  18.183  0.00  0.00    +0.000 C 
BRANCH   4   6
ATOM      5  O   UNL     1       7.754   6.091  16.123  0.00  0.00    +0.000 OA
ATOM      6  C   UNL     1       7.188   6.416  17.170  0.00  0.00    +0.000 C 
ATOM      7  N   UNL     1       5.930   5.932  17.474  0.00  0.00    +0.000 N 
ATOM      8  C   UNL     1       5.136   6.326  18.637  0.00  0.00    +0.000 C 
ATOM      9  C   UNL     1       3.617   6.097  18.418  0.00  0.00    +0.000 C 
ATOM     10  N   UNL     1       3.225   4.755  17.887  0.00  0.00    +0.000 NA
ATOM     11  C   UNL     1       4.009   4.563  16.643  0.00  0.00    +0.000 C 
ATOM     12  C   UNL     1       5.528   4.688  16.817  0.00  0.00    +0.000 C 
BRANCH  10  13
ATOM     13  C   UNL     1       3.388   3.683  18.906  0.00  0.00    +0.000 C 
ATOM     14  C   UNL     1       2.864   4.163  20.283  0.00  0.00    +0.000 C 
ATOM     15  C   UNL     1       1.340   4.164  20.392  0.00  0.00    +0.000 C 
ATOM     16  C   UNL     1       0.780   2.770  20.157  0.00  0.00    +0.000 C 
ATOM     17  C   UNL     1       1.222   2.218  18.808  0.00  0.00    +0.000 C 
ATOM     18  C   UNL     1       2.736   2.303  18.606  0.00  0.00    +0.000 C 
ENDBRANCH  10  13
ENDBRANCH   4   6
ENDBRANCH   3   4
ENDBRANCH   2   3
ENDBRANCH   1   2
BRANCH   1  19
ATOM     19  C   UNL     1       9.505  12.159  18.521  0.00  0.00    +0.000 C 
BRANCH  19  20
ATOM     20  N   UNL     1       8.944  12.888  19.660  0.00  0.00    +0.000 N 
ATOM     21  C   UNL     1       8.250  14.087  19.490  0.00  0.00    +0.000 A 
ATOM     22  S   UNL     1       8.036  14.952  18.069  0.00  0.00    +0.000 S 
ATOM     23  N   UNL     1       7.667  14.623  20.606  0.00  0.00    +0.000 N 
ATOM     24  C   UNL     1       7.742  14.051  21.874  0.00  0.00    +0.000 A 
ATOM     25  C   UNL     1       7.072  14.653  22.943  0.00  0.00    +0.000 A 
ATOM     26  C   UNL     1       7.181  14.040  24.174  0.00  0.00    +0.000 A 
ATOM     27  C   UNL     1       7.926  12.899  24.361  0.00  0.00    +0.000 A 
ATOM     28  C   UNL     1       8.601  12.294  23.326  0.00  0.00    +0.000 A 
ATOM     29  C   UNL     1       8.491  12.887  22.065  0.00  0.00    +0.000 A 
ATOM     30  C   UNL     1       9.147  12.271  20.899  0.00  0.00    +0.000 A 
ATOM     31  O   UNL     1       9.817  11.258  21.068  0.00  0.00    +0.000 OA
ATOM     32  O   UNL     1       7.897  12.462  25.648  0.00  0.00    +0.000 OA
ATOM     33  C   UNL     1       7.011  13.433  26.242  0.00  0.00    +0.000 C 
ATOM     34  O   UNL     1       6.588  14.463  25.323  0.00  0.00    +0.000 OA
ATOM     35  H   UNL     1       7.139  15.477  20.469  0.00  0.00    +0.000 HD
ENDBRANCH  19  20
ENDBRANCH   1  19
TORSDOF 7
ENDMDL
MODEL 2
REMARK VINA RESULT:      -8.3      4.160     10.598
REMARK  Name = 
REMARK  7 active torsions:
REMARK  status: ('A' for Active; 'I' for Inactive)
REMARK    1  A    between atoms: C_2  and  C_3
REMARK    2  A    between atoms: C_3  and  C_4
REMARK    3  A    between atoms: C_4  and  C_5
REMARK    4  A    between atoms: C_5  and  C_6
REMARK    5  A    between atoms: C_6  and  C_7
REMARK    6  A    between atoms: C_7  and  N_8
REMARK    7  A    between atoms: N_26  and  C_27
REMARK                            x       y       z     vdW  Elec       q    Type
REMARK                         _______ _______ _______ _____ _____    ______ ____
ROOT
ATOM      1  C   UNL     1       1.491  11.891  19.364  0.00  0.00    +0.000 C 
ENDROOT
BRANCH   1   2
ATOM      2  C   UNL     1       1.018  13.106  18.548  0.00  0.00    +0.000 C 
BRANCH   2   3
ATOM      3  C   UNL     1       1.728  14.373  19.009  0.00  0.00    +0.000 C 
BRANCH   3   4
ATOM      4  C   UNL     1       3.054  14.684  18.316  0.00  0.00    +0.000 C 
BRANCH   4   6
ATOM      5  O   UNL     1       3.640  15.635  20.446  0.00  0.00    +0.000 OA
ATOM      6  C   UNL     1       4.040  15.162  19.380  0.00  0.00    +0.000 C 
ATOM      7  N   UNL     1       5.391  15.015  19.133  0.00  0.00    +0.000 N 
ATOM      8  C   UNL     1       5.972  14.555  17.872  0.00  0.00    +0.000 C 
ATOM      9  C   UNL     1       7.437  15.032  17.689  0.00  0.00    +0.000 C 
ATOM     10  N   UNL     1       8.350  14.809  18.853  0.00  0.00    +0.000 NA
ATOM     11  C   UNL     1       7.691  15.448  20.017  0.00  0.00    +0.000 C 
ATOM     12  C   UNL     1       6.269  14.948  20.303  0.00  0.00    +0.000 C 
BRANCH  10  13
ATOM     13  C   UNL     1       8.686  13.371  19.030  0.00  0.00    +0.000 C 
ATOM     14  C   UNL     1       9.217  12.772  17.702  0.00  0.00    +0.000 C 
ATOM     15  C   UNL     1      10.658  13.167  17.386  0.00  0.00    +0.000 C 
ATOM     16  C   UNL     1      11.599  12.714  18.492  0.00  0.00    +0.000 C 
ATOM     17  C   UNL     1      11.172  13.275  19.842  0.00  0.00    +0.000 C 
ATOM     18  C   UNL     1       9.699  13.004  20.152  0.00  0.00    +0.000 C 
ENDBRANCH  10  13
ENDBRANCH   4   6
ENDBRANCH   3   4
ENDBRANCH   2   3
ENDBRANCH   1   2
BRANCH   1  19
ATOM     19  C   UNL     1       0.536  10.697  19.241  0.00  0.00    +0.000 C 
BRANCH  19  20
ATOM     20  N   UNL     1       1.182   9.417  19.538  0.00  0.00    +0.000 N 
ATOM     21  C   UNL     1       1.066   8.813  20.791  0.00  0.00    +0.000 A 
ATOM     22  S   UNL     1       0.325   9.435  22.161  0.00  0.00    +0.000 S 
ATOM     23  N   UNL     1       1.611   7.564  20.924  0.00  0.00    +0.000 N 
ATOM     24  C   UNL     1       2.271   6.890  19.899  0.00  0.00    +0.000 A 
ATOM     25  C   UNL     1       2.752   5.597  20.123  0.00  0.00    +0.000 A 
ATOM     26  C   UNL     1       3.396   4.979  19.070  0.00  0.00    +0.000 A 
ATOM     27  C   UNL     1       3.579   5.601  17.857  0.00  0.00    +0.000 A 
ATOM     28  C   UNL     1       3.121   6.875  17.617  0.00  0.00    +0.000 A 
ATOM     29  C   UNL     1       2.451   7.516  18.663  0.00  0.00    +0.000 A 
ATOM     30  C   UNL     1       1.891   8.864  18.466  0.00  0.00    +0.000 A 
ATOM     31  O   UNL     1       2.061   9.419  17.386  0.00  0.00    +0.000 OA
ATOM     32  O   UNL     1       4.233   4.814  16.962  0.00  0.00    +0.000 OA
ATOM     33  C   UNL     1       4.402   3.608  17.736  0.00  0.00    +0.000 C 
ATOM     34  O   UNL     1       3.913   3.721  19.089  0.00  0.00    +0.000 OA
ATOM     35  H   UNL     1       1.495   7.120  21.828  0.00  0.00    +0.000 HD
ENDBRANCH  19  20
ENDBRANCH   1  19
TORSDOF 7
ENDMDL
MODEL 3
REMARK VINA RESULT:      -8.1      2.457      3.334
REMARK  Name = 
REMARK  7 active torsions:
REMARK  status: ('A' for Active; 'I' for Inactive)
REMARK    1  A    between atoms: C_2  and  C_3
REMARK    2  A    between atoms: C_3  and  C_4
REMARK    3  A    between atoms: C_4  and  C_5
REMARK    4  A    between atoms: C_5  and  C_6
REMARK    5  A    between atoms: C_6  and  C_7
REMARK    6  A    between atoms: C_7  and  N_8
REMARK    7  A    between atoms: N_26  and  C_27
REMARK                            x       y       z     vdW  Elec       q    Type
REMARK                         _______ _______ _______ _____ _____    ______ ____
ROOT
ATOM      1  C   UNL     1       9.629  11.411  17.880  0.00  0.00    +0.000 C 
ENDROOT
BRANCH   1   2
ATOM      2  C   UNL     1       9.462  10.016  18.505  0.00  0.00    +0.000 C 
BRANCH   2   3
ATOM      3  C   UNL     1       8.047   9.494  18.284  0.00  0.00    +0.000 C 
BRANCH   3   4
ATOM      4  C   UNL     1       7.923   8.268  17.380  0.00  0.00    +0.000 C 
BRANCH   4   6
ATOM      5  O   UNL     1       8.551   6.764  19.148  0.00  0.00    +0.000 OA
ATOM      6  C   UNL     1       7.730   7.044  18.271  0.00  0.00    +0.000 C 
ATOM      7  N   UNL     1       6.592   6.279  18.097  0.00  0.00    +0.000 N 
ATOM      8  C   UNL     1       5.608   6.467  17.032  0.00  0.00    +0.000 C 
ATOM      9  C   UNL     1       4.804   5.172  16.738  0.00  0.00    +0.000 C 
ATOM     10  N   UNL     1       4.232   4.470  17.928  0.00  0.00    +0.000 NA
ATOM     11  C   UNL     1       5.370   4.230  18.847  0.00  0.00    +0.000 C 
ATOM     12  C   UNL     1       6.148   5.491  19.247  0.00  0.00    +0.000 C 
BRANCH  10  13
ATOM     13  C   UNL     1       3.090   5.219  18.520  0.00  0.00    +0.000 C 
ATOM     14  C   UNL     1       1.761   4.809  17.836  0.00  0.00    +0.000 C 
ATOM     15  C   UNL     1       1.231   3.451  18.294  0.00  0.00    +0.000 C 
ATOM     16  C   UNL     1       0.986   3.444  19.795  0.00  0.00    +0.000 C 
ATOM     17  C   UNL     1       2.250   3.814  20.562  0.00  0.00    +0.000 C 
ATOM     18  C   UNL     1       2.884   5.111  20.058  0.00  0.00    +0.000 C 
ENDBRANCH  10  13
ENDBRANCH   4   6
ENDBRANCH   3   4
ENDBRANCH   2   3
ENDBRANCH   1   2
BRANCH   1  19
ATOM     19  C   UNL     1      10.328  12.395  18.827  0.00  0.00    +0.000 C 
BRANCH  19  20
ATOM     20  N   UNL     1       9.658  13.695  18.894  0.00  0.00    +0.000 N 
ATOM     21  C   UNL     1      10.023  14.750  18.057  0.00  0.00    +0.000 A 
ATOM     22  S   UNL     1      11.296  14.796  16.966  0.00  0.00    +0.000 S 
ATOM     23  N   UNL     1       9.254  15.881  18.122  0.00  0.00    +0.000 N 
ATOM     24  C   UNL     1       8.161  16.030  18.972  0.00  0.00    +0.000 A 
ATOM     25  C   UNL     1       7.411  17.209  18.930  0.00  0.00    +0.000 A 
ATOM     26  C   UNL     1       6.338  17.299  19.793  0.00  0.00    +0.000 A 
ATOM     27  C   UNL     1       6.020  16.290  20.673  0.00  0.00    +0.000 A 
ATOM     28  C   UNL     1       6.748  15.126  20.738  0.00  0.00    +0.000 A 
ATOM     29  C   UNL     1       7.830  15.004  19.861  0.00  0.00    +0.000 A 
ATOM     30  C   UNL     1       8.628  13.767  19.839  0.00  0.00    +0.000 A 
ATOM     31  O   UNL     1       8.348  12.872  20.629  0.00  0.00    +0.000 OA
ATOM     32  O   UNL     1       4.928  16.583  21.428  0.00  0.00    +0.000 OA
ATOM     33  C   UNL     1       4.567  17.873  20.892  0.00  0.00    +0.000 C 
ATOM     34  O   UNL     1       5.483  18.353  19.886  0.00  0.00    +0.000 OA
ATOM     35  H   UNL     1       9.507  16.631  17.489  0.00  0.00    +0.000 HD
ENDBRANCH  19  20
ENDBRANCH   1  19
TORSDOF 7
ENDMDL
MODEL 4
REMARK VINA RESULT:      -8.1      1.624      1.872
REMARK  Name = 
REMARK  7 active torsions:
REMARK  status: ('A' for Active; 'I' for Inactive)
REMARK    1  A    between atoms: C_2  and  C_3
REMARK    2  A    between atoms: C_3  and  C_4
REMARK    3  A    between atoms: C_4  and  C_5
REMARK    4  A    between atoms: C_5  and  C_6
REMARK    5  A    between atoms: C_6  and  C_7
REMARK    6  A    between atoms: C_7  and  N_8
REMARK    7  A    between atoms: N_26  and  C_27
REMARK                            x       y       z     vdW  Elec       q    Type
REMARK                         _______ _______ _______ _____ _____    ______ ____
ROOT
ATOM      1  C   UNL     1       9.172  10.636  18.016  0.00  0.00    +0.000 C 
ENDROOT
BRANCH   1   2
ATOM      2  C   UNL     1       8.039   9.663  18.384  0.00  0.00    +0.000 C 
BRANCH   2   3
ATOM      3  C   UNL     1       8.018   8.477  17.427  0.00  0.00    +0.000 C 
BRANCH   3   4
ATOM      4  C   UNL     1       7.867   7.101  18.076  0.00  0.00    +0.000 C 
BRANCH   4   6
ATOM      5  O   UNL     1       7.697   5.837  16.036  0.00  0.00    +0.000 OA
ATOM      6  C   UNL     1       7.148   6.190  17.083  0.00  0.00    +0.000 C 
ATOM      7  N   UNL     1       5.882   5.739  17.405  0.00  0.00    +0.000 N 
ATOM      8  C   UNL     1       5.108   6.168  18.569  0.00  0.00    +0.000 C 
ATOM      9  C   UNL     1       3.582   5.970  18.367  0.00  0.00    +0.000 C 
ATOM     10  N   UNL     1       3.156   4.629  17.860  0.00  0.00    +0.000 NA
ATOM     11  C   UNL     1       3.924   4.401  16.612  0.00  0.00    +0.000 C 
ATOM     12  C   UNL     1       5.447   4.494  16.771  0.00  0.00    +0.000 C 
BRANCH  10  13
ATOM     13  C   UNL     1       3.305   3.569  18.893  0.00  0.00    +0.000 C 
ATOM     14  C   UNL     1       2.859   4.100  20.280  0.00  0.00    +0.000 C 
ATOM     15  C   UNL     1       1.343   4.181  20.446  0.00  0.00    +0.000 C 
ATOM     16  C   UNL     1       0.705   2.813  20.261  0.00  0.00    +0.000 C 
ATOM     17  C   UNL     1       1.066   2.214  18.908  0.00  0.00    +0.000 C 
ATOM     18  C   UNL     1       2.573   2.219  18.647  0.00  0.00    +0.000 C 
ENDBRANCH  10  13
ENDBRANCH   4   6
ENDBRANCH   3   4
ENDBRANCH   2   3
ENDBRANCH   1   2
BRANCH   1  19
ATOM     19  C   UNL     1      10.292  10.651  19.065  0.00  0.00    +0.000 C 
BRANCH  19  20
ATOM     20  N   UNL     1      10.369  11.915  19.799  0.00  0.00    +0.000 N 
ATOM     21  C   UNL     1      11.087  13.005  19.304  0.00  0.00    +0.000 A 
ATOM     22  S   UNL     1      12.049  13.057  17.930  0.00  0.00    +0.000 S 
ATOM     23  N   UNL     1      10.995  14.174  20.011  0.00  0.00    +0.000 N 
ATOM     24  C   UNL     1      10.251  14.320  21.178  0.00  0.00    +0.000 A 
ATOM     25  C   UNL     1      10.184  15.569  21.801  0.00  0.00    +0.000 A 
ATOM     26  C   UNL     1       9.429  15.655  22.954  0.00  0.00    +0.000 A 
ATOM     27  C   UNL     1       8.781  14.564  23.487  0.00  0.00    +0.000 A 
ATOM     28  C   UNL     1       8.840  13.324  22.895  0.00  0.00    +0.000 A 
ATOM     29  C   UNL     1       9.584  13.217  21.717  0.00  0.00    +0.000 A 
ATOM     30  C   UNL     1       9.654  11.932  21.001  0.00  0.00    +0.000 A 
ATOM     31  O   UNL     1       9.082  10.959  21.481  0.00  0.00    +0.000 OA
ATOM     32  O   UNL     1       8.096  14.868  24.620  0.00  0.00    +0.000 OA
ATOM     33  C   UNL     1       8.348  16.285  24.716  0.00  0.00    +0.000 C 
ATOM     34  O   UNL     1       9.230  16.782  23.687  0.00  0.00    +0.000 OA
ATOM     35  H   UNL     1      11.495  14.968  19.628  0.00  0.00    +0.000 HD
ENDBRANCH  19  20
ENDBRANCH   1  19
TORSDOF 7
ENDMDL
MODEL 5
REMARK VINA RESULT:      -8.1      3.121     10.837
REMARK  Name = 
REMARK  7 active torsions:
REMARK  status: ('A' for Active; 'I' for Inactive)
REMARK    1  A    between atoms: C_2  and  C_3
REMARK    2  A    between atoms: C_3  and  C_4
REMARK    3  A    between atoms: C_4  and  C_5
REMARK    4  A    between atoms: C_5  and  C_6
REMARK    5  A    between atoms: C_6  and  C_7
REMARK    6  A    between atoms: C_7  and  N_8
REMARK    7  A    between atoms: N_26  and  C_27
REMARK                            x       y       z     vdW  Elec       q    Type
REMARK                         _______ _______ _______ _____ _____    ______ ____
ROOT
ATOM      1  C   UNL     1       7.690   7.296  17.342  0.00  0.00    +0.000 C 
ENDROOT
BRANCH   1   2
ATOM      2  C   UNL     1       8.289   8.075  18.526  0.00  0.00    +0.000 C 
BRANCH   2   3
ATOM      3  C   UNL     1       8.533   9.530  18.143  0.00  0.00    +0.000 C 
BRANCH   3   4
ATOM      4  C   UNL     1       9.369  10.346  19.128  0.00  0.00    +0.000 C 
BRANCH   4   6
ATOM      5  O   UNL     1       9.204  12.173  17.571  0.00  0.00    +0.000 OA
ATOM      6  C   UNL     1       9.230  11.820  18.753  0.00  0.00    +0.000 C 
ATOM      7  N   UNL     1       9.095  12.745  19.771  0.00  0.00    +0.000 N 
ATOM      8  C   UNL     1       9.206  12.447  21.198  0.00  0.00    +0.000 C 
ATOM      9  C   UNL     1       9.588  13.698  22.033  0.00  0.00    +0.000 C 
ATOM     10  N   UNL     1       8.787  14.933  21.769  0.00  0.00    +0.000 NA
ATOM     11  C   UNL     1       8.886  15.179  20.309  0.00  0.00    +0.000 C 
ATOM     12  C   UNL     1       8.433  14.005  19.431  0.00  0.00    +0.000 C 
BRANCH  10  13
ATOM     13  C   UNL     1       7.401  14.823  22.297  0.00  0.00    +0.000 C 
ATOM     14  C   UNL     1       7.424  14.558  23.824  0.00  0.00    +0.000 C 
ATOM     15  C   UNL     1       7.743  15.799  24.655  0.00  0.00    +0.000 C 
ATOM     16  C   UNL     1       6.720  16.897  24.403  0.00  0.00    +0.000 C 
ATOM     17  C   UNL     1       6.641  17.247  22.923  0.00  0.00    +0.000 C 
ATOM     18  C   UNL     1       6.438  16.016  22.038  0.00  0.00    +0.000 C 
ENDBRANCH  10  13
ENDBRANCH   4   6
ENDBRANCH   3   4
ENDBRANCH   2   3
ENDBRANCH   1   2
BRANCH   1  19
ATOM     19  C   UNL     1       7.668   5.782  17.591  0.00  0.00    +0.000 C 
BRANCH  19  20
ATOM     20  N   UNL     1       6.337   5.196  17.418  0.00  0.00    +0.000 N 
ATOM     21  C   UNL     1       5.908   4.709  16.183  0.00  0.00    +0.000 A 
ATOM     22  S   UNL     1       6.711   4.799  14.713  0.00  0.00    +0.000 S 
ATOM     23  N   UNL     1       4.694   4.076  16.160  0.00  0.00    +0.000 N 
ATOM     24  C   UNL     1       3.881   3.912  17.279  0.00  0.00    +0.000 A 
ATOM     25  C   UNL     1       2.679   3.209  17.160  0.00  0.00    +0.000 A 
ATOM     26  C   UNL     1       1.917   3.075  18.303  0.00  0.00    +0.000 A 
ATOM     27  C   UNL     1       2.302   3.620  19.507  0.00  0.00    +0.000 A 
ATOM     28  C   UNL     1       3.476   4.322  19.645  0.00  0.00    +0.000 A 
ATOM     29  C   UNL     1       4.273   4.455  18.505  0.00  0.00    +0.000 A 
ATOM     30  C   UNL     1       5.567   5.153  18.586  0.00  0.00    +0.000 A 
ATOM     31  O   UNL     1       5.905   5.644  19.658  0.00  0.00    +0.000 OA
ATOM     32  O   UNL     1       1.408   3.369  20.500  0.00  0.00    +0.000 OA
ATOM     33  C   UNL     1       0.439   2.566  19.795  0.00  0.00    +0.000 C 
ATOM     34  O   UNL     1       0.732   2.413  18.391  0.00  0.00    +0.000 OA
ATOM     35  H   UNL     1       4.404   3.698  15.265  0.00  0.00    +0.000 HD
ENDBRANCH  19  20
ENDBRANCH   1  19
TORSDOF 7
ENDMDL
MODEL 6
REMARK VINA RESULT:      -8.0      3.136      4.332
REMARK  Name = 
REMARK  7 active torsions:
REMARK  status: ('A' for Active; 'I' for Inactive)
REMARK    1  A    between atoms: C_2  and  C_3
REMARK    2  A    between atoms: C_3  and  C_4
REMARK    3  A    between atoms: C_4  and  C_5
REMARK    4  A    between atoms: C_5  and  C_6
REMARK    5  A    between atoms: C_6  and  C_7
REMARK    6  A    between atoms: C_7  and  N_8
REMARK    7  A    between atoms: N_26  and  C_27
REMARK                            x       y       z     vdW  Elec       q    Type
REMARK                         _______ _______ _______ _____ _____    ______ ____
ROOT
ATOM      1  C   UNL     1       8.623   9.932  19.109  0.00  0.00    +0.000 C 
ENDROOT
BRANCH   1   2
ATOM      2  C   UNL     1       8.280   9.667  17.634  0.00  0.00    +0.000 C 
BRANCH   2   3
ATOM      3  C   UNL     1       7.315   8.493  17.509  0.00  0.00    +0.000 C 
BRANCH   3   4
ATOM      4  C   UNL     1       7.952   7.137  17.204  0.00  0.00    +0.000 C 
BRANCH   4   6
ATOM      5  O   UNL     1       8.138   6.042  19.338  0.00  0.00    +0.000 OA
ATOM      6  C   UNL     1       7.505   6.155  18.285  0.00  0.00    +0.000 C 
ATOM      7  N   UNL     1       6.352   5.425  18.070  0.00  0.00    +0.000 N 
ATOM      8  C   UNL     1       5.582   5.415  16.827  0.00  0.00    +0.000 C 
ATOM      9  C   UNL     1       4.731   4.126  16.672  0.00  0.00    +0.000 C 
ATOM     10  N   UNL     1       3.906   3.738  17.858  0.00  0.00    +0.000 NA
ATOM     11  C   UNL     1       4.847   3.657  19.001  0.00  0.00    +0.000 C 
ATOM     12  C   UNL     1       5.652   4.938  19.260  0.00  0.00    +0.000 C 
BRANCH  10  13
ATOM     13  C   UNL     1       2.750   4.653  18.056  0.00  0.00    +0.000 C 
ATOM     14  C   UNL     1       1.424   3.935  17.695  0.00  0.00    +0.000 C 
ATOM     15  C   UNL     1       0.950   2.952  18.764  0.00  0.00    +0.000 C 
ATOM     16  C   UNL     1       0.732   3.661  20.092  0.00  0.00    +0.000 C 
ATOM     17  C   UNL     1       1.995   4.381  20.546  0.00  0.00    +0.000 C 
ATOM     18  C   UNL     1       2.575   5.292  19.462  0.00  0.00    +0.000 C 
ENDBRANCH  10  13
ENDBRANCH   4   6
ENDBRANCH   3   4
ENDBRANCH   2   3
ENDBRANCH   1   2
BRANCH   1  19
ATOM     19  C   UNL     1       9.979  10.631  19.277  0.00  0.00    +0.000 C 
BRANCH  19  20
ATOM     20  N   UNL     1       9.854  12.077  19.474  0.00  0.00    +0.000 N 
ATOM     21  C   UNL     1       9.333  12.611  20.654  0.00  0.00    +0.000 A 
ATOM     22  S   UNL     1       8.669  11.776  21.948  0.00  0.00    +0.000 S 
ATOM     23  N   UNL     1       9.370  13.973  20.780  0.00  0.00    +0.000 N 
ATOM     24  C   UNL     1       9.877  14.831  19.808  0.00  0.00    +0.000 A 
ATOM     25  C   UNL     1       9.913  16.207  20.053  0.00  0.00    +0.000 A 
ATOM     26  C   UNL     1      10.429  17.007  19.054  0.00  0.00    +0.000 A 
ATOM     27  C   UNL     1      10.874  16.491  17.858  0.00  0.00    +0.000 A 
ATOM     28  C   UNL     1      10.841  15.142  17.592  0.00  0.00    +0.000 A 
ATOM     29  C   UNL     1      10.339  14.309  18.597  0.00  0.00    +0.000 A 
ATOM     30  C   UNL     1      10.315  12.849  18.403  0.00  0.00    +0.000 A 
ATOM     31  O   UNL     1      10.706  12.391  17.335  0.00  0.00    +0.000 OA
ATOM     32  O   UNL     1      11.342  17.451  17.019  0.00  0.00    +0.000 OA
ATOM     33  C   UNL     1      11.183  18.628  17.838  0.00  0.00    +0.000 C 
ATOM     34  O   UNL     1      10.563  18.359  19.113  0.00  0.00    +0.000 OA
ATOM     35  H   UNL     1       9.018  14.351  21.653  0.00  0.00    +0.000 HD
ENDBRANCH  19  20
ENDBRANCH   1  19
TORSDOF 7
ENDMDL
MODEL 7
REMARK VINA RESULT:      -8.0      6.625      9.252
REMARK  Name = 
REMARK  7 active torsions:
REMARK  status: ('A' for Active; 'I' for Inactive)
REMARK    1  A    between atoms: C_2  and  C_3
REMARK    2  A    between atoms: C_3  and  C_4
REMARK    3  A    between atoms: C_4  and  C_5
REMARK    4  A    between atoms: C_5  and  C_6
REMARK    5  A    between atoms: C_6  and  C_7
REMARK    6  A    between atoms: C_7  and  N_8
REMARK    7  A    between atoms: N_26  and  C_27
REMARK                            x       y       z     vdW  Elec       q    Type
REMARK                         _______ _______ _______ _____ _____    ______ ____
ROOT
ATOM      1  C   UNL     1       0.902   8.920  21.543  0.00  0.00    +0.000 C 
ENDROOT
BRANCH   1   2
ATOM      2  C   UNL     1       1.841   7.863  20.938  0.00  0.00    +0.000 C 
BRANCH   2   3
ATOM      3  C   UNL     1       1.090   6.561  20.681  0.00  0.00    +0.000 C 
BRANCH   3   4
ATOM      4  C   UNL     1       1.785   5.286  21.158  0.00  0.00    +0.000 C 
BRANCH   4   6
ATOM      5  O   UNL     1       0.709   3.585  19.840  0.00  0.00    +0.000 OA
ATOM      6  C   UNL     1       1.722   4.265  20.024  0.00  0.00    +0.000 C 
ATOM      7  N   UNL     1       2.814   4.150  19.186  0.00  0.00    +0.000 N 
ATOM      8  C   UNL     1       4.092   4.836  19.369  0.00  0.00    +0.000 C 
ATOM      9  C   UNL     1       5.262   4.102  18.662  0.00  0.00    +0.000 C 
ATOM     10  N   UNL     1       5.025   3.707  17.239  0.00  0.00    +0.000 NA
ATOM     11  C   UNL     1       3.776   2.907  17.239  0.00  0.00    +0.000 C 
ATOM     12  C   UNL     1       2.560   3.620  17.845  0.00  0.00    +0.000 C 
BRANCH  10  13
ATOM     13  C   UNL     1       5.020   4.884  16.328  0.00  0.00    +0.000 C 
ATOM     14  C   UNL     1       6.333   5.692  16.481  0.00  0.00    +0.000 C 
ATOM     15  C   UNL     1       7.533   5.046  15.792  0.00  0.00    +0.000 C 
ATOM     16  C   UNL     1       7.277   4.879  14.302  0.00  0.00    +0.000 C 
ATOM     17  C   UNL     1       6.012   4.072  14.047  0.00  0.00    +0.000 C 
ATOM     18  C   UNL     1       4.803   4.615  14.811  0.00  0.00    +0.000 C 
ENDBRANCH  10  13
ENDBRANCH   4   6
ENDBRANCH   3   4
ENDBRANCH   2   3
ENDBRANCH   1   2
BRANCH   1  19
ATOM     19  C   UNL     1       1.072  10.296  20.886  0.00  0.00    +0.000 C 
BRANCH  19  20
ATOM     20  N   UNL     1       0.113  10.532  19.804  0.00  0.00    +0.000 N 
ATOM     21  C   UNL     1       0.347  10.070  18.508  0.00  0.00    +0.000 A 
ATOM     22  S   UNL     1       1.727   9.317  17.924  0.00  0.00    +0.000 S 
ATOM     23  N   UNL     1      -0.666  10.243  17.603  0.00  0.00    +0.000 N 
ATOM     24  C   UNL     1      -1.881  10.853  17.902  0.00  0.00    +0.000 A 
ATOM     25  C   UNL     1      -2.870  10.939  16.918  0.00  0.00    +0.000 A 
ATOM     26  C   UNL     1      -4.054  11.552  17.273  0.00  0.00    +0.000 A 
ATOM     27  C   UNL     1      -4.260  12.076  18.529  0.00  0.00    +0.000 A 
ATOM     28  C   UNL     1      -3.298  12.010  19.510  0.00  0.00    +0.000 A 
ATOM     29  C   UNL     1      -2.096  11.378  19.179  0.00  0.00    +0.000 A 
ATOM     30  C   UNL     1      -1.037  11.227  20.191  0.00  0.00    +0.000 A 
ATOM     31  O   UNL     1      -1.219  11.701  21.308  0.00  0.00    +0.000 OA
ATOM     32  O   UNL     1      -5.493  12.632  18.666  0.00  0.00    +0.000 OA
ATOM     33  C   UNL     1      -6.058  12.358  17.367  0.00  0.00    +0.000 C 
ATOM     34  O   UNL     1      -5.135  11.714  16.464  0.00  0.00    +0.000 OA
ATOM     35  H   UNL     1      -0.500   9.877  16.672  0.00  0.00    +0.000 HD
ENDBRANCH  19  20
ENDBRANCH   1  19
TORSDOF 7
ENDMDL
MODEL 8
REMARK VINA RESULT:      -7.9      1.480      1.852
REMARK  Name = 
REMARK  7 active torsions:
REMARK  status: ('A' for Active; 'I' for Inactive)
REMARK    1  A    between atoms: C_2  and  C_3
REMARK    2  A    between atoms: C_3  and  C_4
REMARK    3  A    between atoms: C_4  and  C_5
REMARK    4  A    between atoms: C_5  and  C_6
REMARK    5  A    between atoms: C_6  and  C_7
REMARK    6  A    between atoms: C_7  and  N_8
REMARK    7  A    between atoms: N_26  and  C_27
REMARK                            x       y       z     vdW  Elec       q    Type
REMARK                         _______ _______ _______ _____ _____    ______ ____
ROOT
ATOM      1  C   UNL     1       8.762  10.708  18.776  0.00  0.00    +0.000 C 
ENDROOT
BRANCH   1   2
ATOM      2  C   UNL     1       8.953   9.332  18.115  0.00  0.00    +0.000 C 
BRANCH   2   3
ATOM      3  C   UNL     1       7.604   8.701  17.791  0.00  0.00    +0.000 C 
BRANCH   3   4
ATOM      4  C   UNL     1       7.655   7.314  17.150  0.00  0.00    +0.000 C 
BRANCH   4   6
ATOM      5  O   UNL     1       8.097   6.167  19.218  0.00  0.00    +0.000 OA
ATOM      6  C   UNL     1       7.358   6.283  18.237  0.00  0.00    +0.000 C 
ATOM      7  N   UNL     1       6.218   5.512  18.115  0.00  0.00    +0.000 N 
ATOM      8  C   UNL     1       5.329   5.504  16.954  0.00  0.00    +0.000 C 
ATOM      9  C   UNL     1       4.518   4.186  16.842  0.00  0.00    +0.000 C 
ATOM     10  N   UNL     1       3.832   3.729  18.091  0.00  0.00    +0.000 NA
ATOM     11  C   UNL     1       4.885   3.656  19.132  0.00  0.00    +0.000 C 
ATOM     12  C   UNL     1       5.661   4.961  19.351  0.00  0.00    +0.000 C 
BRANCH  10  13
ATOM     13  C   UNL     1       2.666   4.588  18.432  0.00  0.00    +0.000 C 
ATOM     14  C   UNL     1       1.359   3.975  17.869  0.00  0.00    +0.000 C 
ATOM     15  C   UNL     1       0.841   2.788  18.680  0.00  0.00    +0.000 C 
ATOM     16  C   UNL     1       0.565   3.196  20.120  0.00  0.00    +0.000 C 
ATOM     17  C   UNL     1       1.806   3.792  20.772  0.00  0.00    +0.000 C 
ATOM     18  C   UNL     1       2.430   4.910  19.935  0.00  0.00    +0.000 C 
ENDBRANCH  10  13
ENDBRANCH   4   6
ENDBRANCH   3   4
ENDBRANCH   2   3
ENDBRANCH   1   2
BRANCH   1  19
ATOM     19  C   UNL     1      10.098  11.402  19.075  0.00  0.00    +0.000 C 
BRANCH  19  20
ATOM     20  N   UNL     1       9.990  12.418  20.123  0.00  0.00    +0.000 N 
ATOM     21  C   UNL     1      10.401  13.735  19.910  0.00  0.00    +0.000 A 
ATOM     22  S   UNL     1      11.167  14.360  18.556  0.00  0.00    +0.000 S 
ATOM     23  N   UNL     1      10.147  14.628  20.916  0.00  0.00    +0.000 N 
ATOM     24  C   UNL     1       9.526  14.292  22.117  0.00  0.00    +0.000 A 
ATOM     25  C   UNL     1       9.269  15.288  23.062  0.00  0.00    +0.000 A 
ATOM     26  C   UNL     1       8.650  14.897  24.232  0.00  0.00    +0.000 A 
ATOM     27  C   UNL     1       8.311  13.586  24.477  0.00  0.00    +0.000 A 
ATOM     28  C   UNL     1       8.561  12.588  23.564  0.00  0.00    +0.000 A 
ATOM     29  C   UNL     1       9.172  12.964  22.365  0.00  0.00    +0.000 A 
ATOM     30  C   UNL     1       9.429  11.958  21.320  0.00  0.00    +0.000 A 
ATOM     31  O   UNL     1       9.133  10.789  21.543  0.00  0.00    +0.000 OA
ATOM     32  O   UNL     1       7.711  13.420  25.685  0.00  0.00    +0.000 OA
ATOM     33  C   UNL     1       7.668  14.784  26.154  0.00  0.00    +0.000 C 
ATOM     34  O   UNL     1       8.303  15.720  25.257  0.00  0.00    +0.000 OA
ATOM     35  H   UNL     1      10.420  15.589  20.741  0.00  0.00    +0.000 HD
ENDBRANCH  19  20
ENDBRANCH   1  19
TORSDOF 7
ENDMDL
MODEL 9
REMARK VINA RESULT:      -7.9      2.940      4.063
REMARK  Name = 
REMARK  7 active torsions:
REMARK  status: ('A' for Active; 'I' for Inactive)
REMARK    1  A    between atoms: C_2  and  C_3
REMARK    2  A    between atoms: C_3  and  C_4
REMARK    3  A    between atoms: C_4  and  C_5
REMARK    4  A    between atoms: C_5  and  C_6
REMARK    5  A    between atoms: C_6  and  C_7
REMARK    6  A    between atoms: C_7  and  N_8
REMARK    7  A    between atoms: N_26  and  C_27
REMARK                            x       y       z     vdW  Elec       q    Type
REMARK                         _______ _______ _______ _____ _____    ______ ____
ROOT
ATOM      1  C   UNL     1       8.856  10.047  18.390  0.00  0.00    +0.000 C 
ENDROOT
BRANCH   1   2
ATOM      2  C   UNL     1       8.578   8.550  18.607  0.00  0.00    +0.000 C 
BRANCH   2   3
ATOM      3  C   UNL     1       7.689   8.001  17.497  0.00  0.00    +0.000 C 
BRANCH   3   4
ATOM      4  C   UNL     1       7.666   6.480  17.352  0.00  0.00    +0.000 C 
BRANCH   4   6
ATOM      5  O   UNL     1       6.284   6.108  15.419  0.00  0.00    +0.000 OA
ATOM      6  C   UNL     1       6.366   6.094  16.650  0.00  0.00    +0.000 C 
ATOM      7  N   UNL     1       5.297   5.691  17.427  0.00  0.00    +0.000 N 
ATOM      8  C   UNL     1       5.259   5.726  18.888  0.00  0.00    +0.000 C 
ATOM      9  C   UNL     1       3.808   5.781  19.437  0.00  0.00    +0.000 C 
ATOM     10  N   UNL     1       2.851   4.785  18.865  0.00  0.00    +0.000 NA
ATOM     11  C   UNL     1       2.903   4.967  17.394  0.00  0.00    +0.000 C 
ATOM     12  C   UNL     1       4.303   4.832  16.781  0.00  0.00    +0.000 C 
BRANCH  10  13
ATOM     13  C   UNL     1       3.134   3.403  19.339  0.00  0.00    +0.000 C 
ATOM     14  C   UNL     1       3.465   3.409  20.853  0.00  0.00    +0.000 C 
ATOM     15  C   UNL     1       2.237   3.565  21.747  0.00  0.00    +0.000 C 
ATOM     16  C   UNL     1       1.245   2.437  21.507  0.00  0.00    +0.000 C 
ATOM     17  C   UNL     1       0.837   2.365  20.041  0.00  0.00    +0.000 C 
ATOM     18  C   UNL     1       2.041   2.324  19.097  0.00  0.00    +0.000 C 
ENDBRANCH  10  13
ENDBRANCH   4   6
ENDBRANCH   3   4
ENDBRANCH   2   3
ENDBRANCH   1   2
BRANCH   1  19
ATOM     19  C   UNL     1       9.700  10.654  19.518  0.00  0.00    +0.000 C 
BRANCH  19  20
ATOM     20  N   UNL     1       9.527  12.103  19.642  0.00  0.00    +0.000 N 
ATOM     21  C   UNL     1       8.979  12.678  20.790  0.00  0.00    +0.000 A 
ATOM     22  S   UNL     1       8.331  11.887  22.120  0.00  0.00    +0.000 S 
ATOM     23  N   UNL     1       8.971  14.046  20.849  0.00  0.00    +0.000 N 
ATOM     24  C   UNL     1       9.459  14.870  19.838  0.00  0.00    +0.000 A 
ATOM     25  C   UNL     1       9.449  16.256  20.014  0.00  0.00    +0.000 A 
ATOM     26  C   UNL     1       9.947  17.022  18.980  0.00  0.00    +0.000 A 
ATOM     27  C   UNL     1      10.419  16.462  17.815  0.00  0.00    +0.000 A 
ATOM     28  C   UNL     1      10.431  15.101  17.616  0.00  0.00    +0.000 A 
ATOM     29  C   UNL     1       9.948  14.304  18.658  0.00  0.00    +0.000 A 
ATOM     30  C   UNL     1       9.972  12.836  18.537  0.00  0.00    +0.000 A 
ATOM     31  O   UNL     1      10.386  12.338  17.496  0.00  0.00    +0.000 OA
ATOM     32  O   UNL     1      10.863  17.394  16.931  0.00  0.00    +0.000 OA
ATOM     33  C   UNL     1      10.660  18.604  17.689  0.00  0.00    +0.000 C 
ATOM     34  O   UNL     1      10.037  18.379  18.972  0.00  0.00    +0.000 OA
ATOM     35  H   UNL     1       8.600  14.455  21.698  0.00  0.00    +0.000 HD
ENDBRANCH  19  20
ENDBRANCH   1  19
TORSDOF 7
ENDMDL
