MODEL 1
REMARK VINA RESULT:      -9.0      0.000      0.000
REMARK  Name = 
REMARK  6 active torsions:
REMARK  status: ('A' for Active; 'I' for Inactive)
REMARK    1  A    between atoms: C_1  and  N_2
REMARK    2  A    between atoms: N_2  and  S_9
REMARK    3  A    between atoms: S_9  and  C_12
REMARK    4  A    between atoms: C_15  and  N_16
REMARK    5  A    between atoms: C_17  and  C_19
REMARK    6  A    between atoms: C_21  and  C_22
REMARK                            x       y       z     vdW  Elec       q    Type
REMARK                         _______ _______ _______ _____ _____    ______ ____
ROOT
ATOM      1  C   UNL     1       3.280   5.196  18.543  0.00  0.00    +0.000 A 
ATOM      2  C   UNL     1       3.094   6.350  17.786  0.00  0.00    +0.000 A 
ATOM      3  C   UNL     1       2.519   7.483  18.375  0.00  0.00    +0.000 A 
ATOM      4  C   UNL     1       2.093   7.471  19.707  0.00  0.00    +0.000 A 
ATOM      5  C   UNL     1       2.270   6.298  20.456  0.00  0.00    +0.000 A 
ATOM      6  C   UNL     1       2.843   5.158  19.873  0.00  0.00    +0.000 A 
ENDROOT
BRANCH   4   7
ATOM      7  N   UNL     1       1.484   8.586  20.335  0.00  0.00    +0.000 N 
ATOM      8  C   UNL     1       0.774   9.586  19.695  0.00  0.00    +0.000 C 
ATOM      9  O   UNL     1       0.526   9.617  18.493  0.00  0.00    +0.000 OA
ATOM     10  H   UNL     1       1.512   8.607  21.344  0.00  0.00    +0.000 HD
BRANCH   8  11
ATOM     11  C   UNL     1       0.289  10.648  20.540  0.00  0.00    +0.000 A 
ATOM     12  C   UNL     1      -0.881  10.896  21.229  0.00  0.00    +0.000 A 
ATOM     13  C   UNL     1      -0.672  12.120  21.928  0.00  0.00    +0.000 A 
ATOM     14  N   UNL     1       0.545  12.614  21.656  0.00  0.00    +0.000 NA
ATOM     15  N   UNL     1       1.089  11.722  20.822  0.00  0.00    +0.000 N 
ATOM     16  H   UNL     1       2.034  11.876  20.483  0.00  0.00    +0.000 HD
BRANCH  13  17
ATOM     17  C   UNL     1      -1.575  12.794  22.861  0.00  0.00    +0.000 A 
ATOM     18  C   UNL     1      -1.198  14.013  23.444  0.00  0.00    +0.000 A 
ATOM     19  C   UNL     1      -2.029  14.649  24.365  0.00  0.00    +0.000 A 
ATOM     20  C   UNL     1      -3.253  14.076  24.708  0.00  0.00    +0.000 A 
ATOM     21  C   UNL     1      -3.646  12.870  24.129  0.00  0.00    +0.000 A 
ATOM     22  C   UNL     1      -2.810  12.230  23.209  0.00  0.00    +0.000 A 
ENDBRANCH  13  17
ENDBRANCH   8  11
ENDBRANCH   4   7
BRANCH   1  23
ATOM     23  S   UNL     1       3.879   3.703  17.759  0.00  0.00    +0.000 S 
ATOM     24  O   UNL     1       2.889   3.350  16.751  0.00  0.00    +0.000 OA
ATOM     25  O   UNL     1       4.161   2.776  18.835  0.00  0.00    +0.000 OA
BRANCH  23  27
ATOM     26  C   UNL     1       5.416   3.899  15.545  0.00  0.00    +0.000 C 
ATOM     27  N   UNL     1       5.283   4.116  16.976  0.00  0.00    +0.000 N 
ATOM     28  C   UNL     1       6.089   5.082  17.582  0.00  0.00    +0.000 A 
ATOM     29  N   UNL     1       7.032   4.607  18.403  0.00  0.00    +0.000 NA
ATOM     30  C   UNL     1       7.916   5.505  18.869  0.00  0.00    +0.000 A 
ATOM     31  C   UNL     1       7.899   6.834  18.519  0.00  0.00    +0.000 A 
ATOM     32  C   UNL     1       6.898   7.203  17.647  0.00  0.00    +0.000 A 
ATOM     33  N   UNL     1       5.978   6.348  17.156  0.00  0.00    +0.000 NA
ENDBRANCH  23  27
ENDBRANCH   1  23
TORSDOF 5
ENDMDL
MODEL 2
REMARK VINA RESULT:      -8.9      3.816     11.453
REMARK  Name = 
REMARK  6 active torsions:
REMARK  status: ('A' for Active; 'I' for Inactive)
REMARK    1  A    between atoms: C_1  and  N_2
REMARK    2  A    between atoms: N_2  and  S_9
REMARK    3  A    between atoms: S_9  and  C_12
REMARK    4  A    between atoms: C_15  and  N_16
REMARK    5  A    between atoms: C_17  and  C_19
REMARK    6  A    between atoms: C_21  and  C_22
REMARK                            x       y       z     vdW  Elec       q    Type
REMARK                         _______ _______ _______ _____ _____    ______ ____
ROOT
ATOM      1  C   UNL     1      -1.336  12.448  20.894  0.00  0.00    +0.000 A 
ATOM      2  C   UNL     1      -0.045  12.308  21.398  0.00  0.00    +0.000 A 
ATOM      3  C   UNL     1       0.781  11.283  20.923  0.00  0.00    +0.000 A 
ATOM      4  C   UNL     1       0.324  10.367  19.968  0.00  0.00    +0.000 A 
ATOM      5  C   UNL     1      -0.982  10.506  19.479  0.00  0.00    +0.000 A 
ATOM      6  C   UNL     1      -1.817  11.530  19.953  0.00  0.00    +0.000 A 
ENDROOT
BRANCH   4   7
ATOM      7  N   UNL     1       1.118   9.300  19.478  0.00  0.00    +0.000 N 
ATOM      8  C   UNL     1       1.523   8.194  20.203  0.00  0.00    +0.000 C 
ATOM      9  O   UNL     1       1.202   7.955  21.363  0.00  0.00    +0.000 OA
ATOM     10  H   UNL     1       1.343   9.320  18.493  0.00  0.00    +0.000 HD
BRANCH   8  11
ATOM     11  C   UNL     1       2.370   7.262  19.502  0.00  0.00    +0.000 A 
ATOM     12  C   UNL     1       2.837   7.142  18.209  0.00  0.00    +0.000 A 
ATOM     13  C   UNL     1       3.698   6.006  18.207  0.00  0.00    +0.000 A 
ATOM     14  N   UNL     1       3.730   5.440  19.422  0.00  0.00    +0.000 NA
ATOM     15  N   UNL     1       2.925   6.203  20.169  0.00  0.00    +0.000 N 
ATOM     16  H   UNL     1       2.800   5.975  21.151  0.00  0.00    +0.000 HD
BRANCH  13  17
ATOM     17  C   UNL     1       4.504   5.486  17.103  0.00  0.00    +0.000 A 
ATOM     18  C   UNL     1       4.796   4.115  17.035  0.00  0.00    +0.000 A 
ATOM     19  C   UNL     1       5.595   3.607  16.012  0.00  0.00    +0.000 A 
ATOM     20  C   UNL     1       6.106   4.465  15.038  0.00  0.00    +0.000 A 
ATOM     21  C   UNL     1       5.815   5.827  15.087  0.00  0.00    +0.000 A 
ATOM     22  C   UNL     1       5.018   6.337  16.116  0.00  0.00    +0.000 A 
ENDBRANCH  13  17
ENDBRANCH   8  11
ENDBRANCH   4   7
BRANCH   1  23
ATOM     23  S   UNL     1      -2.442  13.663  21.602  0.00  0.00    +0.000 S 
ATOM     24  O   UNL     1      -3.114  14.300  20.478  0.00  0.00    +0.000 OA
ATOM     25  O   UNL     1      -1.631  14.464  22.495  0.00  0.00    +0.000 OA
BRANCH  23  27
ATOM     26  C   UNL     1      -3.262  12.298  23.786  0.00  0.00    +0.000 C 
ATOM     27  N   UNL     1      -3.579  12.815  22.464  0.00  0.00    +0.000 N 
ATOM     28  C   UNL     1      -4.919  13.031  22.136  0.00  0.00    +0.000 A 
ATOM     29  N   UNL     1      -5.424  12.201  21.216  0.00  0.00    +0.000 NA
ATOM     30  C   UNL     1      -6.748  12.289  21.005  0.00  0.00    +0.000 A 
ATOM     31  C   UNL     1      -7.568  13.149  21.696  0.00  0.00    +0.000 A 
ATOM     32  C   UNL     1      -6.941  13.936  22.636  0.00  0.00    +0.000 A 
ATOM     33  N   UNL     1      -5.615  13.898  22.883  0.00  0.00    +0.000 NA
ENDBRANCH  23  27
ENDBRANCH   1  23
TORSDOF 5
ENDMDL
MODEL 3
REMARK VINA RESULT:      -8.7      3.376     11.218
REMARK  Name = 
REMARK  6 active torsions:
REMARK  status: ('A' for Active; 'I' for Inactive)
REMARK    1  A    between atoms: C_1  and  N_2
REMARK    2  A    between atoms: N_2  and  S_9
REMARK    3  A    between atoms: S_9  and  C_12
REMARK    4  A    between atoms: C_15  and  N_16
REMARK    5  A    between atoms: C_17  and  C_19
REMARK    6  A    between atoms: C_21  and  C_22
REMARK                            x       y       z     vdW  Elec       q    Type
REMARK                         _______ _______ _______ _____ _____    ______ ____
ROOT
ATOM      1  C   UNL     1      -1.352  12.543  20.509  0.00  0.00    +0.000 A 
ATOM      2  C   UNL     1      -0.058  12.485  21.020  0.00  0.00    +0.000 A 
ATOM      3  C   UNL     1       0.799  11.448  20.632  0.00  0.00    +0.000 A 
ATOM      4  C   UNL     1       0.370  10.441  19.760  0.00  0.00    +0.000 A 
ATOM      5  C   UNL     1      -0.940  10.499  19.263  0.00  0.00    +0.000 A 
ATOM      6  C   UNL     1      -1.805  11.534  19.650  0.00  0.00    +0.000 A 
ENDROOT
BRANCH   4   7
ATOM      7  N   UNL     1       1.194   9.360  19.361  0.00  0.00    +0.000 N 
ATOM      8  C   UNL     1       1.485   8.241  20.120  0.00  0.00    +0.000 C 
ATOM      9  O   UNL     1       1.021   8.002  21.231  0.00  0.00    +0.000 OA
ATOM     10  H   UNL     1       1.538   9.381  18.411  0.00  0.00    +0.000 HD
BRANCH   8  11
ATOM     11  C   UNL     1       2.392   7.295  19.520  0.00  0.00    +0.000 A 
ATOM     12  C   UNL     1       3.071   7.213  18.322  0.00  0.00    +0.000 A 
ATOM     13  C   UNL     1       3.859   6.027  18.398  0.00  0.00    +0.000 A 
ATOM     14  N   UNL     1       3.647   5.399  19.563  0.00  0.00    +0.000 NA
ATOM     15  N   UNL     1       2.765   6.171  20.206  0.00  0.00    +0.000 N 
ATOM     16  H   UNL     1       2.458   5.901  21.136  0.00  0.00    +0.000 HD
BRANCH  13  17
ATOM     17  C   UNL     1       4.818   5.514  17.420  0.00  0.00    +0.000 A 
ATOM     18  C   UNL     1       4.546   4.323  16.732  0.00  0.00    +0.000 A 
ATOM     19  C   UNL     1       5.466   3.799  15.824  0.00  0.00    +0.000 A 
ATOM     20  C   UNL     1       6.667   4.467  15.588  0.00  0.00    +0.000 A 
ATOM     21  C   UNL     1       6.945   5.659  16.257  0.00  0.00    +0.000 A 
ATOM     22  C   UNL     1       6.025   6.180  17.170  0.00  0.00    +0.000 A 
ENDBRANCH  13  17
ENDBRANCH   8  11
ENDBRANCH   4   7
BRANCH   1  23
ATOM     23  S   UNL     1      -2.495  13.780  21.112  0.00  0.00    +0.000 S 
ATOM     24  O   UNL     1      -3.756  13.534  20.427  0.00  0.00    +0.000 OA
ATOM     25  O   UNL     1      -1.827  15.054  20.939  0.00  0.00    +0.000 OA
BRANCH  23  27
ATOM     26  C   UNL     1      -2.704  12.096  23.215  0.00  0.00    +0.000 C 
ATOM     27  N   UNL     1      -2.717  13.465  22.726  0.00  0.00    +0.000 N 
ATOM     28  C   UNL     1      -2.428  14.496  23.622  0.00  0.00    +0.000 A 
ATOM     29  N   UNL     1      -3.461  15.288  23.935  0.00  0.00    +0.000 NA
ATOM     30  C   UNL     1      -3.242  16.183  24.913  0.00  0.00    +0.000 A 
ATOM     31  C   UNL     1      -2.052  16.285  25.592  0.00  0.00    +0.000 A 
ATOM     32  C   UNL     1      -1.071  15.401  25.202  0.00  0.00    +0.000 A 
ATOM     33  N   UNL     1      -1.229  14.489  24.220  0.00  0.00    +0.000 NA
ENDBRANCH  23  27
ENDBRANCH   1  23
TORSDOF 5
ENDMDL
MODEL 4
REMARK VINA RESULT:      -8.7      2.987     11.059
REMARK  Name = 
REMARK  6 active torsions:
REMARK  status: ('A' for Active; 'I' for Inactive)
REMARK    1  A    between atoms: C_1  and  N_2
REMARK    2  A    between atoms: N_2  and  S_9
REMARK    3  A    between atoms: S_9  and  C_12
REMARK    4  A    between atoms: C_15  and  N_16
REMARK    5  A    between atoms: C_17  and  C_19
REMARK    6  A    between atoms: C_21  and  C_22
REMARK                            x       y       z     vdW  Elec       q    Type
REMARK                         _______ _______ _______ _____ _____    ______ ____
ROOT
ATOM      1  C   UNL     1       1.396   8.562  19.990  0.00  0.00    +0.000 A 
ATOM      2  C   UNL     1       1.674   9.168  18.767  0.00  0.00    +0.000 A 
ATOM      3  C   UNL     1       2.431   8.484  17.808  0.00  0.00    +0.000 A 
ATOM      4  C   UNL     1       2.945   7.208  18.064  0.00  0.00    +0.000 A 
ATOM      5  C   UNL     1       2.673   6.614  19.304  0.00  0.00    +0.000 A 
ATOM      6  C   UNL     1       1.918   7.293  20.272  0.00  0.00    +0.000 A 
ENDROOT
BRANCH   4   7
ATOM      7  N   UNL     1       3.735   6.491  17.132  0.00  0.00    +0.000 N 
ATOM      8  C   UNL     1       5.103   6.620  16.963  0.00  0.00    +0.000 C 
ATOM      9  O   UNL     1       5.833   7.337  17.639  0.00  0.00    +0.000 OA
ATOM     10  H   UNL     1       3.266   5.774  16.598  0.00  0.00    +0.000 HD
BRANCH   8  11
ATOM     11  C   UNL     1       5.682   5.819  15.914  0.00  0.00    +0.000 A 
ATOM     12  C   UNL     1       5.202   4.898  15.005  0.00  0.00    +0.000 A 
ATOM     13  C   UNL     1       6.317   4.526  14.198  0.00  0.00    +0.000 A 
ATOM     14  N   UNL     1       7.425   5.158  14.611  0.00  0.00    +0.000 NA
ATOM     15  N   UNL     1       7.019   5.913  15.637  0.00  0.00    +0.000 N 
ATOM     16  H   UNL     1       7.694   6.505  16.112  0.00  0.00    +0.000 HD
BRANCH  13  17
ATOM     17  C   UNL     1       6.337   3.632  13.041  0.00  0.00    +0.000 A 
ATOM     18  C   UNL     1       7.545   3.375  12.376  0.00  0.00    +0.000 A 
ATOM     19  C   UNL     1       7.576   2.555  11.248  0.00  0.00    +0.000 A 
ATOM     20  C   UNL     1       6.399   1.975  10.777  0.00  0.00    +0.000 A 
ATOM     21  C   UNL     1       5.193   2.213  11.436  0.00  0.00    +0.000 A 
ATOM     22  C   UNL     1       5.161   3.039  12.563  0.00  0.00    +0.000 A 
ENDBRANCH  13  17
ENDBRANCH   8  11
ENDBRANCH   4   7
BRANCH   1  23
ATOM     23  S   UNL     1       0.556   9.485  21.271  0.00  0.00    +0.000 S 
ATOM     24  O   UNL     1       1.584   9.884  22.223  0.00  0.00    +0.000 OA
ATOM     25  O   UNL     1      -0.537   8.644  21.715  0.00  0.00    +0.000 OA
BRANCH  23  27
ATOM     26  C   UNL     1      -1.215  10.793  19.704  0.00  0.00    +0.000 C 
ATOM     27  N   UNL     1      -0.034  10.858  20.549  0.00  0.00    +0.000 N 
ATOM     28  C   UNL     1       0.300  12.080  21.137  0.00  0.00    +0.000 A 
ATOM     29  N   UNL     1       1.408  12.659  20.662  0.00  0.00    +0.000 NA
ATOM     30  C   UNL     1       1.657  13.905  21.099  0.00  0.00    +0.000 A 
ATOM     31  C   UNL     1       0.827  14.584  21.960  0.00  0.00    +0.000 A 
ATOM     32  C   UNL     1      -0.297  13.897  22.361  0.00  0.00    +0.000 A 
ATOM     33  N   UNL     1      -0.593  12.642  21.963  0.00  0.00    +0.000 NA
ENDBRANCH  23  27
ENDBRANCH   1  23
TORSDOF 5
ENDMDL
MODEL 5
REMARK VINA RESULT:      -8.7      3.226      4.023
REMARK  Name = 
REMARK  6 active torsions:
REMARK  status: ('A' for Active; 'I' for Inactive)
REMARK    1  A    between atoms: C_1  and  N_2
REMARK    2  A    between atoms: N_2  and  S_9
REMARK    3  A    between atoms: S_9  and  C_12
REMARK    4  A    between atoms: C_15  and  N_16
REMARK    5  A    between atoms: C_17  and  C_19
REMARK    6  A    between atoms: C_21  and  C_22
REMARK                            x       y       z     vdW  Elec       q    Type
REMARK                         _______ _______ _______ _____ _____    ______ ____
ROOT
ATOM      1  C   UNL     1       2.139   5.051  19.178  0.00  0.00    +0.000 A 
ATOM      2  C   UNL     1       2.209   5.780  17.993  0.00  0.00    +0.000 A 
ATOM      3  C   UNL     1       2.183   7.180  18.034  0.00  0.00    +0.000 A 
ATOM      4  C   UNL     1       2.055   7.867  19.246  0.00  0.00    +0.000 A 
ATOM      5  C   UNL     1       1.968   7.124  20.431  0.00  0.00    +0.000 A 
ATOM      6  C   UNL     1       1.991   5.722  20.399  0.00  0.00    +0.000 A 
ENDROOT
BRANCH   4   7
ATOM      7  N   UNL     1       2.000   9.281  19.330  0.00  0.00    +0.000 N 
ATOM      8  C   UNL     1       0.860  10.034  19.549  0.00  0.00    +0.000 C 
ATOM      9  O   UNL     1      -0.260   9.576  19.755  0.00  0.00    +0.000 OA
ATOM     10  H   UNL     1       2.882   9.770  19.300  0.00  0.00    +0.000 HD
BRANCH   8  11
ATOM     11  C   UNL     1       1.044  11.464  19.545  0.00  0.00    +0.000 A 
ATOM     12  C   UNL     1       1.508  12.390  18.634  0.00  0.00    +0.000 A 
ATOM     13  C   UNL     1       1.363  13.663  19.260  0.00  0.00    +0.000 A 
ATOM     14  N   UNL     1       0.870  13.521  20.499  0.00  0.00    +0.000 NA
ATOM     15  N   UNL     1       0.698  12.203  20.644  0.00  0.00    +0.000 N 
ATOM     16  H   UNL     1       0.313  11.848  21.514  0.00  0.00    +0.000 HD
BRANCH  13  17
ATOM     17  C   UNL     1       1.641  14.984  18.698  0.00  0.00    +0.000 A 
ATOM     18  C   UNL     1       0.674  15.997  18.778  0.00  0.00    +0.000 A 
ATOM     19  C   UNL     1       0.907  17.250  18.214  0.00  0.00    +0.000 A 
ATOM     20  C   UNL     1       2.116  17.508  17.569  0.00  0.00    +0.000 A 
ATOM     21  C   UNL     1       3.091  16.515  17.492  0.00  0.00    +0.000 A 
ATOM     22  C   UNL     1       2.855  15.256  18.054  0.00  0.00    +0.000 A 
ENDBRANCH  13  17
ENDBRANCH   8  11
ENDBRANCH   4   7
BRANCH   1  23
ATOM     23  S   UNL     1       2.025   3.267  19.121  0.00  0.00    +0.000 S 
ATOM     24  O   UNL     1       1.216   2.950  17.952  0.00  0.00    +0.000 OA
ATOM     25  O   UNL     1       1.570   2.857  20.434  0.00  0.00    +0.000 OA
BRANCH  23  27
ATOM     26  C   UNL     1       3.793   1.301  18.563  0.00  0.00    +0.000 C 
ATOM     27  N   UNL     1       3.563   2.708  18.847  0.00  0.00    +0.000 N 
ATOM     28  C   UNL     1       4.512   3.639  18.418  0.00  0.00    +0.000 A 
ATOM     29  N   UNL     1       5.214   4.230  19.392  0.00  0.00    +0.000 NA
ATOM     30  C   UNL     1       6.236   5.006  18.994  0.00  0.00    +0.000 A 
ATOM     31  C   UNL     1       6.585   5.181  17.676  0.00  0.00    +0.000 A 
ATOM     32  C   UNL     1       5.806   4.503  16.764  0.00  0.00    +0.000 A 
ATOM     33  N   UNL     1       4.762   3.719  17.105  0.00  0.00    +0.000 NA
ENDBRANCH  23  27
ENDBRANCH   1  23
TORSDOF 5
ENDMDL
MODEL 6
REMARK VINA RESULT:      -8.7      1.593      2.439
REMARK  Name = 
REMARK  6 active torsions:
REMARK  status: ('A' for Active; 'I' for Inactive)
REMARK    1  A    between atoms: C_1  and  N_2
REMARK    2  A    between atoms: N_2  and  S_9
REMARK    3  A    between atoms: S_9  and  C_12
REMARK    4  A    between atoms: C_15  and  N_16
REMARK    5  A    between atoms: C_17  and  C_19
REMARK    6  A    between atoms: C_21  and  C_22
REMARK                            x       y       z     vdW  Elec       q    Type
REMARK                         _______ _______ _______ _____ _____    ______ ____
ROOT
ATOM      1  C   UNL     1       2.482   5.753  19.207  0.00  0.00    +0.000 A 
ATOM      2  C   UNL     1       1.899   5.718  20.472  0.00  0.00    +0.000 A 
ATOM      3  C   UNL     1       1.363   6.888  21.024  0.00  0.00    +0.000 A 
ATOM      4  C   UNL     1       1.430   8.108  20.342  0.00  0.00    +0.000 A 
ATOM      5  C   UNL     1       2.034   8.136  19.077  0.00  0.00    +0.000 A 
ATOM      6  C   UNL     1       2.575   6.968  18.518  0.00  0.00    +0.000 A 
ENDROOT
BRANCH   4   7
ATOM      7  N   UNL     1       0.924   9.320  20.873  0.00  0.00    +0.000 N 
ATOM      8  C   UNL     1      -0.130   9.435  21.763  0.00  0.00    +0.000 C 
ATOM      9  O   UNL     1      -0.740   8.493  22.259  0.00  0.00    +0.000 OA
ATOM     10  H   UNL     1       1.426  10.163  20.635  0.00  0.00    +0.000 HD
BRANCH   8  11
ATOM     11  C   UNL     1      -0.499  10.781  22.125  0.00  0.00    +0.000 A 
ATOM     12  C   UNL     1      -1.497  11.352  22.888  0.00  0.00    +0.000 A 
ATOM     13  C   UNL     1      -1.240  12.754  22.882  0.00  0.00    +0.000 A 
ATOM     14  N   UNL     1      -0.166  13.031  22.129  0.00  0.00    +0.000 NA
ATOM     15  N   UNL     1       0.249  11.839  21.685  0.00  0.00    +0.000 N 
ATOM     16  H   UNL     1       1.074  11.792  21.095  0.00  0.00    +0.000 HD
BRANCH  13  17
ATOM     17  C   UNL     1      -1.960  13.808  23.597  0.00  0.00    +0.000 A 
ATOM     18  C   UNL     1      -1.248  14.768  24.331  0.00  0.00    +0.000 A 
ATOM     19  C   UNL     1      -1.919  15.756  25.050  0.00  0.00    +0.000 A 
ATOM     20  C   UNL     1      -3.313  15.801  25.035  0.00  0.00    +0.000 A 
ATOM     21  C   UNL     1      -4.033  14.860  24.301  0.00  0.00    +0.000 A 
ATOM     22  C   UNL     1      -3.360  13.866  23.585  0.00  0.00    +0.000 A 
ENDBRANCH  13  17
ENDBRANCH   8  11
ENDBRANCH   4   7
BRANCH   1  23
ATOM     23  S   UNL     1       3.295   4.296  18.561  0.00  0.00    +0.000 S 
ATOM     24  O   UNL     1       2.607   3.966  17.320  0.00  0.00    +0.000 OA
ATOM     25  O   UNL     1       3.309   3.336  19.645  0.00  0.00    +0.000 OA
BRANCH  23  27
ATOM     26  C   UNL     1       5.897   4.684  19.181  0.00  0.00    +0.000 C 
ATOM     27  N   UNL     1       4.844   4.755  18.181  0.00  0.00    +0.000 N 
ATOM     28  C   UNL     1       5.203   4.728  16.832  0.00  0.00    +0.000 A 
ATOM     29  N   UNL     1       5.014   5.874  16.167  0.00  0.00    +0.000 NA
ATOM     30  C   UNL     1       5.500   5.917  14.915  0.00  0.00    +0.000 A 
ATOM     31  C   UNL     1       6.181   4.875  14.332  0.00  0.00    +0.000 A 
ATOM     32  C   UNL     1       6.338   3.757  15.121  0.00  0.00    +0.000 A 
ATOM     33  N   UNL     1       5.863   3.653  16.380  0.00  0.00    +0.000 NA
ENDBRANCH  23  27
ENDBRANCH   1  23
TORSDOF 5
ENDMDL
MODEL 7
REMARK VINA RESULT:      -8.6      2.275      3.488
REMARK  Name = 
REMARK  6 active torsions:
REMARK  status: ('A' for Active; 'I' for Inactive)
REMARK    1  A    between atoms: C_1  and  N_2
REMARK    2  A    between atoms: N_2  and  S_9
REMARK    3  A    between atoms: S_9  and  C_12
REMARK    4  A    between atoms: C_15  and  N_16
REMARK    5  A    between atoms: C_17  and  C_19
REMARK    6  A    between atoms: C_21  and  C_22
REMARK                            x       y       z     vdW  Elec       q    Type
REMARK                         _______ _______ _______ _____ _____    ______ ____
ROOT
ATOM      1  C   UNL     1       3.374   7.013  18.482  0.00  0.00    +0.000 A 
ATOM      2  C   UNL     1       2.772   6.840  19.727  0.00  0.00    +0.000 A 
ATOM      3  C   UNL     1       1.751   7.708  20.133  0.00  0.00    +0.000 A 
ATOM      4  C   UNL     1       1.341   8.774  19.324  0.00  0.00    +0.000 A 
ATOM      5  C   UNL     1       1.964   8.949  18.080  0.00  0.00    +0.000 A 
ATOM      6  C   UNL     1       2.989   8.085  17.667  0.00  0.00    +0.000 A 
ENDROOT
BRANCH   4   7
ATOM      7  N   UNL     1       0.330   9.690  19.706  0.00  0.00    +0.000 N 
ATOM      8  C   UNL     1       0.344  10.484  20.840  0.00  0.00    +0.000 C 
ATOM      9  O   UNL     1       1.266  10.544  21.647  0.00  0.00    +0.000 OA
ATOM     10  H   UNL     1      -0.429   9.824  19.054  0.00  0.00    +0.000 HD
BRANCH   8  11
ATOM     11  C   UNL     1      -0.824  11.303  21.044  0.00  0.00    +0.000 A 
ATOM     12  C   UNL     1      -1.452  11.860  22.140  0.00  0.00    +0.000 A 
ATOM     13  C   UNL     1      -2.541  12.621  21.622  0.00  0.00    +0.000 A 
ATOM     14  N   UNL     1      -2.598  12.509  20.287  0.00  0.00    +0.000 NA
ATOM     15  N   UNL     1      -1.571  11.714  19.973  0.00  0.00    +0.000 N 
ATOM     16  H   UNL     1      -1.399  11.493  18.996  0.00  0.00    +0.000 HD
BRANCH  13  17
ATOM     17  C   UNL     1      -3.482  13.466  22.356  0.00  0.00    +0.000 A 
ATOM     18  C   UNL     1      -3.064  14.138  23.515  0.00  0.00    +0.000 A 
ATOM     19  C   UNL     1      -3.958  14.917  24.248  0.00  0.00    +0.000 A 
ATOM     20  C   UNL     1      -5.281  15.040  23.825  0.00  0.00    +0.000 A 
ATOM     21  C   UNL     1      -5.708  14.387  22.670  0.00  0.00    +0.000 A 
ATOM     22  C   UNL     1      -4.812  13.602  21.938  0.00  0.00    +0.000 A 
ENDBRANCH  13  17
ENDBRANCH   8  11
ENDBRANCH   4   7
BRANCH   1  23
ATOM     23  S   UNL     1       4.774   5.999  18.021  0.00  0.00    +0.000 S 
ATOM     24  O   UNL     1       5.322   5.476  19.265  0.00  0.00    +0.000 OA
ATOM     25  O   UNL     1       5.602   6.830  17.172  0.00  0.00    +0.000 OA
BRANCH  23  27
ATOM     26  C   UNL     1       4.835   4.265  15.949  0.00  0.00    +0.000 C 
ATOM     27  N   UNL     1       4.162   4.723  17.154  0.00  0.00    +0.000 N 
ATOM     28  C   UNL     1       3.332   3.830  17.835  0.00  0.00    +0.000 A 
ATOM     29  N   UNL     1       2.025   4.112  17.784  0.00  0.00    +0.000 NA
ATOM     30  C   UNL     1       1.200   3.182  18.295  0.00  0.00    +0.000 A 
ATOM     31  C   UNL     1       1.638   1.990  18.819  0.00  0.00    +0.000 A 
ATOM     32  C   UNL     1       3.002   1.799  18.795  0.00  0.00    +0.000 A 
ATOM     33  N   UNL     1       3.878   2.700  18.304  0.00  0.00    +0.000 NA
ENDBRANCH  23  27
ENDBRANCH   1  23
TORSDOF 5
ENDMDL
MODEL 8
REMARK VINA RESULT:      -8.6      4.059     11.750
REMARK  Name = 
REMARK  6 active torsions:
REMARK  status: ('A' for Active; 'I' for Inactive)
REMARK    1  A    between atoms: C_1  and  N_2
REMARK    2  A    between atoms: N_2  and  S_9
REMARK    3  A    between atoms: S_9  and  C_12
REMARK    4  A    between atoms: C_15  and  N_16
REMARK    5  A    between atoms: C_17  and  C_19
REMARK    6  A    between atoms: C_21  and  C_22
REMARK                            x       y       z     vdW  Elec       q    Type
REMARK                         _______ _______ _______ _____ _____    ______ ____
ROOT
ATOM      1  C   UNL     1      -1.733  12.542  22.399  0.00  0.00    +0.000 A 
ATOM      2  C   UNL     1      -1.575  11.348  23.098  0.00  0.00    +0.000 A 
ATOM      3  C   UNL     1      -0.764  10.335  22.572  0.00  0.00    +0.000 A 
ATOM      4  C   UNL     1      -0.130  10.484  21.333  0.00  0.00    +0.000 A 
ATOM      5  C   UNL     1      -0.309  11.683  20.629  0.00  0.00    +0.000 A 
ATOM      6  C   UNL     1      -1.122  12.702  21.149  0.00  0.00    +0.000 A 
ENDROOT
BRANCH   4   7
ATOM      7  N   UNL     1       0.679   9.476  20.753  0.00  0.00    +0.000 N 
ATOM      8  C   UNL     1       1.137   9.458  19.447  0.00  0.00    +0.000 C 
ATOM      9  O   UNL     1       0.951  10.348  18.622  0.00  0.00    +0.000 OA
ATOM     10  H   UNL     1       1.005   8.746  21.370  0.00  0.00    +0.000 HD
BRANCH   8  11
ATOM     11  C   UNL     1       1.905   8.299  19.069  0.00  0.00    +0.000 A 
ATOM     12  C   UNL     1       2.511   7.860  17.909  0.00  0.00    +0.000 A 
ATOM     13  C   UNL     1       3.169   6.641  18.248  0.00  0.00    +0.000 A 
ATOM     14  N   UNL     1       2.949   6.332  19.535  0.00  0.00    +0.000 NA
ATOM     15  N   UNL     1       2.189   7.331  19.994  0.00  0.00    +0.000 N 
ATOM     16  H   UNL     1       1.901   7.325  20.968  0.00  0.00    +0.000 HD
BRANCH  13  17
ATOM     17  C   UNL     1       4.016   5.805  17.399  0.00  0.00    +0.000 A 
ATOM     18  C   UNL     1       3.989   4.410  17.540  0.00  0.00    +0.000 A 
ATOM     19  C   UNL     1       4.818   3.599  16.765  0.00  0.00    +0.000 A 
ATOM     20  C   UNL     1       5.681   4.176  15.833  0.00  0.00    +0.000 A 
ATOM     21  C   UNL     1       5.710   5.561  15.675  0.00  0.00    +0.000 A 
ATOM     22  C   UNL     1       4.882   6.373  16.455  0.00  0.00    +0.000 A 
ENDBRANCH  13  17
ENDBRANCH   8  11
ENDBRANCH   4   7
BRANCH   1  23
ATOM     23  S   UNL     1      -2.881  13.779  22.994  0.00  0.00    +0.000 S 
ATOM     24  O   UNL     1      -2.363  15.062  22.542  0.00  0.00    +0.000 OA
ATOM     25  O   UNL     1      -3.028  13.530  24.414  0.00  0.00    +0.000 OA
BRANCH  23  27
ATOM     26  C   UNL     1      -4.348  12.705  20.995  0.00  0.00    +0.000 C 
ATOM     27  N   UNL     1      -4.317  13.500  22.211  0.00  0.00    +0.000 N 
ATOM     28  C   UNL     1      -5.486  13.607  22.969  0.00  0.00    +0.000 A 
ATOM     29  N   UNL     1      -6.058  14.817  22.970  0.00  0.00    +0.000 NA
ATOM     30  C   UNL     1      -7.263  14.899  23.559  0.00  0.00    +0.000 A 
ATOM     31  C   UNL     1      -7.911  13.819  24.109  0.00  0.00    +0.000 A 
ATOM     32  C   UNL     1      -7.237  12.620  24.026  0.00  0.00    +0.000 A 
ATOM     33  N   UNL     1      -6.021  12.480  23.456  0.00  0.00    +0.000 NA
ENDBRANCH  23  27
ENDBRANCH   1  23
TORSDOF 5
ENDMDL
MODEL 9
REMARK VINA RESULT:      -8.6      1.965      2.431
REMARK  Name = 
REMARK  6 active torsions:
REMARK  status: ('A' for Active; 'I' for Inactive)
REMARK    1  A    between atoms: C_1  and  N_2
REMARK    2  A    between atoms: N_2  and  S_9
REMARK    3  A    between atoms: S_9  and  C_12
REMARK    4  A    between atoms: C_15  and  N_16
REMARK    5  A    between atoms: C_17  and  C_19
REMARK    6  A    between atoms: C_21  and  C_22
REMARK                            x       y       z     vdW  Elec       q    Type
REMARK                         _______ _______ _______ _____ _____    ______ ____
ROOT
ATOM      1  C   UNL     1       3.138   5.321  19.598  0.00  0.00    +0.000 A 
ATOM      2  C   UNL     1       2.269   5.191  20.679  0.00  0.00    +0.000 A 
ATOM      3  C   UNL     1       1.431   6.255  21.031  0.00  0.00    +0.000 A 
ATOM      4  C   UNL     1       1.470   7.469  20.336  0.00  0.00    +0.000 A 
ATOM      5  C   UNL     1       2.359   7.596  19.260  0.00  0.00    +0.000 A 
ATOM      6  C   UNL     1       3.204   6.535  18.902  0.00  0.00    +0.000 A 
ENDROOT
BRANCH   4   7
ATOM      7  N   UNL     1       0.657   8.580  20.674  0.00  0.00    +0.000 N 
ATOM      8  C   UNL     1       0.821   9.395  21.780  0.00  0.00    +0.000 C 
ATOM      9  O   UNL     1       1.732   9.301  22.597  0.00  0.00    +0.000 OA
ATOM     10  H   UNL     1      -0.056   8.837  20.008  0.00  0.00    +0.000 HD
BRANCH   8  11
ATOM     11  C   UNL     1      -0.163  10.436  21.942  0.00  0.00    +0.000 A 
ATOM     12  C   UNL     1      -0.800  11.025  23.015  0.00  0.00    +0.000 A 
ATOM     13  C   UNL     1      -1.623  12.052  22.466  0.00  0.00    +0.000 A 
ATOM     14  N   UNL     1      -1.523  12.068  21.129  0.00  0.00    +0.000 NA
ATOM     15  N   UNL     1      -0.655  11.091  20.846  0.00  0.00    +0.000 N 
ATOM     16  H   UNL     1      -0.404  10.920  19.877  0.00  0.00    +0.000 HD
BRANCH  13  17
ATOM     17  C   UNL     1      -2.453  13.022  23.179  0.00  0.00    +0.000 A 
ATOM     18  C   UNL     1      -3.848  12.881  23.183  0.00  0.00    +0.000 A 
ATOM     19  C   UNL     1      -4.657  13.818  23.825  0.00  0.00    +0.000 A 
ATOM     20  C   UNL     1      -4.078  14.905  24.479  0.00  0.00    +0.000 A 
ATOM     21  C   UNL     1      -2.691  15.052  24.493  0.00  0.00    +0.000 A 
ATOM     22  C   UNL     1      -1.881  14.115  23.845  0.00  0.00    +0.000 A 
ENDBRANCH  13  17
ENDBRANCH   8  11
ENDBRANCH   4   7
BRANCH   1  23
ATOM     23  S   UNL     1       4.311   4.020  19.235  0.00  0.00    +0.000 S 
ATOM     24  O   UNL     1       3.883   2.862  20.007  0.00  0.00    +0.000 OA
ATOM     25  O   UNL     1       5.621   4.591  19.473  0.00  0.00    +0.000 OA
BRANCH  23  27
ATOM     26  C   UNL     1       2.845   3.197  17.119  0.00  0.00    +0.000 C 
ATOM     27  N   UNL     1       4.127   3.659  17.626  0.00  0.00    +0.000 N 
ATOM     28  C   UNL     1       5.022   4.254  16.733  0.00  0.00    +0.000 A 
ATOM     29  N   UNL     1       6.122   3.541  16.467  0.00  0.00    +0.000 NA
ATOM     30  C   UNL     1       6.915   4.021  15.493  0.00  0.00    +0.000 A 
ATOM     31  C   UNL     1       6.626   5.156  14.775  0.00  0.00    +0.000 A 
ATOM     32  C   UNL     1       5.454   5.792  15.120  0.00  0.00    +0.000 A 
ATOM     33  N   UNL     1       4.626   5.363  16.095  0.00  0.00    +0.000 NA
ENDBRANCH  23  27
ENDBRANCH   1  23
TORSDOF 5
ENDMDL
