MODEL 1
REMARK VINA RESULT:      -8.0      0.000      0.000
REMARK  Name = 
REMARK  8 active torsions:
REMARK  status: ('A' for Active; 'I' for Inactive)
REMARK    1  A    between atoms: C_1  and  C_2
REMARK    2  A    between atoms: C_2  and  O_3
REMARK    3  A    between atoms: O_3  and  C_4
REMARK    4  A    between atoms: C_6  and  C_7
REMARK    5  A    between atoms: C_12  and  C_13
REMARK    6  A    between atoms: C_19  and  C_20
REMARK    7  A    between atoms: C_27  and  N_28
REMARK    8  A    between atoms: C_31  and  O_32
REMARK                            x       y       z     vdW  Elec       q    Type
REMARK                         _______ _______ _______ _____ _____    ______ ____
ROOT
ATOM      1  C   UNL     1      -1.077  12.413  20.456  0.00  0.00    +0.000 C 
ATOM      2  N   UNL     1      -1.233  12.045  21.830  0.00  0.00    +0.000 N 
ATOM      3  C   UNL     1      -0.752  10.905  22.384  0.00  0.00    +0.000 C 
ATOM      4  O   UNL     1      -1.067  10.642  23.540  0.00  0.00    +0.000 OA
ATOM      5  N   UNL     1       0.027  10.087  21.630  0.00  0.00    +0.000 NA
ATOM      6  C   UNL     1       0.428  10.394  20.436  0.00  0.00    +0.000 C 
ATOM      7  C   UNL     1       0.098  11.716  19.756  0.00  0.00    +0.000 C 
ATOM      8  H   UNL     1      -1.873  12.551  22.425  0.00  0.00    +0.000 HD
ENDROOT
BRANCH   1  11
ATOM      9  C   UNL     1      -3.499  11.071  17.793  0.00  0.00    +0.000 A 
ATOM     10  C   UNL     1      -2.327  11.427  18.481  0.00  0.00    +0.000 A 
ATOM     11  C   UNL     1      -2.366  12.167  19.671  0.00  0.00    +0.000 A 
ATOM     12  C   UNL     1      -3.620  12.554  20.167  0.00  0.00    +0.000 A 
ATOM     13  C   UNL     1      -4.802  12.145  19.522  0.00  0.00    +0.000 A 
ATOM     14  C   UNL     1      -4.753  11.402  18.328  0.00  0.00    +0.000 A 
BRANCH  13  15
ATOM     15  N   UNL     1      -6.083  12.449  20.174  0.00  0.00    +0.000 N 
ATOM     16  O   UNL     1      -6.880  13.186  19.580  0.00  0.00    +0.000 OA
ATOM     17  O   UNL     1      -6.281  11.966  21.300  0.00  0.00    +0.000 OA
ENDBRANCH  13  15
BRANCH  14  18
ATOM     18  O   UNL     1      -5.874  10.946  17.683  0.00  0.00    +0.000 OA
ATOM     19  H   UNL     1      -5.955  11.355  16.795  0.00  0.00    +0.000 HD
ENDBRANCH  14  18
BRANCH   9  20
ATOM     20  O   UNL     1      -3.245  10.345  16.659  0.00  0.00    +0.000 OA
BRANCH  20  22
ATOM     21  C   UNL     1      -2.983  10.036  14.316  0.00  0.00    +0.000 C 
ATOM     22  C   UNL     1      -3.206  11.055  15.421  0.00  0.00    +0.000 C 
ENDBRANCH  20  22
ENDBRANCH   9  20
ENDBRANCH   1  11
BRANCH   6  23
ATOM     23  C   UNL     1       1.235   9.374  19.674  0.00  0.00    +0.000 A 
ATOM     24  C   UNL     1       1.539   9.531  18.316  0.00  0.00    +0.000 A 
ATOM     25  C   UNL     1       2.200   8.523  17.615  0.00  0.00    +0.000 A 
ATOM     26  C   UNL     1       2.582   7.355  18.268  0.00  0.00    +0.000 A 
ATOM     27  C   UNL     1       2.319   7.201  19.627  0.00  0.00    +0.000 A 
ATOM     28  C   UNL     1       1.647   8.205  20.331  0.00  0.00    +0.000 A 
ENDBRANCH   6  23
BRANCH   7  29
ATOM     29  C   UNL     1       1.307  12.605  19.496  0.00  0.00    +0.000 A 
ATOM     30  C   UNL     1       2.069  13.029  20.601  0.00  0.00    +0.000 A 
ATOM     31  C   UNL     1       3.085  13.970  20.452  0.00  0.00    +0.000 A 
ATOM     32  C   UNL     1       3.366  14.493  19.193  0.00  0.00    +0.000 A 
ATOM     33  C   UNL     1       2.653  14.047  18.081  0.00  0.00    +0.000 A 
ATOM     34  C   UNL     1       1.638  13.097  18.226  0.00  0.00    +0.000 A 
ENDBRANCH   7  29
TORSDOF 7
ENDMDL
MODEL 2
REMARK VINA RESULT:      -7.8      0.235      1.034
REMARK  Name = 
REMARK  8 active torsions:
REMARK  status: ('A' for Active; 'I' for Inactive)
REMARK    1  A    between atoms: C_1  and  C_2
REMARK    2  A    between atoms: C_2  and  O_3
REMARK    3  A    between atoms: O_3  and  C_4
REMARK    4  A    between atoms: C_6  and  C_7
REMARK    5  A    between atoms: C_12  and  C_13
REMARK    6  A    between atoms: C_19  and  C_20
REMARK    7  A    between atoms: C_27  and  N_28
REMARK    8  A    between atoms: C_31  and  O_32
REMARK                            x       y       z     vdW  Elec       q    Type
REMARK                         _______ _______ _______ _____ _____    ______ ____
ROOT
ATOM      1  C   UNL     1      -1.166  12.434  20.437  0.00  0.00    +0.000 C 
ATOM      2  N   UNL     1      -1.331  12.110  21.820  0.00  0.00    +0.000 N 
ATOM      3  C   UNL     1      -0.886  10.970  22.405  0.00  0.00    +0.000 C 
ATOM      4  O   UNL     1      -1.207  10.749  23.569  0.00  0.00    +0.000 OA
ATOM      5  N   UNL     1      -0.137  10.105  21.673  0.00  0.00    +0.000 NA
ATOM      6  C   UNL     1       0.272  10.365  20.470  0.00  0.00    +0.000 C 
ATOM      7  C   UNL     1      -0.016  11.678  19.754  0.00  0.00    +0.000 C 
ATOM      8  H   UNL     1      -1.952  12.653  22.402  0.00  0.00    +0.000 HD
ENDROOT
BRANCH   1  11
ATOM      9  C   UNL     1      -3.652  11.054  17.853  0.00  0.00    +0.000 A 
ATOM     10  C   UNL     1      -2.464  11.388  18.523  0.00  0.00    +0.000 A 
ATOM     11  C   UNL     1      -2.464  12.209  19.660  0.00  0.00    +0.000 A 
ATOM     12  C   UNL     1      -3.695  12.701  20.120  0.00  0.00    +0.000 A 
ATOM     13  C   UNL     1      -4.896  12.317  19.495  0.00  0.00    +0.000 A 
ATOM     14  C   UNL     1      -4.886  11.493  18.355  0.00  0.00    +0.000 A 
BRANCH  13  15
ATOM     15  N   UNL     1      -6.160  12.738  20.115  0.00  0.00    +0.000 N 
ATOM     16  O   UNL     1      -6.301  12.559  21.332  0.00  0.00    +0.000 OA
ATOM     17  O   UNL     1      -7.027  13.227  19.374  0.00  0.00    +0.000 OA
ENDBRANCH  13  15
BRANCH  14  18
ATOM     18  O   UNL     1      -6.030  11.059  17.734  0.00  0.00    +0.000 OA
ATOM     19  H   UNL     1      -6.705  10.796  18.395  0.00  0.00    +0.000 HD
ENDBRANCH  14  18
BRANCH   9  20
ATOM     20  O   UNL     1      -3.437  10.239  16.773  0.00  0.00    +0.000 OA
BRANCH  20  22
ATOM     21  C   UNL     1      -3.325  10.228  14.398  0.00  0.00    +0.000 C 
ATOM     22  C   UNL     1      -2.714  10.787  15.671  0.00  0.00    +0.000 C 
ENDBRANCH  20  22
ENDBRANCH   9  20
ENDBRANCH   1  11
BRANCH   6  23
ATOM     23  C   UNL     1       1.042   9.298  19.736  0.00  0.00    +0.000 A 
ATOM     24  C   UNL     1       1.557   8.172  20.389  0.00  0.00    +0.000 A 
ATOM     25  C   UNL     1       2.350   7.253  19.701  0.00  0.00    +0.000 A 
ATOM     26  C   UNL     1       2.620   7.440  18.350  0.00  0.00    +0.000 A 
ATOM     27  C   UNL     1       2.083   8.535  17.679  0.00  0.00    +0.000 A 
ATOM     28  C   UNL     1       1.297   9.464  18.367  0.00  0.00    +0.000 A 
ENDBRANCH   6  23
BRANCH   7  29
ATOM     29  C   UNL     1       1.222  12.519  19.468  0.00  0.00    +0.000 A 
ATOM     30  C   UNL     1       1.998  12.951  20.559  0.00  0.00    +0.000 A 
ATOM     31  C   UNL     1       3.044  13.853  20.382  0.00  0.00    +0.000 A 
ATOM     32  C   UNL     1       3.341  14.328  19.108  0.00  0.00    +0.000 A 
ATOM     33  C   UNL     1       2.613  13.872  18.010  0.00  0.00    +0.000 A 
ATOM     34  C   UNL     1       1.567  12.961  18.184  0.00  0.00    +0.000 A 
ENDBRANCH   7  29
TORSDOF 7
ENDMDL
MODEL 3
REMARK VINA RESULT:      -7.8      3.517      7.337
REMARK  Name = 
REMARK  8 active torsions:
REMARK  status: ('A' for Active; 'I' for Inactive)
REMARK    1  A    between atoms: C_1  and  C_2
REMARK    2  A    between atoms: C_2  and  O_3
REMARK    3  A    between atoms: O_3  and  C_4
REMARK    4  A    between atoms: C_6  and  C_7
REMARK    5  A    between atoms: C_12  and  C_13
REMARK    6  A    between atoms: C_19  and  C_20
REMARK    7  A    between atoms: C_27  and  N_28
REMARK    8  A    between atoms: C_31  and  O_32
REMARK                            x       y       z     vdW  Elec       q    Type
REMARK                         _______ _______ _______ _____ _____    ______ ____
ROOT
ATOM      1  C   UNL     1       0.119   8.572  20.479  0.00  0.00    +0.000 C 
ATOM      2  N   UNL     1      -0.028   8.733  21.892  0.00  0.00    +0.000 N 
ATOM      3  C   UNL     1       0.369   9.824  22.592  0.00  0.00    +0.000 C 
ATOM      4  O   UNL     1       0.308   9.785  23.817  0.00  0.00    +0.000 OA
ATOM      5  N   UNL     1       0.849  10.899  21.915  0.00  0.00    +0.000 NA
ATOM      6  C   UNL     1       0.845  10.981  20.621  0.00  0.00    +0.000 C 
ATOM      7  C   UNL     1       0.275   9.896  19.716  0.00  0.00    +0.000 C 
ATOM      8  H   UNL     1      -0.288   7.947  22.472  0.00  0.00    +0.000 HD
ENDROOT
BRANCH   1  11
ATOM      9  C   UNL     1       2.409   5.487  20.465  0.00  0.00    +0.000 A 
ATOM     10  C   UNL     1       1.424   6.422  20.821  0.00  0.00    +0.000 A 
ATOM     11  C   UNL     1       1.291   7.646  20.149  0.00  0.00    +0.000 A 
ATOM     12  C   UNL     1       2.180   7.923  19.099  0.00  0.00    +0.000 A 
ATOM     13  C   UNL     1       3.126   6.965  18.692  0.00  0.00    +0.000 A 
ATOM     14  C   UNL     1       3.252   5.740  19.372  0.00  0.00    +0.000 A 
BRANCH  13  15
ATOM     15  N   UNL     1       3.922   7.250  17.491  0.00  0.00    +0.000 N 
ATOM     16  O   UNL     1       5.056   6.759  17.411  0.00  0.00    +0.000 OA
ATOM     17  O   UNL     1       3.418   7.992  16.633  0.00  0.00    +0.000 OA
ENDBRANCH  13  15
BRANCH  14  18
ATOM     18  O   UNL     1       4.130   4.757  18.990  0.00  0.00    +0.000 OA
ATOM     19  H   UNL     1       3.863   3.889  19.361  0.00  0.00    +0.000 HD
ENDBRANCH  14  18
BRANCH   9  20
ATOM     20  O   UNL     1       2.367   4.357  21.237  0.00  0.00    +0.000 OA
BRANCH  20  22
ATOM     21  C   UNL     1       1.786   2.336  20.126  0.00  0.00    +0.000 C 
ATOM     22  C   UNL     1       1.281   3.455  21.021  0.00  0.00    +0.000 C 
ENDBRANCH  20  22
ENDBRANCH   9  20
ENDBRANCH   1  11
BRANCH   6  23
ATOM     23  C   UNL     1       1.466  12.197  19.984  0.00  0.00    +0.000 A 
ATOM     24  C   UNL     1       1.471  13.446  20.617  0.00  0.00    +0.000 A 
ATOM     25  C   UNL     1       1.964  14.573  19.960  0.00  0.00    +0.000 A 
ATOM     26  C   UNL     1       2.474  14.461  18.671  0.00  0.00    +0.000 A 
ATOM     27  C   UNL     1       2.510  13.218  18.044  0.00  0.00    +0.000 A 
ATOM     28  C   UNL     1       2.007  12.088  18.695  0.00  0.00    +0.000 A 
ENDBRANCH   6  23
BRANCH   7  29
ATOM     29  C   UNL     1      -0.952  10.325  18.922  0.00  0.00    +0.000 A 
ATOM     30  C   UNL     1      -1.145   9.764  17.646  0.00  0.00    +0.000 A 
ATOM     31  C   UNL     1      -2.152  10.231  16.803  0.00  0.00    +0.000 A 
ATOM     32  C   UNL     1      -2.991  11.256  17.228  0.00  0.00    +0.000 A 
ATOM     33  C   UNL     1      -2.844  11.788  18.508  0.00  0.00    +0.000 A 
ATOM     34  C   UNL     1      -1.840  11.317  19.359  0.00  0.00    +0.000 A 
ENDBRANCH   7  29
TORSDOF 7
ENDMDL
MODEL 4
REMARK VINA RESULT:      -7.8      3.525      7.296
REMARK  Name = 
REMARK  8 active torsions:
REMARK  status: ('A' for Active; 'I' for Inactive)
REMARK    1  A    between atoms: C_1  and  C_2
REMARK    2  A    between atoms: C_2  and  O_3
REMARK    3  A    between atoms: O_3  and  C_4
REMARK    4  A    between atoms: C_6  and  C_7
REMARK    5  A    between atoms: C_12  and  C_13
REMARK    6  A    between atoms: C_19  and  C_20
REMARK    7  A    between atoms: C_27  and  N_28
REMARK    8  A    between atoms: C_31  and  O_32
REMARK                            x       y       z     vdW  Elec       q    Type
REMARK                         _______ _______ _______ _____ _____    ______ ____
ROOT
ATOM      1  C   UNL     1       0.161   8.539  20.470  0.00  0.00    +0.000 C 
ATOM      2  N   UNL     1       0.023   8.694  21.885  0.00  0.00    +0.000 N 
ATOM      3  C   UNL     1       0.427   9.782  22.587  0.00  0.00    +0.000 C 
ATOM      4  O   UNL     1       0.375   9.737  23.812  0.00  0.00    +0.000 OA
ATOM      5  N   UNL     1       0.904  10.859  21.911  0.00  0.00    +0.000 NA
ATOM      6  C   UNL     1       0.890  10.946  20.617  0.00  0.00    +0.000 C 
ATOM      7  C   UNL     1       0.312   9.866  19.712  0.00  0.00    +0.000 C 
ATOM      8  H   UNL     1      -0.233   7.906  22.464  0.00  0.00    +0.000 HD
ENDROOT
BRANCH   1  11
ATOM      9  C   UNL     1       2.437   5.445  20.412  0.00  0.00    +0.000 A 
ATOM     10  C   UNL     1       1.455   6.378  20.780  0.00  0.00    +0.000 A 
ATOM     11  C   UNL     1       1.329   7.613  20.128  0.00  0.00    +0.000 A 
ATOM     12  C   UNL     1       2.221   7.903  19.084  0.00  0.00    +0.000 A 
ATOM     13  C   UNL     1       3.164   6.947  18.664  0.00  0.00    +0.000 A 
ATOM     14  C   UNL     1       3.283   5.711  19.325  0.00  0.00    +0.000 A 
BRANCH  13  15
ATOM     15  N   UNL     1       3.963   7.248  17.468  0.00  0.00    +0.000 N 
ATOM     16  O   UNL     1       3.422   7.870  16.545  0.00  0.00    +0.000 OA
ATOM     17  O   UNL     1       5.134   6.834  17.443  0.00  0.00    +0.000 OA
ENDBRANCH  13  15
BRANCH  14  18
ATOM     18  O   UNL     1       4.157   4.731  18.929  0.00  0.00    +0.000 OA
ATOM     19  H   UNL     1       4.647   4.371  19.698  0.00  0.00    +0.000 HD
ENDBRANCH  14  18
BRANCH   9  20
ATOM     20  O   UNL     1       2.388   4.302  21.166  0.00  0.00    +0.000 OA
BRANCH  20  22
ATOM     21  C   UNL     1       1.485   2.562  19.820  0.00  0.00    +0.000 C 
ATOM     22  C   UNL     1       1.241   3.466  21.016  0.00  0.00    +0.000 C 
ENDBRANCH  20  22
ENDBRANCH   9  20
ENDBRANCH   1  11
BRANCH   6  23
ATOM     23  C   UNL     1       1.507  12.165  19.981  0.00  0.00    +0.000 A 
ATOM     24  C   UNL     1       2.016  12.144  18.677  0.00  0.00    +0.000 A 
ATOM     25  C   UNL     1       2.671  13.259  18.153  0.00  0.00    +0.000 A 
ATOM     26  C   UNL     1       2.808  14.412  18.919  0.00  0.00    +0.000 A 
ATOM     27  C   UNL     1       2.273  14.458  20.204  0.00  0.00    +0.000 A 
ATOM     28  C   UNL     1       1.626  13.340  20.737  0.00  0.00    +0.000 A 
ENDBRANCH   6  23
BRANCH   7  29
ATOM     29  C   UNL     1      -0.920  10.300  18.928  0.00  0.00    +0.000 A 
ATOM     30  C   UNL     1      -1.122   9.747  17.650  0.00  0.00    +0.000 A 
ATOM     31  C   UNL     1      -2.134  10.219  16.817  0.00  0.00    +0.000 A 
ATOM     32  C   UNL     1      -2.970  11.241  17.254  0.00  0.00    +0.000 A 
ATOM     33  C   UNL     1      -2.815  11.765  18.537  0.00  0.00    +0.000 A 
ATOM     34  C   UNL     1      -1.805  11.289  19.378  0.00  0.00    +0.000 A 
ENDBRANCH   7  29
TORSDOF 7
ENDMDL
MODEL 5
REMARK VINA RESULT:      -7.8      1.258      3.000
REMARK  Name = 
REMARK  8 active torsions:
REMARK  status: ('A' for Active; 'I' for Inactive)
REMARK    1  A    between atoms: C_1  and  C_2
REMARK    2  A    between atoms: C_2  and  O_3
REMARK    3  A    between atoms: O_3  and  C_4
REMARK    4  A    between atoms: C_6  and  C_7
REMARK    5  A    between atoms: C_12  and  C_13
REMARK    6  A    between atoms: C_19  and  C_20
REMARK    7  A    between atoms: C_27  and  N_28
REMARK    8  A    between atoms: C_31  and  O_32
REMARK                            x       y       z     vdW  Elec       q    Type
REMARK                         _______ _______ _______ _____ _____    ______ ____
ROOT
ATOM      1  C   UNL     1      -1.263  12.221  20.269  0.00  0.00    +0.000 C 
ATOM      2  N   UNL     1      -1.486  11.889  21.643  0.00  0.00    +0.000 N 
ATOM      3  C   UNL     1      -1.024  10.770  22.252  0.00  0.00    +0.000 C 
ATOM      4  O   UNL     1      -1.394  10.535  23.398  0.00  0.00    +0.000 OA
ATOM      5  N   UNL     1      -0.200   9.939  21.562  0.00  0.00    +0.000 NA
ATOM      6  C   UNL     1       0.259  10.217  20.381  0.00  0.00    +0.000 C 
ATOM      7  C   UNL     1      -0.048  11.517  19.649  0.00  0.00    +0.000 C 
ATOM      8  H   UNL     1      -2.159  12.405  22.191  0.00  0.00    +0.000 HD
ENDROOT
BRANCH   1  11
ATOM      9  C   UNL     1      -4.898  12.316  19.029  0.00  0.00    +0.000 A 
ATOM     10  C   UNL     1      -3.753  12.441  19.832  0.00  0.00    +0.000 A 
ATOM     11  C   UNL     1      -2.507  11.941  19.426  0.00  0.00    +0.000 A 
ATOM     12  C   UNL     1      -2.428  11.299  18.181  0.00  0.00    +0.000 A 
ATOM     13  C   UNL     1      -3.554  11.228  17.340  0.00  0.00    +0.000 A 
ATOM     14  C   UNL     1      -4.800  11.733  17.757  0.00  0.00    +0.000 A 
BRANCH  13  15
ATOM     15  N   UNL     1      -3.371  10.683  15.988  0.00  0.00    +0.000 N 
ATOM     16  O   UNL     1      -2.902   9.543  15.876  0.00  0.00    +0.000 OA
ATOM     17  O   UNL     1      -3.674  11.413  15.030  0.00  0.00    +0.000 OA
ENDBRANCH  13  15
BRANCH  14  18
ATOM     18  O   UNL     1      -5.916  11.724  16.960  0.00  0.00    +0.000 OA
ATOM     19  H   UNL     1      -6.357  12.600  16.969  0.00  0.00    +0.000 HD
ENDBRANCH  14  18
BRANCH   9  20
ATOM     20  O   UNL     1      -6.009  12.875  19.602  0.00  0.00    +0.000 OA
BRANCH  20  22
ATOM     21  C   UNL     1      -7.275  11.028  20.404  0.00  0.00    +0.000 C 
ATOM     22  C   UNL     1      -6.502  12.274  20.800  0.00  0.00    +0.000 C 
ENDBRANCH  20  22
ENDBRANCH   9  20
ENDBRANCH   1  11
BRANCH   6  23
ATOM     23  C   UNL     1       1.112   9.184  19.690  0.00  0.00    +0.000 A 
ATOM     24  C   UNL     1       1.616   8.066  20.364  0.00  0.00    +0.000 A 
ATOM     25  C   UNL     1       2.484   7.182  19.723  0.00  0.00    +0.000 A 
ATOM     26  C   UNL     1       2.842   7.396  18.396  0.00  0.00    +0.000 A 
ATOM     27  C   UNL     1       2.317   8.483  17.702  0.00  0.00    +0.000 A 
ATOM     28  C   UNL     1       1.456   9.378  18.344  0.00  0.00    +0.000 A 
ENDBRANCH   6  23
BRANCH   7  29
ATOM     29  C   UNL     1       1.166  12.410  19.426  0.00  0.00    +0.000 A 
ATOM     30  C   UNL     1       1.913  12.808  20.551  0.00  0.00    +0.000 A 
ATOM     31  C   UNL     1       2.932  13.751  20.437  0.00  0.00    +0.000 A 
ATOM     32  C   UNL     1       3.230  14.302  19.195  0.00  0.00    +0.000 A 
ATOM     33  C   UNL     1       2.532  13.883  18.063  0.00  0.00    +0.000 A 
ATOM     34  C   UNL     1       1.514  12.931  18.173  0.00  0.00    +0.000 A 
ENDBRANCH   7  29
TORSDOF 7
ENDMDL
MODEL 6
REMARK VINA RESULT:      -7.8      1.267      2.987
REMARK  Name = 
REMARK  8 active torsions:
REMARK  status: ('A' for Active; 'I' for Inactive)
REMARK    1  A    between atoms: C_1  and  C_2
REMARK    2  A    between atoms: C_2  and  O_3
REMARK    3  A    between atoms: O_3  and  C_4
REMARK    4  A    between atoms: C_6  and  C_7
REMARK    5  A    between atoms: C_12  and  C_13
REMARK    6  A    between atoms: C_19  and  C_20
REMARK    7  A    between atoms: C_27  and  N_28
REMARK    8  A    between atoms: C_31  and  O_32
REMARK                            x       y       z     vdW  Elec       q    Type
REMARK                         _______ _______ _______ _____ _____    ______ ____
ROOT
ATOM      1  C   UNL     1      -1.371  12.303  20.354  0.00  0.00    +0.000 C 
ATOM      2  N   UNL     1      -1.597  11.918  21.713  0.00  0.00    +0.000 N 
ATOM      3  C   UNL     1      -1.097  10.800  22.293  0.00  0.00    +0.000 C 
ATOM      4  O   UNL     1      -1.472  10.513  23.426  0.00  0.00    +0.000 OA
ATOM      5  N   UNL     1      -0.231  10.026  21.589  0.00  0.00    +0.000 NA
ATOM      6  C   UNL     1       0.231  10.360  20.424  0.00  0.00    +0.000 C 
ATOM      7  C   UNL     1      -0.120  11.669  19.729  0.00  0.00    +0.000 C 
ATOM      8  H   UNL     1      -2.299  12.388  22.267  0.00  0.00    +0.000 HD
ENDROOT
BRANCH   1  11
ATOM      9  C   UNL     1      -4.979  12.332  19.034  0.00  0.00    +0.000 A 
ATOM     10  C   UNL     1      -3.854  12.480  19.861  0.00  0.00    +0.000 A 
ATOM     11  C   UNL     1      -2.592  11.999  19.485  0.00  0.00    +0.000 A 
ATOM     12  C   UNL     1      -2.475  11.353  18.244  0.00  0.00    +0.000 A 
ATOM     13  C   UNL     1      -3.581  11.260  17.379  0.00  0.00    +0.000 A 
ATOM     14  C   UNL     1      -4.843  11.746  17.767  0.00  0.00    +0.000 A 
BRANCH  13  15
ATOM     15  N   UNL     1      -3.359  10.713  16.034  0.00  0.00    +0.000 N 
ATOM     16  O   UNL     1      -3.755  11.372  15.063  0.00  0.00    +0.000 OA
ATOM     17  O   UNL     1      -2.807   9.604  15.950  0.00  0.00    +0.000 OA
ENDBRANCH  13  15
BRANCH  14  18
ATOM     18  O   UNL     1      -5.942  11.716  16.945  0.00  0.00    +0.000 OA
ATOM     19  H   UNL     1      -5.710  11.342  16.069  0.00  0.00    +0.000 HD
ENDBRANCH  14  18
BRANCH   9  20
ATOM     20  O   UNL     1      -6.111  12.875  19.581  0.00  0.00    +0.000 OA
BRANCH  20  22
ATOM     21  C   UNL     1      -7.514  11.288  20.662  0.00  0.00    +0.000 C 
ATOM     22  C   UNL     1      -6.507  12.407  20.870  0.00  0.00    +0.000 C 
ENDBRANCH  20  22
ENDBRANCH   9  20
ENDBRANCH   1  11
BRANCH   6  23
ATOM     23  C   UNL     1       1.135   9.386  19.713  0.00  0.00    +0.000 A 
ATOM     24  C   UNL     1       1.524   9.570  18.381  0.00  0.00    +0.000 A 
ATOM     25  C   UNL     1       2.278   8.601  17.720  0.00  0.00    +0.000 A 
ATOM     26  C   UNL     1       2.668   7.445  18.390  0.00  0.00    +0.000 A 
ATOM     27  C   UNL     1       2.320   7.267  19.727  0.00  0.00    +0.000 A 
ATOM     28  C   UNL     1       1.555   8.231  20.389  0.00  0.00    +0.000 A 
ENDBRANCH   6  23
BRANCH   7  29
ATOM     29  C   UNL     1       1.058  12.618  19.551  0.00  0.00    +0.000 A 
ATOM     30  C   UNL     1       1.383  13.036  18.247  0.00  0.00    +0.000 A 
ATOM     31  C   UNL     1       2.541  13.769  17.997  0.00  0.00    +0.000 A 
ATOM     32  C   UNL     1       3.386  14.109  19.049  0.00  0.00    +0.000 A 
ATOM     33  C   UNL     1       3.053  13.745  20.353  0.00  0.00    +0.000 A 
ATOM     34  C   UNL     1       1.888  13.016  20.608  0.00  0.00    +0.000 A 
ENDBRANCH   7  29
TORSDOF 7
ENDMDL
MODEL 7
REMARK VINA RESULT:      -7.7      1.307      2.978
REMARK  Name = 
REMARK  8 active torsions:
REMARK  status: ('A' for Active; 'I' for Inactive)
REMARK    1  A    between atoms: C_1  and  C_2
REMARK    2  A    between atoms: C_2  and  O_3
REMARK    3  A    between atoms: O_3  and  C_4
REMARK    4  A    between atoms: C_6  and  C_7
REMARK    5  A    between atoms: C_12  and  C_13
REMARK    6  A    between atoms: C_19  and  C_20
REMARK    7  A    between atoms: C_27  and  N_28
REMARK    8  A    between atoms: C_31  and  O_32
REMARK                            x       y       z     vdW  Elec       q    Type
REMARK                         _______ _______ _______ _____ _____    ______ ____
ROOT
ATOM      1  C   UNL     1      -1.097  12.139  20.289  0.00  0.00    +0.000 C 
ATOM      2  N   UNL     1      -1.333  11.778  21.653  0.00  0.00    +0.000 N 
ATOM      3  C   UNL     1      -0.870  10.650  22.246  0.00  0.00    +0.000 C 
ATOM      4  O   UNL     1      -1.252  10.390  23.383  0.00  0.00    +0.000 OA
ATOM      5  N   UNL     1      -0.032   9.839  21.549  0.00  0.00    +0.000 NA
ATOM      6  C   UNL     1       0.438  10.143  20.380  0.00  0.00    +0.000 C 
ATOM      7  C   UNL     1       0.130  11.455  19.669  0.00  0.00    +0.000 C 
ATOM      8  H   UNL     1      -2.017  12.278  22.204  0.00  0.00    +0.000 HD
ENDROOT
BRANCH   1  11
ATOM      9  C   UNL     1      -4.713  12.249  18.996  0.00  0.00    +0.000 A 
ATOM     10  C   UNL     1      -3.580  12.368  19.817  0.00  0.00    +0.000 A 
ATOM     11  C   UNL     1      -2.330  11.866  19.427  0.00  0.00    +0.000 A 
ATOM     12  C   UNL     1      -2.235  11.229  18.180  0.00  0.00    +0.000 A 
ATOM     13  C   UNL     1      -3.348  11.165  17.322  0.00  0.00    +0.000 A 
ATOM     14  C   UNL     1      -4.598  11.672  17.723  0.00  0.00    +0.000 A 
BRANCH  13  15
ATOM     15  N   UNL     1      -3.146  10.626  15.970  0.00  0.00    +0.000 N 
ATOM     16  O   UNL     1      -3.462  11.335  15.006  0.00  0.00    +0.000 OA
ATOM     17  O   UNL     1      -2.693   9.475  15.875  0.00  0.00    +0.000 OA
ENDBRANCH  13  15
BRANCH  14  18
ATOM     18  O   UNL     1      -5.703  11.670  16.910  0.00  0.00    +0.000 OA
ATOM     19  H   UNL     1      -6.502  11.400  17.410  0.00  0.00    +0.000 HD
ENDBRANCH  14  18
BRANCH   9  20
ATOM     20  O   UNL     1      -5.831  12.809  19.556  0.00  0.00    +0.000 OA
BRANCH  20  22
ATOM     21  C   UNL     1      -6.673  13.786  21.554  0.00  0.00    +0.000 C 
ATOM     22  C   UNL     1      -6.085  12.530  20.933  0.00  0.00    +0.000 C 
ENDBRANCH  20  22
ENDBRANCH   9  20
ENDBRANCH   1  11
BRANCH   6  23
ATOM     23  C   UNL     1       1.306   9.130  19.678  0.00  0.00    +0.000 A 
ATOM     24  C   UNL     1       1.691   9.282  18.340  0.00  0.00    +0.000 A 
ATOM     25  C   UNL     1       2.410   8.279  17.691  0.00  0.00    +0.000 A 
ATOM     26  C   UNL     1       2.770   7.123  18.376  0.00  0.00    +0.000 A 
ATOM     27  C   UNL     1       2.426   6.977  19.718  0.00  0.00    +0.000 A 
ATOM     28  C   UNL     1       1.696   7.974  20.370  0.00  0.00    +0.000 A 
ENDBRANCH   6  23
BRANCH   7  29
ATOM     29  C   UNL     1       1.339  12.361  19.478  0.00  0.00    +0.000 A 
ATOM     30  C   UNL     1       1.934  12.925  20.622  0.00  0.00    +0.000 A 
ATOM     31  C   UNL     1       2.935  13.887  20.509  0.00  0.00    +0.000 A 
ATOM     32  C   UNL     1       3.369  14.290  19.250  0.00  0.00    +0.000 A 
ATOM     33  C   UNL     1       2.825  13.705  18.107  0.00  0.00    +0.000 A 
ATOM     34  C   UNL     1       1.825  12.735  18.218  0.00  0.00    +0.000 A 
ENDBRANCH   7  29
TORSDOF 7
ENDMDL
MODEL 8
REMARK VINA RESULT:      -7.5      2.542      5.137
REMARK  Name = 
REMARK  8 active torsions:
REMARK  status: ('A' for Active; 'I' for Inactive)
REMARK    1  A    between atoms: C_1  and  C_2
REMARK    2  A    between atoms: C_2  and  O_3
REMARK    3  A    between atoms: O_3  and  C_4
REMARK    4  A    between atoms: C_6  and  C_7
REMARK    5  A    between atoms: C_12  and  C_13
REMARK    6  A    between atoms: C_19  and  C_20
REMARK    7  A    between atoms: C_27  and  N_28
REMARK    8  A    between atoms: C_31  and  O_32
REMARK                            x       y       z     vdW  Elec       q    Type
REMARK                         _______ _______ _______ _____ _____    ______ ____
ROOT
ATOM      1  C   UNL     1      -1.561  12.187  19.477  0.00  0.00    +0.000 C 
ATOM      2  N   UNL     1      -0.853  13.266  18.860  0.00  0.00    +0.000 N 
ATOM      3  C   UNL     1      -0.617  14.467  19.441  0.00  0.00    +0.000 C 
ATOM      4  O   UNL     1      -0.115  15.356  18.759  0.00  0.00    +0.000 OA
ATOM      5  N   UNL     1      -0.974  14.651  20.738  0.00  0.00    +0.000 NA
ATOM      6  C   UNL     1      -1.431  13.697  21.489  0.00  0.00    +0.000 C 
ATOM      7  C   UNL     1      -1.591  12.260  21.011  0.00  0.00    +0.000 C 
ATOM      8  H   UNL     1      -0.641  13.239  17.873  0.00  0.00    +0.000 HD
ENDROOT
BRANCH   1  11
ATOM      9  C   UNL     1      -4.507  11.363  17.152  0.00  0.00    +0.000 A 
ATOM     10  C   UNL     1      -3.211  11.592  17.643  0.00  0.00    +0.000 A 
ATOM     11  C   UNL     1      -2.988  12.084  18.937  0.00  0.00    +0.000 A 
ATOM     12  C   UNL     1      -4.105  12.351  19.744  0.00  0.00    +0.000 A 
ATOM     13  C   UNL     1      -5.404  12.062  19.285  0.00  0.00    +0.000 A 
ATOM     14  C   UNL     1      -5.617  11.568  17.985  0.00  0.00    +0.000 A 
BRANCH  13  15
ATOM     15  N   UNL     1      -6.518  12.216  20.230  0.00  0.00    +0.000 N 
ATOM     16  O   UNL     1      -6.401  11.717  21.357  0.00  0.00    +0.000 OA
ATOM     17  O   UNL     1      -7.527  12.819  19.832  0.00  0.00    +0.000 OA
ENDBRANCH  13  15
BRANCH  14  18
ATOM     18  O   UNL     1      -6.858  11.233  17.505  0.00  0.00    +0.000 OA
ATOM     19  H   UNL     1      -6.927  10.265  17.367  0.00  0.00    +0.000 HD
ENDBRANCH  14  18
BRANCH   9  20
ATOM     20  O   UNL     1      -4.508  10.877  15.872  0.00  0.00    +0.000 OA
BRANCH  20  22
ATOM     21  C   UNL     1      -3.503  10.031  13.889  0.00  0.00    +0.000 C 
ATOM     22  C   UNL     1      -3.243  10.573  15.284  0.00  0.00    +0.000 C 
ENDBRANCH  20  22
ENDBRANCH   9  20
ENDBRANCH   1  11
BRANCH   6  23
ATOM     23  C   UNL     1      -1.855  14.041  22.894  0.00  0.00    +0.000 A 
ATOM     24  C   UNL     1      -3.110  13.681  23.400  0.00  0.00    +0.000 A 
ATOM     25  C   UNL     1      -3.510  14.100  24.668  0.00  0.00    +0.000 A 
ATOM     26  C   UNL     1      -2.654  14.867  25.452  0.00  0.00    +0.000 A 
ATOM     27  C   UNL     1      -1.389  15.200  24.976  0.00  0.00    +0.000 A 
ATOM     28  C   UNL     1      -0.988  14.791  23.701  0.00  0.00    +0.000 A 
ENDBRANCH   6  23
BRANCH   7  29
ATOM     29  C   UNL     1      -0.685  11.261  21.718  0.00  0.00    +0.000 A 
ATOM     30  C   UNL     1       0.474  10.826  21.047  0.00  0.00    +0.000 A 
ATOM     31  C   UNL     1       1.257   9.796  21.564  0.00  0.00    +0.000 A 
ATOM     32  C   UNL     1       0.902   9.194  22.767  0.00  0.00    +0.000 A 
ATOM     33  C   UNL     1      -0.214   9.647  23.468  0.00  0.00    +0.000 A 
ATOM     34  C   UNL     1      -0.998  10.685  22.956  0.00  0.00    +0.000 A 
ENDBRANCH   7  29
TORSDOF 7
ENDMDL
MODEL 9
REMARK VINA RESULT:      -7.5      0.663      1.371
REMARK  Name = 
REMARK  8 active torsions:
REMARK  status: ('A' for Active; 'I' for Inactive)
REMARK    1  A    between atoms: C_1  and  C_2
REMARK    2  A    between atoms: C_2  and  O_3
REMARK    3  A    between atoms: O_3  and  C_4
REMARK    4  A    between atoms: C_6  and  C_7
REMARK    5  A    between atoms: C_12  and  C_13
REMARK    6  A    between atoms: C_19  and  C_20
REMARK    7  A    between atoms: C_27  and  N_28
REMARK    8  A    between atoms: C_31  and  O_32
REMARK                            x       y       z     vdW  Elec       q    Type
REMARK                         _______ _______ _______ _____ _____    ______ ____
ROOT
ATOM      1  C   UNL     1      -1.483  12.635  20.629  0.00  0.00    +0.000 C 
ATOM      2  N   UNL     1      -1.614  12.263  22.004  0.00  0.00    +0.000 N 
ATOM      3  C   UNL     1      -1.138  11.114  22.543  0.00  0.00    +0.000 C 
ATOM      4  O   UNL     1      -1.431  10.850  23.705  0.00  0.00    +0.000 OA
ATOM      5  N   UNL     1      -0.387  10.287  21.769  0.00  0.00    +0.000 NA
ATOM      6  C   UNL     1      -0.007  10.594  20.568  0.00  0.00    +0.000 C 
ATOM      7  C   UNL     1      -0.333  11.923  19.901  0.00  0.00    +0.000 C 
ATOM      8  H   UNL     1      -2.234  12.776  22.616  0.00  0.00    +0.000 HD
ENDROOT
BRANCH   1  11
ATOM      9  C   UNL     1      -3.932  11.650  17.837  0.00  0.00    +0.000 A 
ATOM     10  C   UNL     1      -2.760  11.987  18.534  0.00  0.00    +0.000 A 
ATOM     11  C   UNL     1      -2.791  12.410  19.871  0.00  0.00    +0.000 A 
ATOM     12  C   UNL     1      -4.039  12.494  20.507  0.00  0.00    +0.000 A 
ATOM     13  C   UNL     1      -5.211  12.094  19.839  0.00  0.00    +0.000 A 
ATOM     14  C   UNL     1      -5.169  11.671  18.498  0.00  0.00    +0.000 A 
BRANCH  13  15
ATOM     15  N   UNL     1      -6.463  12.057  20.607  0.00  0.00    +0.000 N 
ATOM     16  O   UNL     1      -6.956  13.132  20.974  0.00  0.00    +0.000 OA
ATOM     17  O   UNL     1      -6.943  10.942  20.867  0.00  0.00    +0.000 OA
ENDBRANCH  13  15
BRANCH  14  18
ATOM     18  O   UNL     1      -6.276  11.233  17.816  0.00  0.00    +0.000 OA
ATOM     19  H   UNL     1      -6.920  11.962  17.695  0.00  0.00    +0.000 HD
ENDBRANCH  14  18
BRANCH   9  20
ATOM     20  O   UNL     1      -3.685  11.256  16.549  0.00  0.00    +0.000 OA
BRANCH  20  22
ATOM     21  C   UNL     1      -2.683   9.906  14.867  0.00  0.00    +0.000 C 
ATOM     22  C   UNL     1      -2.715  10.228  16.351  0.00  0.00    +0.000 C 
ENDBRANCH  20  22
ENDBRANCH   9  20
ENDBRANCH   1  11
BRANCH   6  23
ATOM     23  C   UNL     1       0.768   9.565  19.785  0.00  0.00    +0.000 A 
ATOM     24  C   UNL     1       1.393   8.476  20.404  0.00  0.00    +0.000 A 
ATOM     25  C   UNL     1       2.185   7.598  19.666  0.00  0.00    +0.000 A 
ATOM     26  C   UNL     1       2.346   7.788  18.297  0.00  0.00    +0.000 A 
ATOM     27  C   UNL     1       1.700   8.845  17.662  0.00  0.00    +0.000 A 
ATOM     28  C   UNL     1       0.913   9.734  18.400  0.00  0.00    +0.000 A 
ENDBRANCH   6  23
BRANCH   7  29
ATOM     29  C   UNL     1       0.883  12.796  19.619  0.00  0.00    +0.000 A 
ATOM     30  C   UNL     1       1.112  13.206  18.292  0.00  0.00    +0.000 A 
ATOM     31  C   UNL     1       2.287  13.866  17.939  0.00  0.00    +0.000 A 
ATOM     32  C   UNL     1       3.247  14.138  18.908  0.00  0.00    +0.000 A 
ATOM     33  C   UNL     1       3.013  13.783  20.236  0.00  0.00    +0.000 A 
ATOM     34  C   UNL     1       1.832  13.128  20.595  0.00  0.00    +0.000 A 
ENDBRANCH   7  29
TORSDOF 7
ENDMDL
