MODEL 1
REMARK VINA RESULT:      -7.5      0.000      0.000
REMARK  Name = 
REMARK  11 active torsions:
REMARK  status: ('A' for Active; 'I' for Inactive)
REMARK    1  A    between atoms: C_1  and  C_2
REMARK    2  A    between atoms: C_2  and  N_3
REMARK    3  A    between atoms: N_6  and  C_7
REMARK    4  A    between atoms: C_7  and  C_8
REMARK    5  A    between atoms: C_8  and  C_9
REMARK    6  A    between atoms: C_9  and  C_10
REMARK    7  A    between atoms: C_9  and  C_11
REMARK    8  A    between atoms: N_15  and  C_16
REMARK    9  A    between atoms: C_16  and  C_17
REMARK   10  A    between atoms: C_21  and  O_22
REMARK   11  A    between atoms: O_22  and  C_23
REMARK                            x       y       z     vdW  Elec       q    Type
REMARK                         _______ _______ _______ _____ _____    ______ ____
ROOT
ATOM      1  N   UNL     1       2.430   3.513  19.445  0.00  0.00    +0.000 N 
ATOM      2  C   UNL     1       2.189   4.838  19.640  0.00  0.00    +0.000 C 
ATOM      3  O   UNL     1       1.280   5.311  20.307  0.00  0.00    +0.000 OA
ATOM      4  N   UNL     1       3.182   5.572  18.997  0.00  0.00    +0.000 N 
ATOM      5  C   UNL     1       4.153   4.700  18.304  0.00  0.00    +0.000 C 
ATOM      6  C   UNL     1       5.590   4.762  18.836  0.00  0.00    +0.000 C 
ATOM      7  C   UNL     1       6.442   5.817  18.138  0.00  0.00    +0.000 C 
ATOM      8  N   UNL     1       6.405   5.765  16.675  0.00  0.00    +0.000 NA
ATOM      9  C   UNL     1       5.037   5.796  16.168  0.00  0.00    +0.000 C 
ATOM     10  C   UNL     1       4.101   4.751  16.770  0.00  0.00    +0.000 C 
ATOM     11  C   UNL     1       3.574   3.327  18.727  0.00  0.00    +0.000 C 
ATOM     12  O   UNL     1       4.074   2.240  18.458  0.00  0.00    +0.000 OA
ENDROOT
BRANCH   1  14
ATOM     13  C   UNL     1       0.554   1.954  19.311  0.00  0.00    +0.000 C 
ATOM     14  C   UNL     1       1.726   2.457  20.143  0.00  0.00    +0.000 C 
ENDBRANCH   1  14
BRANCH   4  15
ATOM     15  C   UNL     1       3.279   7.021  19.208  0.00  0.00    +0.000 C 
BRANCH  15  16
ATOM     16  C   UNL     1       2.645   7.831  18.072  0.00  0.00    +0.000 C 
BRANCH  16  17
ATOM     17  C   UNL     1       1.599   8.892  18.478  0.00  0.00    +0.000 C 
ATOM     18  C   UNL     1       1.291   8.903  19.977  0.00  0.00    +0.000 C 
ATOM     19  C   UNL     1       1.950  10.305  18.007  0.00  0.00    +0.000 C 
ENDBRANCH  16  17
ENDBRANCH  15  16
ENDBRANCH   4  15
BRANCH   8  20
ATOM     20  C   UNL     1       7.240   4.711  16.074  0.00  0.00    +0.000 C 
BRANCH  20  21
ATOM     21  C   UNL     1       7.105   4.665  14.560  0.00  0.00    +0.000 A 
ATOM     22  C   UNL     1       7.914   5.475  13.747  0.00  0.00    +0.000 A 
ATOM     23  C   UNL     1       7.890   5.334  12.361  0.00  0.00    +0.000 A 
ATOM     24  C   UNL     1       7.065   4.373  11.778  0.00  0.00    +0.000 A 
ATOM     25  C   UNL     1       6.241   3.567  12.569  0.00  0.00    +0.000 A 
ATOM     26  C   UNL     1       6.246   3.735  13.956  0.00  0.00    +0.000 A 
BRANCH  25  27
ATOM     27  O   UNL     1       5.510   2.638  11.879  0.00  0.00    +0.000 OA
ATOM     28  C   UNL     1       4.278   3.080  11.321  0.00  0.00    +0.000 C 
ENDBRANCH  25  27
ENDBRANCH  20  21
ENDBRANCH   8  20
TORSDOF 7
ENDMDL
MODEL 2
REMARK VINA RESULT:      -7.4      0.833      1.068
REMARK  Name = 
REMARK  11 active torsions:
REMARK  status: ('A' for Active; 'I' for Inactive)
REMARK    1  A    between atoms: C_1  and  C_2
REMARK    2  A    between atoms: C_2  and  N_3
REMARK    3  A    between atoms: N_6  and  C_7
REMARK    4  A    between atoms: C_7  and  C_8
REMARK    5  A    between atoms: C_8  and  C_9
REMARK    6  A    between atoms: C_9  and  C_10
REMARK    7  A    between atoms: C_9  and  C_11
REMARK    8  A    between atoms: N_15  and  C_16
REMARK    9  A    between atoms: C_16  and  C_17
REMARK   10  A    between atoms: C_21  and  O_22
REMARK   11  A    between atoms: O_22  and  C_23
REMARK                            x       y       z     vdW  Elec       q    Type
REMARK                         _______ _______ _______ _____ _____    ______ ____
ROOT
ATOM      1  N   UNL     1       2.868   4.009  20.271  0.00  0.00    +0.000 N 
ATOM      2  C   UNL     1       2.524   5.325  20.218  0.00  0.00    +0.000 C 
ATOM      3  O   UNL     1       1.683   5.875  20.915  0.00  0.00    +0.000 OA
ATOM      4  N   UNL     1       3.329   5.960  19.277  0.00  0.00    +0.000 N 
ATOM      5  C   UNL     1       4.269   5.021  18.629  0.00  0.00    +0.000 C 
ATOM      6  C   UNL     1       5.755   5.296  18.885  0.00  0.00    +0.000 C 
ATOM      7  C   UNL     1       6.381   6.221  17.845  0.00  0.00    +0.000 C 
ATOM      8  N   UNL     1       6.129   5.838  16.454  0.00  0.00    +0.000 NA
ATOM      9  C   UNL     1       4.705   5.663  16.191  0.00  0.00    +0.000 C 
ATOM     10  C   UNL     1       3.981   4.721  17.151  0.00  0.00    +0.000 C 
ATOM     11  C   UNL     1       3.903   3.742  19.425  0.00  0.00    +0.000 C 
ATOM     12  O   UNL     1       4.465   2.658  19.311  0.00  0.00    +0.000 OA
ENDROOT
BRANCH   1  14
ATOM     13  C   UNL     1       1.065   2.469  20.860  0.00  0.00    +0.000 C 
ATOM     14  C   UNL     1       2.387   3.093  21.285  0.00  0.00    +0.000 C 
ENDBRANCH   1  14
BRANCH   4  15
ATOM     15  C   UNL     1       3.309   7.422  19.157  0.00  0.00    +0.000 C 
BRANCH  15  16
ATOM     16  C   UNL     1       2.178   7.930  18.257  0.00  0.00    +0.000 C 
BRANCH  16  17
ATOM     17  C   UNL     1       1.439   9.202  18.724  0.00  0.00    +0.000 C 
ATOM     18  C   UNL     1       0.248   9.576  17.839  0.00  0.00    +0.000 C 
ATOM     19  C   UNL     1       1.002   9.149  20.190  0.00  0.00    +0.000 C 
ENDBRANCH  16  17
ENDBRANCH  15  16
ENDBRANCH   4  15
BRANCH   8  20
ATOM     20  C   UNL     1       6.967   4.734  15.957  0.00  0.00    +0.000 C 
BRANCH  20  21
ATOM     21  C   UNL     1       6.920   4.614  14.442  0.00  0.00    +0.000 A 
ATOM     22  C   UNL     1       7.780   5.382  13.640  0.00  0.00    +0.000 A 
ATOM     23  C   UNL     1       7.836   5.175  12.264  0.00  0.00    +0.000 A 
ATOM     24  C   UNL     1       7.042   4.187  11.680  0.00  0.00    +0.000 A 
ATOM     25  C   UNL     1       6.170   3.423  12.459  0.00  0.00    +0.000 A 
ATOM     26  C   UNL     1       6.094   3.657  13.835  0.00  0.00    +0.000 A 
BRANCH  25  27
ATOM     27  O   UNL     1       5.475   2.463  11.773  0.00  0.00    +0.000 OA
ATOM     28  C   UNL     1       6.220   1.341  11.313  0.00  0.00    +0.000 C 
ENDBRANCH  25  27
ENDBRANCH  20  21
ENDBRANCH   8  20
TORSDOF 7
ENDMDL
MODEL 3
REMARK VINA RESULT:      -6.7      0.845      1.070
REMARK  Name = 
REMARK  11 active torsions:
REMARK  status: ('A' for Active; 'I' for Inactive)
REMARK    1  A    between atoms: C_1  and  C_2
REMARK    2  A    between atoms: C_2  and  N_3
REMARK    3  A    between atoms: N_6  and  C_7
REMARK    4  A    between atoms: C_7  and  C_8
REMARK    5  A    between atoms: C_8  and  C_9
REMARK    6  A    between atoms: C_9  and  C_10
REMARK    7  A    between atoms: C_9  and  C_11
REMARK    8  A    between atoms: N_15  and  C_16
REMARK    9  A    between atoms: C_16  and  C_17
REMARK   10  A    between atoms: C_21  and  O_22
REMARK   11  A    between atoms: O_22  and  C_23
REMARK                            x       y       z     vdW  Elec       q    Type
REMARK                         _______ _______ _______ _____ _____    ______ ____
ROOT
ATOM      1  N   UNL     1       2.016   3.582  19.913  0.00  0.00    +0.000 N 
ATOM      2  C   UNL     1       1.899   4.924  20.112  0.00  0.00    +0.000 C 
ATOM      3  O   UNL     1       1.059   5.475  20.807  0.00  0.00    +0.000 OA
ATOM      4  N   UNL     1       2.932   5.567  19.437  0.00  0.00    +0.000 N 
ATOM      5  C   UNL     1       3.799   4.613  18.715  0.00  0.00    +0.000 C 
ATOM      6  C   UNL     1       5.252   4.546  19.199  0.00  0.00    +0.000 C 
ATOM      7  C   UNL     1       6.172   5.522  18.472  0.00  0.00    +0.000 C 
ATOM      8  N   UNL     1       6.083   5.473  17.011  0.00  0.00    +0.000 NA
ATOM      9  C   UNL     1       4.708   5.626  16.548  0.00  0.00    +0.000 C 
ATOM     10  C   UNL     1       3.702   4.668  17.183  0.00  0.00    +0.000 C 
ATOM     11  C   UNL     1       3.114   3.296  19.159  0.00  0.00    +0.000 C 
ATOM     12  O   UNL     1       3.507   2.169  18.877  0.00  0.00    +0.000 OA
ENDROOT
BRANCH   1  14
ATOM     13  C   UNL     1       1.848   2.340  22.010  0.00  0.00    +0.000 C 
ATOM     14  C   UNL     1       1.243   2.593  20.636  0.00  0.00    +0.000 C 
ENDBRANCH   1  14
BRANCH   4  15
ATOM     15  C   UNL     1       3.165   7.001  19.641  0.00  0.00    +0.000 C 
BRANCH  15  16
ATOM     16  C   UNL     1       1.888   7.837  19.502  0.00  0.00    +0.000 C 
BRANCH  16  17
ATOM     17  C   UNL     1       1.633   8.490  18.126  0.00  0.00    +0.000 C 
ATOM     18  C   UNL     1       0.752   9.738  18.197  0.00  0.00    +0.000 C 
ATOM     19  C   UNL     1       2.918   8.802  17.353  0.00  0.00    +0.000 C 
ENDBRANCH  16  17
ENDBRANCH  15  16
ENDBRANCH   4  15
BRANCH   8  20
ATOM     20  C   UNL     1       6.801   4.350  16.386  0.00  0.00    +0.000 C 
BRANCH  20  21
ATOM     21  C   UNL     1       6.814   4.450  14.868  0.00  0.00    +0.000 A 
ATOM     22  C   UNL     1       7.690   5.336  14.220  0.00  0.00    +0.000 A 
ATOM     23  C   UNL     1       7.802   5.330  12.832  0.00  0.00    +0.000 A 
ATOM     24  C   UNL     1       7.049   4.428  12.081  0.00  0.00    +0.000 A 
ATOM     25  C   UNL     1       6.161   3.548  12.706  0.00  0.00    +0.000 A 
ATOM     26  C   UNL     1       6.028   3.581  14.097  0.00  0.00    +0.000 A 
BRANCH  25  27
ATOM     27  O   UNL     1       5.510   2.689  11.862  0.00  0.00    +0.000 OA
ATOM     28  C   UNL     1       6.260   1.582  11.374  0.00  0.00    +0.000 C 
ENDBRANCH  25  27
ENDBRANCH  20  21
ENDBRANCH   8  20
TORSDOF 7
ENDMDL
MODEL 4
REMARK VINA RESULT:      -6.5      1.051      1.162
REMARK  Name = 
REMARK  11 active torsions:
REMARK  status: ('A' for Active; 'I' for Inactive)
REMARK    1  A    between atoms: C_1  and  C_2
REMARK    2  A    between atoms: C_2  and  N_3
REMARK    3  A    between atoms: N_6  and  C_7
REMARK    4  A    between atoms: C_7  and  C_8
REMARK    5  A    between atoms: C_8  and  C_9
REMARK    6  A    between atoms: C_9  and  C_10
REMARK    7  A    between atoms: C_9  and  C_11
REMARK    8  A    between atoms: N_15  and  C_16
REMARK    9  A    between atoms: C_16  and  C_17
REMARK   10  A    between atoms: C_21  and  O_22
REMARK   11  A    between atoms: O_22  and  C_23
REMARK                            x       y       z     vdW  Elec       q    Type
REMARK                         _______ _______ _______ _____ _____    ______ ____
ROOT
ATOM      1  N   UNL     1       2.895   3.726  20.471  0.00  0.00    +0.000 N 
ATOM      2  C   UNL     1       2.149   4.837  20.222  0.00  0.00    +0.000 C 
ATOM      3  O   UNL     1       1.156   5.188  20.843  0.00  0.00    +0.000 OA
ATOM      4  N   UNL     1       2.736   5.543  19.177  0.00  0.00    +0.000 N 
ATOM      5  C   UNL     1       3.946   4.868  18.663  0.00  0.00    +0.000 C 
ATOM      6  C   UNL     1       5.258   5.642  18.840  0.00  0.00    +0.000 C 
ATOM      7  C   UNL     1       5.584   6.547  17.657  0.00  0.00    +0.000 C 
ATOM      8  N   UNL     1       5.511   5.894  16.348  0.00  0.00    +0.000 NA
ATOM      9  C   UNL     1       4.226   5.232  16.146  0.00  0.00    +0.000 C 
ATOM     10  C   UNL     1       3.814   4.268  17.256  0.00  0.00    +0.000 C 
ATOM     11  C   UNL     1       3.985   3.679  19.655  0.00  0.00    +0.000 C 
ATOM     12  O   UNL     1       4.868   2.829  19.699  0.00  0.00    +0.000 OA
ENDROOT
BRANCH   1  14
ATOM     13  C   UNL     1       1.285   2.318  21.653  0.00  0.00    +0.000 C 
ATOM     14  C   UNL     1       2.703   2.872  21.626  0.00  0.00    +0.000 C 
ENDBRANCH   1  14
BRANCH   4  15
ATOM     15  C   UNL     1       2.252   6.885  18.831  0.00  0.00    +0.000 C 
BRANCH  15  16
ATOM     16  C   UNL     1       2.322   7.865  20.006  0.00  0.00    +0.000 C 
BRANCH  16  17
ATOM     17  C   UNL     1       1.038   8.663  20.320  0.00  0.00    +0.000 C 
ATOM     18  C   UNL     1       0.662   8.656  21.803  0.00  0.00    +0.000 C 
ATOM     19  C   UNL     1       1.073  10.102  19.798  0.00  0.00    +0.000 C 
ENDBRANCH  16  17
ENDBRANCH  15  16
ENDBRANCH   4  15
BRANCH   8  20
ATOM     20  C   UNL     1       6.672   5.055  16.011  0.00  0.00    +0.000 C 
BRANCH  20  21
ATOM     21  C   UNL     1       6.807   4.835  14.512  0.00  0.00    +0.000 A 
ATOM     22  C   UNL     1       7.811   5.493  13.783  0.00  0.00    +0.000 A 
ATOM     23  C   UNL     1       8.023   5.189  12.440  0.00  0.00    +0.000 A 
ATOM     24  C   UNL     1       7.242   4.214  11.820  0.00  0.00    +0.000 A 
ATOM     25  C   UNL     1       6.228   3.559  12.524  0.00  0.00    +0.000 A 
ATOM     26  C   UNL     1       5.998   3.892  13.862  0.00  0.00    +0.000 A 
BRANCH  25  27
ATOM     27  O   UNL     1       5.560   2.599  11.813  0.00  0.00    +0.000 OA
ATOM     28  C   UNL     1       4.272   2.948  11.320  0.00  0.00    +0.000 C 
ENDBRANCH  25  27
ENDBRANCH  20  21
ENDBRANCH   8  20
TORSDOF 7
ENDMDL
MODEL 5
REMARK VINA RESULT:      -6.4      2.751      7.386
REMARK  Name = 
REMARK  11 active torsions:
REMARK  status: ('A' for Active; 'I' for Inactive)
REMARK    1  A    between atoms: C_1  and  C_2
REMARK    2  A    between atoms: C_2  and  N_3
REMARK    3  A    between atoms: N_6  and  C_7
REMARK    4  A    between atoms: C_7  and  C_8
REMARK    5  A    between atoms: C_8  and  C_9
REMARK    6  A    between atoms: C_9  and  C_10
REMARK    7  A    between atoms: C_9  and  C_11
REMARK    8  A    between atoms: N_15  and  C_16
REMARK    9  A    between atoms: C_16  and  C_17
REMARK   10  A    between atoms: C_21  and  O_22
REMARK   11  A    between atoms: O_22  and  C_23
REMARK                            x       y       z     vdW  Elec       q    Type
REMARK                         _______ _______ _______ _____ _____    ______ ____
ROOT
ATOM      1  N   UNL     1       2.928   3.234  18.493  0.00  0.00    +0.000 N 
ATOM      2  C   UNL     1       4.082   3.612  19.107  0.00  0.00    +0.000 C 
ATOM      3  O   UNL     1       4.951   2.861  19.524  0.00  0.00    +0.000 OA
ATOM      4  N   UNL     1       4.138   5.002  19.134  0.00  0.00    +0.000 N 
ATOM      5  C   UNL     1       2.943   5.617  18.519  0.00  0.00    +0.000 C 
ATOM      6  C   UNL     1       3.204   6.444  17.255  0.00  0.00    +0.000 C 
ATOM      7  C   UNL     1       3.481   7.915  17.549  0.00  0.00    +0.000 C 
ATOM      8  N   UNL     1       2.503   8.559  18.428  0.00  0.00    +0.000 NA
ATOM      9  C   UNL     1       2.322   7.816  19.670  0.00  0.00    +0.000 C 
ATOM     10  C   UNL     1       1.998   6.333  19.495  0.00  0.00    +0.000 C 
ATOM     11  C   UNL     1       2.222   4.321  18.070  0.00  0.00    +0.000 C 
ATOM     12  O   UNL     1       1.178   4.283  17.427  0.00  0.00    +0.000 OA
ENDROOT
BRANCH   1  14
ATOM     13  C   UNL     1       1.398   1.357  18.822  0.00  0.00    +0.000 C 
ATOM     14  C   UNL     1       2.636   1.870  18.099  0.00  0.00    +0.000 C 
ENDBRANCH   1  14
BRANCH   4  15
ATOM     15  C   UNL     1       5.366   5.681  19.563  0.00  0.00    +0.000 C 
BRANCH  15  16
ATOM     16  C   UNL     1       6.555   5.401  18.639  0.00  0.00    +0.000 C 
BRANCH  16  17
ATOM     17  C   UNL     1       6.689   6.298  17.390  0.00  0.00    +0.000 C 
ATOM     18  C   UNL     1       7.660   7.465  17.578  0.00  0.00    +0.000 C 
ATOM     19  C   UNL     1       7.045   5.523  16.118  0.00  0.00    +0.000 C 
ENDBRANCH  16  17
ENDBRANCH  15  16
ENDBRANCH   4  15
BRANCH   8  20
ATOM     20  C   UNL     1       1.241   8.941  17.772  0.00  0.00    +0.000 C 
BRANCH  20  21
ATOM     21  C   UNL     1       0.629  10.190  18.386  0.00  0.00    +0.000 A 
ATOM     22  C   UNL     1       1.429  11.309  18.672  0.00  0.00    +0.000 A 
ATOM     23  C   UNL     1       0.849  12.499  19.104  0.00  0.00    +0.000 A 
ATOM     24  C   UNL     1      -0.536  12.585  19.241  0.00  0.00    +0.000 A 
ATOM     25  C   UNL     1      -1.347  11.479  18.976  0.00  0.00    +0.000 A 
ATOM     26  C   UNL     1      -0.758  10.277  18.574  0.00  0.00    +0.000 A 
BRANCH  25  27
ATOM     27  O   UNL     1      -2.691  11.703  19.111  0.00  0.00    +0.000 OA
ATOM     28  C   UNL     1      -3.498  11.461  17.965  0.00  0.00    +0.000 C 
ENDBRANCH  25  27
ENDBRANCH  20  21
ENDBRANCH   8  20
TORSDOF 7
ENDMDL
MODEL 6
REMARK VINA RESULT:      -6.2      2.765      7.617
REMARK  Name = 
REMARK  11 active torsions:
REMARK  status: ('A' for Active; 'I' for Inactive)
REMARK    1  A    between atoms: C_1  and  C_2
REMARK    2  A    between atoms: C_2  and  N_3
REMARK    3  A    between atoms: N_6  and  C_7
REMARK    4  A    between atoms: C_7  and  C_8
REMARK    5  A    between atoms: C_8  and  C_9
REMARK    6  A    between atoms: C_9  and  C_10
REMARK    7  A    between atoms: C_9  and  C_11
REMARK    8  A    between atoms: N_15  and  C_16
REMARK    9  A    between atoms: C_16  and  C_17
REMARK   10  A    between atoms: C_21  and  O_22
REMARK   11  A    between atoms: O_22  and  C_23
REMARK                            x       y       z     vdW  Elec       q    Type
REMARK                         _______ _______ _______ _____ _____    ______ ____
ROOT
ATOM      1  N   UNL     1       2.981   3.218  18.494  0.00  0.00    +0.000 N 
ATOM      2  C   UNL     1       4.139   3.626  19.082  0.00  0.00    +0.000 C 
ATOM      3  O   UNL     1       5.046   2.900  19.458  0.00  0.00    +0.000 OA
ATOM      4  N   UNL     1       4.145   5.017  19.137  0.00  0.00    +0.000 N 
ATOM      5  C   UNL     1       2.911   5.599  18.570  0.00  0.00    +0.000 C 
ATOM      6  C   UNL     1       3.105   6.461  17.316  0.00  0.00    +0.000 C 
ATOM      7  C   UNL     1       3.337   7.935  17.632  0.00  0.00    +0.000 C 
ATOM      8  N   UNL     1       2.363   8.525  18.553  0.00  0.00    +0.000 NA
ATOM      9  C   UNL     1       2.246   7.751  19.784  0.00  0.00    +0.000 C 
ATOM     10  C   UNL     1       1.971   6.261  19.587  0.00  0.00    +0.000 C 
ATOM     11  C   UNL     1       2.224   4.287  18.115  0.00  0.00    +0.000 C 
ATOM     12  O   UNL     1       1.164   4.224  17.502  0.00  0.00    +0.000 OA
ENDROOT
BRANCH   1  14
ATOM     13  C   UNL     1       1.462   1.320  18.739  0.00  0.00    +0.000 C 
ATOM     14  C   UNL     1       2.728   1.853  18.080  0.00  0.00    +0.000 C 
ENDBRANCH   1  14
BRANCH   4  15
ATOM     15  C   UNL     1       5.361   5.732  19.544  0.00  0.00    +0.000 C 
BRANCH  15  16
ATOM     16  C   UNL     1       6.547   5.467  18.612  0.00  0.00    +0.000 C 
BRANCH  16  17
ATOM     17  C   UNL     1       6.680   6.389  17.381  0.00  0.00    +0.000 C 
ATOM     18  C   UNL     1       7.683   7.528  17.576  0.00  0.00    +0.000 C 
ATOM     19  C   UNL     1       6.995   5.635  16.086  0.00  0.00    +0.000 C 
ENDBRANCH  16  17
ENDBRANCH  15  16
ENDBRANCH   4  15
BRANCH   8  20
ATOM     20  C   UNL     1       1.069   8.873  17.942  0.00  0.00    +0.000 C 
BRANCH  20  21
ATOM     21  C   UNL     1       0.418  10.069  18.619  0.00  0.00    +0.000 A 
ATOM     22  C   UNL     1      -0.948  10.336  18.433  0.00  0.00    +0.000 A 
ATOM     23  C   UNL     1      -1.576  11.346  19.159  0.00  0.00    +0.000 A 
ATOM     24  C   UNL     1      -0.845  12.087  20.086  0.00  0.00    +0.000 A 
ATOM     25  C   UNL     1       0.519  11.847  20.274  0.00  0.00    +0.000 A 
ATOM     26  C   UNL     1       1.151  10.855  19.520  0.00  0.00    +0.000 A 
BRANCH  25  27
ATOM     27  O   UNL     1       1.112  12.616  21.239  0.00  0.00    +0.000 OA
ATOM     28  C   UNL     1       2.029  13.608  20.792  0.00  0.00    +0.000 C 
ENDBRANCH  25  27
ENDBRANCH  20  21
ENDBRANCH   8  20
TORSDOF 7
ENDMDL
MODEL 7
REMARK VINA RESULT:      -6.1      4.866      9.005
REMARK  Name = 
REMARK  11 active torsions:
REMARK  status: ('A' for Active; 'I' for Inactive)
REMARK    1  A    between atoms: C_1  and  C_2
REMARK    2  A    between atoms: C_2  and  N_3
REMARK    3  A    between atoms: N_6  and  C_7
REMARK    4  A    between atoms: C_7  and  C_8
REMARK    5  A    between atoms: C_8  and  C_9
REMARK    6  A    between atoms: C_9  and  C_10
REMARK    7  A    between atoms: C_9  and  C_11
REMARK    8  A    between atoms: N_15  and  C_16
REMARK    9  A    between atoms: C_16  and  C_17
REMARK   10  A    between atoms: C_21  and  O_22
REMARK   11  A    between atoms: O_22  and  C_23
REMARK                            x       y       z     vdW  Elec       q    Type
REMARK                         _______ _______ _______ _____ _____    ______ ____
ROOT
ATOM      1  N   UNL     1       1.063  14.522  20.211  0.00  0.00    +0.000 N 
ATOM      2  C   UNL     1      -0.004  14.408  19.372  0.00  0.00    +0.000 C 
ATOM      3  O   UNL     1      -0.647  15.334  18.901  0.00  0.00    +0.000 OA
ATOM      4  N   UNL     1      -0.209  13.060  19.092  0.00  0.00    +0.000 N 
ATOM      5  C   UNL     1       0.761  12.195  19.795  0.00  0.00    +0.000 C 
ATOM      6  C   UNL     1       1.709  11.399  18.891  0.00  0.00    +0.000 C 
ATOM      7  C   UNL     1       1.164  10.026  18.511  0.00  0.00    +0.000 C 
ATOM      8  N   UNL     1       0.686   9.223  19.639  0.00  0.00    +0.000 NA
ATOM      9  C   UNL     1      -0.285   9.953  20.448  0.00  0.00    +0.000 C 
ATOM     10  C   UNL     1       0.173  11.331  20.920  0.00  0.00    +0.000 C 
ATOM     11  C   UNL     1       1.607  13.301  20.475  0.00  0.00    +0.000 C 
ATOM     12  O   UNL     1       2.615  13.103  21.145  0.00  0.00    +0.000 OA
ENDROOT
BRANCH   1  14
ATOM     13  C   UNL     1       1.176  16.306  21.877  0.00  0.00    +0.000 C 
ATOM     14  C   UNL     1       1.692  15.784  20.543  0.00  0.00    +0.000 C 
ENDBRANCH   1  14
BRANCH   4  15
ATOM     15  C   UNL     1      -1.170  12.662  18.057  0.00  0.00    +0.000 C 
BRANCH  15  16
ATOM     16  C   UNL     1      -2.479  12.118  18.638  0.00  0.00    +0.000 C 
BRANCH  16  17
ATOM     17  C   UNL     1      -3.310  11.191  17.726  0.00  0.00    +0.000 C 
ATOM     18  C   UNL     1      -2.712   9.792  17.570  0.00  0.00    +0.000 C 
ATOM     19  C   UNL     1      -4.780  11.086  18.140  0.00  0.00    +0.000 C 
ENDBRANCH  16  17
ENDBRANCH  15  16
ENDBRANCH   4  15
BRANCH   8  20
ATOM     20  C   UNL     1       1.746   8.571  20.425  0.00  0.00    +0.000 C 
BRANCH  20  21
ATOM     21  C   UNL     1       1.966   7.126  20.004  0.00  0.00    +0.000 A 
ATOM     22  C   UNL     1       2.668   6.826  18.826  0.00  0.00    +0.000 A 
ATOM     23  C   UNL     1       2.991   5.507  18.512  0.00  0.00    +0.000 A 
ATOM     24  C   UNL     1       2.625   4.480  19.381  0.00  0.00    +0.000 A 
ATOM     25  C   UNL     1       1.913   4.757  20.551  0.00  0.00    +0.000 A 
ATOM     26  C   UNL     1       1.564   6.078  20.845  0.00  0.00    +0.000 A 
BRANCH  25  27
ATOM     27  O   UNL     1       1.648   3.667  21.336  0.00  0.00    +0.000 OA
ATOM     28  C   UNL     1       2.600   2.610  21.304  0.00  0.00    +0.000 C 
ENDBRANCH  25  27
ENDBRANCH  20  21
ENDBRANCH   8  20
TORSDOF 7
ENDMDL
MODEL 8
REMARK VINA RESULT:      -6.1      4.638      8.711
REMARK  Name = 
REMARK  11 active torsions:
REMARK  status: ('A' for Active; 'I' for Inactive)
REMARK    1  A    between atoms: C_1  and  C_2
REMARK    2  A    between atoms: C_2  and  N_3
REMARK    3  A    between atoms: N_6  and  C_7
REMARK    4  A    between atoms: C_7  and  C_8
REMARK    5  A    between atoms: C_8  and  C_9
REMARK    6  A    between atoms: C_9  and  C_10
REMARK    7  A    between atoms: C_9  and  C_11
REMARK    8  A    between atoms: N_15  and  C_16
REMARK    9  A    between atoms: C_16  and  C_17
REMARK   10  A    between atoms: C_21  and  O_22
REMARK   11  A    between atoms: O_22  and  C_23
REMARK                            x       y       z     vdW  Elec       q    Type
REMARK                         _______ _______ _______ _____ _____    ______ ____
ROOT
ATOM      1  N   UNL     1       0.955  14.426  20.136  0.00  0.00    +0.000 N 
ATOM      2  C   UNL     1      -0.086  14.253  19.276  0.00  0.00    +0.000 C 
ATOM      3  O   UNL     1      -0.750  15.144  18.766  0.00  0.00    +0.000 OA
ATOM      4  N   UNL     1      -0.236  12.893  19.025  0.00  0.00    +0.000 N 
ATOM      5  C   UNL     1       0.746  12.080  19.772  0.00  0.00    +0.000 C 
ATOM      6  C   UNL     1       1.744  11.297  18.911  0.00  0.00    +0.000 C 
ATOM      7  C   UNL     1       1.257   9.897  18.554  0.00  0.00    +0.000 C 
ATOM      8  N   UNL     1       0.781   9.105  19.690  0.00  0.00    +0.000 NA
ATOM      9  C   UNL     1      -0.235   9.818  20.457  0.00  0.00    +0.000 C 
ATOM     10  C   UNL     1       0.162  11.224  20.905  0.00  0.00    +0.000 C 
ATOM     11  C   UNL     1       1.535  13.232  20.444  0.00  0.00    +0.000 C 
ATOM     12  O   UNL     1       2.533  13.087  21.142  0.00  0.00    +0.000 OA
ENDROOT
BRANCH   1  14
ATOM     13  C   UNL     1       2.542  16.126  19.387  0.00  0.00    +0.000 C 
ATOM     14  C   UNL     1       1.531  15.718  20.451  0.00  0.00    +0.000 C 
ENDBRANCH   1  14
BRANCH   4  15
ATOM     15  C   UNL     1      -1.158  12.434  17.979  0.00  0.00    +0.000 C 
BRANCH  15  16
ATOM     16  C   UNL     1      -2.494  11.936  18.538  0.00  0.00    +0.000 C 
BRANCH  16  17
ATOM     17  C   UNL     1      -3.073  10.651  17.907  0.00  0.00    +0.000 C 
ATOM     18  C   UNL     1      -4.359  10.887  17.114  0.00  0.00    +0.000 C 
ATOM     19  C   UNL     1      -2.063   9.887  17.047  0.00  0.00    +0.000 C 
ENDBRANCH  16  17
ENDBRANCH  15  16
ENDBRANCH   4  15
BRANCH   8  20
ATOM     20  C   UNL     1       1.844   8.510  20.517  0.00  0.00    +0.000 C 
BRANCH  20  21
ATOM     21  C   UNL     1       2.048   7.034  20.215  0.00  0.00    +0.000 A 
ATOM     22  C   UNL     1       1.240   6.063  20.829  0.00  0.00    +0.000 A 
ATOM     23  C   UNL     1       1.332   4.725  20.451  0.00  0.00    +0.000 A 
ATOM     24  C   UNL     1       2.224   4.350  19.447  0.00  0.00    +0.000 A 
ATOM     25  C   UNL     1       3.047   5.299  18.834  0.00  0.00    +0.000 A 
ATOM     26  C   UNL     1       2.974   6.634  19.240  0.00  0.00    +0.000 A 
BRANCH  25  27
ATOM     27  O   UNL     1       3.849   4.810  17.839  0.00  0.00    +0.000 OA
ATOM     28  C   UNL     1       3.286   3.812  16.996  0.00  0.00    +0.000 C 
ENDBRANCH  25  27
ENDBRANCH  20  21
ENDBRANCH   8  20
TORSDOF 7
ENDMDL
MODEL 9
REMARK VINA RESULT:      -6.1      4.589      8.526
REMARK  Name = 
REMARK  11 active torsions:
REMARK  status: ('A' for Active; 'I' for Inactive)
REMARK    1  A    between atoms: C_1  and  C_2
REMARK    2  A    between atoms: C_2  and  N_3
REMARK    3  A    between atoms: N_6  and  C_7
REMARK    4  A    between atoms: C_7  and  C_8
REMARK    5  A    between atoms: C_8  and  C_9
REMARK    6  A    between atoms: C_9  and  C_10
REMARK    7  A    between atoms: C_9  and  C_11
REMARK    8  A    between atoms: N_15  and  C_16
REMARK    9  A    between atoms: C_16  and  C_17
REMARK   10  A    between atoms: C_21  and  O_22
REMARK   11  A    between atoms: O_22  and  C_23
REMARK                            x       y       z     vdW  Elec       q    Type
REMARK                         _______ _______ _______ _____ _____    ______ ____
ROOT
ATOM      1  N   UNL     1       0.510  13.984  20.695  0.00  0.00    +0.000 N 
ATOM      2  C   UNL     1      -0.757  13.732  20.266  0.00  0.00    +0.000 C 
ATOM      3  O   UNL     1      -1.638  14.563  20.106  0.00  0.00    +0.000 OA
ATOM      4  N   UNL     1      -0.871  12.374  19.985  0.00  0.00    +0.000 N 
ATOM      5  C   UNL     1       0.386  11.645  20.255  0.00  0.00    +0.000 C 
ATOM      6  C   UNL     1       1.054  11.009  19.030  0.00  0.00    +0.000 C 
ATOM      7  C   UNL     1       0.593   9.579  18.771  0.00  0.00    +0.000 C 
ATOM      8  N   UNL     1       0.645   8.696  19.938  0.00  0.00    +0.000 NA
ATOM      9  C   UNL     1      -0.068   9.265  21.077  0.00  0.00    +0.000 C 
ATOM     10  C   UNL     1       0.343  10.687  21.454  0.00  0.00    +0.000 C 
ATOM     11  C   UNL     1       1.265  12.849  20.676  0.00  0.00    +0.000 C 
ATOM     12  O   UNL     1       2.460  12.787  20.945  0.00  0.00    +0.000 OA
ENDROOT
BRANCH   1  14
ATOM     13  C   UNL     1       1.559  15.870  19.550  0.00  0.00    +0.000 C 
ATOM     14  C   UNL     1       1.048  15.318  20.873  0.00  0.00    +0.000 C 
ENDBRANCH   1  14
BRANCH   4  15
ATOM     15  C   UNL     1      -2.073  11.858  19.318  0.00  0.00    +0.000 C 
BRANCH  15  16
ATOM     16  C   UNL     1      -1.993  11.953  17.792  0.00  0.00    +0.000 C 
BRANCH  16  17
ATOM     17  C   UNL     1      -2.962  11.057  16.990  0.00  0.00    +0.000 C 
ATOM     18  C   UNL     1      -3.003   9.609  17.482  0.00  0.00    +0.000 C 
ATOM     19  C   UNL     1      -4.384  11.619  16.908  0.00  0.00    +0.000 C 
ENDBRANCH  16  17
ENDBRANCH  15  16
ENDBRANCH   4  15
BRANCH   8  20
ATOM     20  C   UNL     1       1.988   8.190  20.269  0.00  0.00    +0.000 C 
BRANCH  20  21
ATOM     21  C   UNL     1       2.148   6.718  19.923  0.00  0.00    +0.000 A 
ATOM     22  C   UNL     1       1.570   5.728  20.734  0.00  0.00    +0.000 A 
ATOM     23  C   UNL     1       1.596   4.391  20.345  0.00  0.00    +0.000 A 
ATOM     24  C   UNL     1       2.190   4.034  19.135  0.00  0.00    +0.000 A 
ATOM     25  C   UNL     1       2.783   5.002  18.321  0.00  0.00    +0.000 A 
ATOM     26  C   UNL     1       2.782   6.338  18.731  0.00  0.00    +0.000 A 
BRANCH  25  27
ATOM     27  O   UNL     1       3.297   4.529  17.143  0.00  0.00    +0.000 OA
ATOM     28  C   UNL     1       4.676   4.179  17.141  0.00  0.00    +0.000 C 
ENDBRANCH  25  27
ENDBRANCH  20  21
ENDBRANCH   8  20
TORSDOF 7
ENDMDL
