MODEL 1
REMARK VINA RESULT:      -7.2      0.000      0.000
REMARK  Name = 
REMARK  4 active torsions:
REMARK  status: ('A' for Active; 'I' for Inactive)
REMARK    1  A    between atoms: C_1  and  C_2
REMARK    2  A    between atoms: C_5  and  C_6
REMARK    3  A    between atoms: N_11  and  C_12
REMARK    4  A    between atoms: C_15  and  C_16
REMARK                            x       y       z     vdW  Elec       q    Type
REMARK                         _______ _______ _______ _____ _____    ______ ____
ROOT
ATOM      1  C   UNL     1       2.783   6.243  20.480  0.00  0.00    +0.000 C 
ATOM      2  C   UNL     1       2.491   4.787  20.150  0.00  0.00    +0.000 C 
ATOM      3  C   UNL     1       1.962   4.133  21.441  0.00  0.00    +0.000 C 
ATOM      4  C   UNL     1       2.510   2.701  21.343  0.00  0.00    +0.000 C 
ATOM      5  C   UNL     1       2.555   2.446  19.810  0.00  0.00    +0.000 C 
ATOM      6  C   UNL     1       0.933   2.108  19.873  0.00  0.00    +0.000 C 
ATOM      7  O   UNL     1       3.485   3.778  19.996  0.00  0.00    +0.000 OA
ATOM      8  C   UNL     1       2.276   3.128  18.435  0.00  0.00    +0.000 C 
ATOM      9  C   UNL     1       3.513   3.018  17.596  0.00  0.00    +0.000 C 
ATOM     10  O   UNL     1       4.067   1.947  17.390  0.00  0.00    +0.000 OA
ATOM     11  N   UNL     1       3.835   4.270  17.140  0.00  0.00    +0.000 N 
ATOM     12  C   UNL     1       2.962   5.224  17.647  0.00  0.00    +0.000 C 
ATOM     13  O   UNL     1       2.884   6.396  17.308  0.00  0.00    +0.000 OA
ATOM     14  C   UNL     1       2.017   4.604  18.702  0.00  0.00    +0.000 C 
ENDROOT
BRANCH  11  15
ATOM     15  C   UNL     1       4.944   4.505  16.271  0.00  0.00    +0.000 A 
ATOM     16  C   UNL     1       5.970   5.397  16.607  0.00  0.00    +0.000 A 
ATOM     17  N   UNL     1       7.025   5.719  15.817  0.00  0.00    +0.000 NA
ATOM     18  C   UNL     1       7.076   5.145  14.584  0.00  0.00    +0.000 A 
ATOM     19  C   UNL     1       6.125   4.246  14.151  0.00  0.00    +0.000 A 
ATOM     20 CL   UNL     1       6.163   3.541  12.571  0.00  0.00    +0.000 Cl
ATOM     21  C   UNL     1       5.053   3.908  15.003  0.00  0.00    +0.000 A 
BRANCH  18  22
ATOM     22  C   UNL     1       8.194   5.557  13.778  0.00  0.00    +0.000 C 
ATOM     23  N   UNL     1       9.096   5.895  13.123  0.00  0.00    +0.000 NA
ENDBRANCH  18  22
ENDBRANCH  11  15
TORSDOF 2
ENDMDL
MODEL 2
REMARK VINA RESULT:      -7.1      1.266      2.319
REMARK  Name = 
REMARK  4 active torsions:
REMARK  status: ('A' for Active; 'I' for Inactive)
REMARK    1  A    between atoms: C_1  and  C_2
REMARK    2  A    between atoms: C_5  and  C_6
REMARK    3  A    between atoms: N_11  and  C_12
REMARK    4  A    between atoms: C_15  and  C_16
REMARK                            x       y       z     vdW  Elec       q    Type
REMARK                         _______ _______ _______ _____ _____    ______ ____
ROOT
ATOM      1  C   UNL     1       4.226   1.780  20.498  0.00  0.00    +0.000 C 
ATOM      2  C   UNL     1       3.268   2.938  20.260  0.00  0.00    +0.000 C 
ATOM      3  C   UNL     1       1.935   2.560  20.934  0.00  0.00    +0.000 C 
ATOM      4  C   UNL     1       0.893   3.198  20.002  0.00  0.00    +0.000 C 
ATOM      5  C   UNL     1       1.636   4.445  19.446  0.00  0.00    +0.000 C 
ATOM      6  C   UNL     1       1.254   5.234  20.854  0.00  0.00    +0.000 C 
ATOM      7  O   UNL     1       2.615   3.206  19.024  0.00  0.00    +0.000 OA
ATOM      8  C   UNL     1       3.004   5.192  19.495  0.00  0.00    +0.000 C 
ATOM      9  C   UNL     1       3.492   5.373  18.091  0.00  0.00    +0.000 C 
ATOM     10  O   UNL     1       2.802   5.890  17.222  0.00  0.00    +0.000 OA
ATOM     11  N   UNL     1       4.774   4.893  18.015  0.00  0.00    +0.000 N 
ATOM     12  C   UNL     1       5.172   4.347  19.228  0.00  0.00    +0.000 C 
ATOM     13  O   UNL     1       6.300   3.983  19.531  0.00  0.00    +0.000 OA
ATOM     14  C   UNL     1       3.991   4.290  20.224  0.00  0.00    +0.000 C 
ENDROOT
BRANCH  11  15
ATOM     15  C   UNL     1       5.545   4.957  16.815  0.00  0.00    +0.000 A 
ATOM     16  C   UNL     1       6.688   5.758  16.712  0.00  0.00    +0.000 A 
ATOM     17  N   UNL     1       7.442   5.920  15.595  0.00  0.00    +0.000 NA
ATOM     18  C   UNL     1       7.036   5.266  14.473  0.00  0.00    +0.000 A 
ATOM     19  C   UNL     1       5.930   4.444  14.460  0.00  0.00    +0.000 A 
ATOM     20 CL   UNL     1       5.386   3.639  13.027  0.00  0.00    +0.000 Cl
ATOM     21  C   UNL     1       5.181   4.272  15.642  0.00  0.00    +0.000 A 
BRANCH  18  22
ATOM     22  C   UNL     1       7.849   5.509  13.311  0.00  0.00    +0.000 C 
ATOM     23  N   UNL     1       8.504   5.703  12.368  0.00  0.00    +0.000 NA
ENDBRANCH  18  22
ENDBRANCH  11  15
TORSDOF 2
ENDMDL
MODEL 3
REMARK VINA RESULT:      -6.9      1.204      2.436
REMARK  Name = 
REMARK  4 active torsions:
REMARK  status: ('A' for Active; 'I' for Inactive)
REMARK    1  A    between atoms: C_1  and  C_2
REMARK    2  A    between atoms: C_5  and  C_6
REMARK    3  A    between atoms: N_11  and  C_12
REMARK    4  A    between atoms: C_15  and  C_16
REMARK                            x       y       z     vdW  Elec       q    Type
REMARK                         _______ _______ _______ _____ _____    ______ ____
ROOT
ATOM      1  C   UNL     1       1.029   2.142  18.108  0.00  0.00    +0.000 C 
ATOM      2  C   UNL     1       1.678   3.039  19.151  0.00  0.00    +0.000 C 
ATOM      3  C   UNL     1       0.570   3.443  20.144  0.00  0.00    +0.000 C 
ATOM      4  C   UNL     1       0.976   4.871  20.540  0.00  0.00    +0.000 C 
ATOM      5  C   UNL     1       2.527   4.837  20.433  0.00  0.00    +0.000 C 
ATOM      6  C   UNL     1       2.561   4.125  21.930  0.00  0.00    +0.000 C 
ATOM      7  O   UNL     1       2.039   4.399  18.936  0.00  0.00    +0.000 OA
ATOM      8  C   UNL     1       3.719   3.906  20.054  0.00  0.00    +0.000 C 
ATOM      9  C   UNL     1       4.547   4.600  19.016  0.00  0.00    +0.000 C 
ATOM     10  O   UNL     1       4.979   5.734  19.178  0.00  0.00    +0.000 OA
ATOM     11  N   UNL     1       4.710   3.748  17.955  0.00  0.00    +0.000 N 
ATOM     12  C   UNL     1       4.015   2.563  18.159  0.00  0.00    +0.000 C 
ATOM     13  O   UNL     1       4.086   1.548  17.480  0.00  0.00    +0.000 OA
ATOM     14  C   UNL     1       3.135   2.648  19.427  0.00  0.00    +0.000 C 
ENDROOT
BRANCH  11  15
ATOM     15  C   UNL     1       5.491   4.092  16.810  0.00  0.00    +0.000 A 
ATOM     16  C   UNL     1       6.631   4.898  16.907  0.00  0.00    +0.000 A 
ATOM     17  N   UNL     1       7.393   5.318  15.865  0.00  0.00    +0.000 NA
ATOM     18  C   UNL     1       6.999   4.943  14.618  0.00  0.00    +0.000 A 
ATOM     19  C   UNL     1       5.897   4.143  14.404  0.00  0.00    +0.000 A 
ATOM     20 CL   UNL     1       5.369   3.693  12.818  0.00  0.00    +0.000 Cl
ATOM     21  C   UNL     1       5.139   3.699  15.507  0.00  0.00    +0.000 A 
BRANCH  18  22
ATOM     22  C   UNL     1       7.821   5.452  13.553  0.00  0.00    +0.000 C 
ATOM     23  N   UNL     1       8.487   5.868  12.693  0.00  0.00    +0.000 NA
ENDBRANCH  18  22
ENDBRANCH  11  15
TORSDOF 2
ENDMDL
MODEL 4
REMARK VINA RESULT:      -6.9      4.227      6.350
REMARK  Name = 
REMARK  4 active torsions:
REMARK  status: ('A' for Active; 'I' for Inactive)
REMARK    1  A    between atoms: C_1  and  C_2
REMARK    2  A    between atoms: C_5  and  C_6
REMARK    3  A    between atoms: N_11  and  C_12
REMARK    4  A    between atoms: C_15  and  C_16
REMARK                            x       y       z     vdW  Elec       q    Type
REMARK                         _______ _______ _______ _____ _____    ______ ____
ROOT
ATOM      1  C   UNL     1       4.386   4.179  16.258  0.00  0.00    +0.000 C 
ATOM      2  C   UNL     1       3.974   3.697  17.641  0.00  0.00    +0.000 C 
ATOM      3  C   UNL     1       3.964   2.156  17.592  0.00  0.00    +0.000 C 
ATOM      4  C   UNL     1       2.808   1.796  18.537  0.00  0.00    +0.000 C 
ATOM      5  C   UNL     1       2.825   2.956  19.572  0.00  0.00    +0.000 C 
ATOM      6  C   UNL     1       4.061   2.170  20.351  0.00  0.00    +0.000 C 
ATOM      7  O   UNL     1       2.642   3.731  18.145  0.00  0.00    +0.000 OA
ATOM      8  C   UNL     1       3.559   4.286  19.925  0.00  0.00    +0.000 C 
ATOM      9  C   UNL     1       2.532   5.370  20.051  0.00  0.00    +0.000 C 
ATOM     10  O   UNL     1       1.557   5.262  20.783  0.00  0.00    +0.000 OA
ATOM     11  N   UNL     1       2.912   6.418  19.253  0.00  0.00    +0.000 N 
ATOM     12  C   UNL     1       4.071   6.113  18.551  0.00  0.00    +0.000 C 
ATOM     13  O   UNL     1       4.745   6.884  17.885  0.00  0.00    +0.000 OA
ATOM     14  C   UNL     1       4.466   4.632  18.752  0.00  0.00    +0.000 C 
ENDROOT
BRANCH  11  15
ATOM     15  C   UNL     1       2.166   7.633  19.180  0.00  0.00    +0.000 A 
ATOM     16  C   UNL     1       1.995   8.325  17.975  0.00  0.00    +0.000 A 
ATOM     17  N   UNL     1       1.352   9.512  17.830  0.00  0.00    +0.000 NA
ATOM     18  C   UNL     1       0.853  10.088  18.956  0.00  0.00    +0.000 A 
ATOM     19  C   UNL     1       0.956   9.493  20.196  0.00  0.00    +0.000 A 
ATOM     20 CL   UNL     1       0.356  10.239  21.638  0.00  0.00    +0.000 Cl
ATOM     21  C   UNL     1       1.605   8.247  20.314  0.00  0.00    +0.000 A 
BRANCH  18  22
ATOM     22  C   UNL     1       0.220  11.363  18.746  0.00  0.00    +0.000 C 
ATOM     23  N   UNL     1      -0.297  12.393  18.578  0.00  0.00    +0.000 NA
ENDBRANCH  18  22
ENDBRANCH  11  15
TORSDOF 2
ENDMDL
MODEL 5
REMARK VINA RESULT:      -6.4      1.192      1.874
REMARK  Name = 
REMARK  4 active torsions:
REMARK  status: ('A' for Active; 'I' for Inactive)
REMARK    1  A    between atoms: C_1  and  C_2
REMARK    2  A    between atoms: C_5  and  C_6
REMARK    3  A    between atoms: N_11  and  C_12
REMARK    4  A    between atoms: C_15  and  C_16
REMARK                            x       y       z     vdW  Elec       q    Type
REMARK                         _______ _______ _______ _____ _____    ______ ____
ROOT
ATOM      1  C   UNL     1       0.657   4.415  17.826  0.00  0.00    +0.000 C 
ATOM      2  C   UNL     1       1.632   4.049  18.934  0.00  0.00    +0.000 C 
ATOM      3  C   UNL     1       0.923   4.346  20.270  0.00  0.00    +0.000 C 
ATOM      4  C   UNL     1       2.079   4.809  21.170  0.00  0.00    +0.000 C 
ATOM      5  C   UNL     1       3.295   4.013  20.618  0.00  0.00    +0.000 C 
ATOM      6  C   UNL     1       2.773   2.709  21.500  0.00  0.00    +0.000 C 
ATOM      7  O   UNL     1       2.759   4.835  19.310  0.00  0.00    +0.000 OA
ATOM      8  C   UNL     1       3.705   2.995  19.510  0.00  0.00    +0.000 C 
ATOM      9  C   UNL     1       4.861   3.569  18.749  0.00  0.00    +0.000 C 
ATOM     10  O   UNL     1       5.877   3.962  19.306  0.00  0.00    +0.000 OA
ATOM     11  N   UNL     1       4.557   3.534  17.413  0.00  0.00    +0.000 N 
ATOM     12  C   UNL     1       3.273   3.046  17.208  0.00  0.00    +0.000 C 
ATOM     13  O   UNL     1       2.767   2.747  16.136  0.00  0.00    +0.000 OA
ATOM     14  C   UNL     1       2.529   2.865  18.551  0.00  0.00    +0.000 C 
ENDROOT
BRANCH  11  15
ATOM     15  C   UNL     1       5.473   3.972  16.408  0.00  0.00    +0.000 A 
ATOM     16  C   UNL     1       6.404   4.989  16.648  0.00  0.00    +0.000 A 
ATOM     17  N   UNL     1       7.267   5.501  15.735  0.00  0.00    +0.000 NA
ATOM     18  C   UNL     1       7.204   4.998  14.472  0.00  0.00    +0.000 A 
ATOM     19  C   UNL     1       6.331   3.990  14.124  0.00  0.00    +0.000 A 
ATOM     20 CL   UNL     1       6.220   3.372  12.511  0.00  0.00    +0.000 Cl
ATOM     21  C   UNL     1       5.464   3.457  15.100  0.00  0.00    +0.000 A 
BRANCH  18  22
ATOM     22  C   UNL     1       8.114   5.609  13.539  0.00  0.00    +0.000 C 
ATOM     23  N   UNL     1       8.846   6.105  12.782  0.00  0.00    +0.000 NA
ENDBRANCH  18  22
ENDBRANCH  11  15
TORSDOF 2
ENDMDL
MODEL 6
REMARK VINA RESULT:      -6.3      4.392      7.426
REMARK  Name = 
REMARK  4 active torsions:
REMARK  status: ('A' for Active; 'I' for Inactive)
REMARK    1  A    between atoms: C_1  and  C_2
REMARK    2  A    between atoms: C_5  and  C_6
REMARK    3  A    between atoms: N_11  and  C_12
REMARK    4  A    between atoms: C_15  and  C_16
REMARK                            x       y       z     vdW  Elec       q    Type
REMARK                         _______ _______ _______ _____ _____    ______ ____
ROOT
ATOM      1  C   UNL     1       4.702   3.781  19.558  0.00  0.00    +0.000 C 
ATOM      2  C   UNL     1       4.906   4.725  18.382  0.00  0.00    +0.000 C 
ATOM      3  C   UNL     1       6.247   4.340  17.727  0.00  0.00    +0.000 C 
ATOM      4  C   UNL     1       6.787   5.694  17.243  0.00  0.00    +0.000 C 
ATOM      5  C   UNL     1       5.493   6.496  16.928  0.00  0.00    +0.000 C 
ATOM      6  C   UNL     1       5.420   5.702  15.473  0.00  0.00    +0.000 C 
ATOM      7  O   UNL     1       5.306   6.087  18.499  0.00  0.00    +0.000 OA
ATOM      8  C   UNL     1       3.937   6.397  16.967  0.00  0.00    +0.000 C 
ATOM      9  C   UNL     1       3.410   7.562  17.747  0.00  0.00    +0.000 C 
ATOM     10  O   UNL     1       3.716   8.717  17.480  0.00  0.00    +0.000 OA
ATOM     11  N   UNL     1       2.572   7.085  18.720  0.00  0.00    +0.000 N 
ATOM     12  C   UNL     1       2.533   5.697  18.706  0.00  0.00    +0.000 C 
ATOM     13  O   UNL     1       1.769   4.980  19.336  0.00  0.00    +0.000 OA
ATOM     14  C   UNL     1       3.580   5.124  17.722  0.00  0.00    +0.000 C 
ENDROOT
BRANCH  11  15
ATOM     15  C   UNL     1       1.867   7.948  19.614  0.00  0.00    +0.000 A 
ATOM     16  C   UNL     1       1.834   7.716  20.994  0.00  0.00    +0.000 A 
ATOM     17  N   UNL     1       1.144   8.451  21.902  0.00  0.00    +0.000 NA
ATOM     18  C   UNL     1       0.402   9.488  21.426  0.00  0.00    +0.000 A 
ATOM     19  C   UNL     1       0.367   9.813  20.087  0.00  0.00    +0.000 A 
ATOM     20 CL   UNL     1      -0.604  11.107  19.470  0.00  0.00    +0.000 Cl
ATOM     21  C   UNL     1       1.115   9.049  19.169  0.00  0.00    +0.000 A 
BRANCH  18  22
ATOM     22  C   UNL     1      -0.339  10.204  22.430  0.00  0.00    +0.000 C 
ATOM     23  N   UNL     1      -0.944  10.783  23.239  0.00  0.00    +0.000 NA
ENDBRANCH  18  22
ENDBRANCH  11  15
TORSDOF 2
ENDMDL
MODEL 7
REMARK VINA RESULT:      -6.3      5.053      7.649
REMARK  Name = 
REMARK  4 active torsions:
REMARK  status: ('A' for Active; 'I' for Inactive)
REMARK    1  A    between atoms: C_1  and  C_2
REMARK    2  A    between atoms: C_5  and  C_6
REMARK    3  A    between atoms: N_11  and  C_12
REMARK    4  A    between atoms: C_15  and  C_16
REMARK                            x       y       z     vdW  Elec       q    Type
REMARK                         _______ _______ _______ _____ _____    ______ ____
ROOT
ATOM      1  C   UNL     1      -1.092  10.686  22.696  0.00  0.00    +0.000 C 
ATOM      2  C   UNL     1      -0.786  11.188  21.293  0.00  0.00    +0.000 C 
ATOM      3  C   UNL     1      -1.816  12.291  20.979  0.00  0.00    +0.000 C 
ATOM      4  C   UNL     1      -2.048  12.115  19.470  0.00  0.00    +0.000 C 
ATOM      5  C   UNL     1      -0.677  11.585  18.963  0.00  0.00    +0.000 C 
ATOM      6  C   UNL     1      -0.130  13.151  18.969  0.00  0.00    +0.000 C 
ATOM      7  O   UNL     1      -1.107  10.488  20.096  0.00  0.00    +0.000 OA
ATOM      8  C   UNL     1       0.746  11.173  19.451  0.00  0.00    +0.000 C 
ATOM      9  C   UNL     1       1.027   9.785  18.962  0.00  0.00    +0.000 C 
ATOM     10  O   UNL     1       0.920   9.476  17.783  0.00  0.00    +0.000 OA
ATOM     11  N   UNL     1       1.417   9.023  20.032  0.00  0.00    +0.000 N 
ATOM     12  C   UNL     1       1.363   9.756  21.211  0.00  0.00    +0.000 C 
ATOM     13  O   UNL     1       1.793   9.415  22.303  0.00  0.00    +0.000 OA
ATOM     14  C   UNL     1       0.713  11.139  20.973  0.00  0.00    +0.000 C 
ENDROOT
BRANCH  11  15
ATOM     15  C   UNL     1       1.801   7.654  19.897  0.00  0.00    +0.000 A 
ATOM     16  C   UNL     1       1.440   6.687  20.842  0.00  0.00    +0.000 A 
ATOM     17  N   UNL     1       1.811   5.382  20.818  0.00  0.00    +0.000 NA
ATOM     18  C   UNL     1       2.624   4.986  19.802  0.00  0.00    +0.000 A 
ATOM     19  C   UNL     1       3.036   5.851  18.810  0.00  0.00    +0.000 A 
ATOM     20 CL   UNL     1       4.101   5.365  17.535  0.00  0.00    +0.000 Cl
ATOM     21  C   UNL     1       2.613   7.196  18.845  0.00  0.00    +0.000 A 
BRANCH  18  22
ATOM     22  C   UNL     1       3.017   3.603  19.852  0.00  0.00    +0.000 C 
ATOM     23  N   UNL     1       3.330   2.483  19.894  0.00  0.00    +0.000 NA
ENDBRANCH  18  22
ENDBRANCH  11  15
TORSDOF 2
ENDMDL
MODEL 8
REMARK VINA RESULT:      -6.3      4.831      7.295
REMARK  Name = 
REMARK  4 active torsions:
REMARK  status: ('A' for Active; 'I' for Inactive)
REMARK    1  A    between atoms: C_1  and  C_2
REMARK    2  A    between atoms: C_5  and  C_6
REMARK    3  A    between atoms: N_11  and  C_12
REMARK    4  A    between atoms: C_15  and  C_16
REMARK                            x       y       z     vdW  Elec       q    Type
REMARK                         _______ _______ _______ _____ _____    ______ ____
ROOT
ATOM      1  C   UNL     1      -0.850  10.021  22.618  0.00  0.00    +0.000 C 
ATOM      2  C   UNL     1      -0.520  10.575  21.240  0.00  0.00    +0.000 C 
ATOM      3  C   UNL     1      -1.553  11.679  20.943  0.00  0.00    +0.000 C 
ATOM      4  C   UNL     1      -1.753  11.555  19.424  0.00  0.00    +0.000 C 
ATOM      5  C   UNL     1      -0.368  11.054  18.927  0.00  0.00    +0.000 C 
ATOM      6  C   UNL     1       0.165  12.622  18.999  0.00  0.00    +0.000 C 
ATOM      7  O   UNL     1      -0.811   9.914  20.012  0.00  0.00    +0.000 OA
ATOM      8  C   UNL     1       1.049  10.636  19.430  0.00  0.00    +0.000 C 
ATOM      9  C   UNL     1       1.352   9.269  18.899  0.00  0.00    +0.000 C 
ATOM     10  O   UNL     1       1.272   9.000  17.707  0.00  0.00    +0.000 OA
ATOM     11  N   UNL     1       1.727   8.472  19.950  0.00  0.00    +0.000 N 
ATOM     12  C   UNL     1       1.643   9.163  21.152  0.00  0.00    +0.000 C 
ATOM     13  O   UNL     1       2.054   8.788  22.240  0.00  0.00    +0.000 OA
ATOM     14  C   UNL     1       0.986  10.548  20.949  0.00  0.00    +0.000 C 
ENDROOT
BRANCH  11  15
ATOM     15  C   UNL     1       2.126   7.112  19.774  0.00  0.00    +0.000 A 
ATOM     16  C   UNL     1       3.066   6.736  18.808  0.00  0.00    +0.000 A 
ATOM     17  N   UNL     1       3.456   5.464  18.539  0.00  0.00    +0.000 NA
ATOM     18  C   UNL     1       2.863   4.469  19.253  0.00  0.00    +0.000 A 
ATOM     19  C   UNL     1       1.930   4.724  20.235  0.00  0.00    +0.000 A 
ATOM     20 CL   UNL     1       1.145   3.461  21.121  0.00  0.00    +0.000 Cl
ATOM     21  C   UNL     1       1.563   6.057  20.513  0.00  0.00    +0.000 A 
BRANCH  18  22
ATOM     22  C   UNL     1       3.286   3.142  18.895  0.00  0.00    +0.000 C 
ATOM     23  N   UNL     1       3.624   2.067  18.601  0.00  0.00    +0.000 NA
ENDBRANCH  18  22
ENDBRANCH  11  15
TORSDOF 2
ENDMDL
MODEL 9
REMARK VINA RESULT:      -6.2      5.930      8.109
REMARK  Name = 
REMARK  4 active torsions:
REMARK  status: ('A' for Active; 'I' for Inactive)
REMARK    1  A    between atoms: C_1  and  C_2
REMARK    2  A    between atoms: C_5  and  C_6
REMARK    3  A    between atoms: N_11  and  C_12
REMARK    4  A    between atoms: C_15  and  C_16
REMARK                            x       y       z     vdW  Elec       q    Type
REMARK                         _______ _______ _______ _____ _____    ______ ____
ROOT
ATOM      1  C   UNL     1      -0.726  13.173  18.206  0.00  0.00    +0.000 C 
ATOM      2  C   UNL     1      -0.668  12.871  19.696  0.00  0.00    +0.000 C 
ATOM      3  C   UNL     1      -0.893  14.206  20.432  0.00  0.00    +0.000 C 
ATOM      4  C   UNL     1      -0.011  14.056  21.681  0.00  0.00    +0.000 C 
ATOM      5  C   UNL     1      -0.042  12.525  21.952  0.00  0.00    +0.000 C 
ATOM      6  C   UNL     1      -1.512  12.739  22.688  0.00  0.00    +0.000 C 
ATOM      7  O   UNL     1       0.531  12.624  20.424  0.00  0.00    +0.000 OA
ATOM      8  C   UNL     1      -0.609  11.183  21.395  0.00  0.00    +0.000 C 
ATOM      9  C   UNL     1       0.534  10.232  21.207  0.00  0.00    +0.000 C 
ATOM     10  O   UNL     1       1.321   9.974  22.108  0.00  0.00    +0.000 OA
ATOM     11  N   UNL     1       0.484   9.748  19.926  0.00  0.00    +0.000 N 
ATOM     12  C   UNL     1      -0.553  10.335  19.212  0.00  0.00    +0.000 C 
ATOM     13  O   UNL     1      -0.956  10.006  18.106  0.00  0.00    +0.000 OA
ATOM     14  C   UNL     1      -1.209  11.474  20.026  0.00  0.00    +0.000 C 
ENDROOT
BRANCH  11  15
ATOM     15  C   UNL     1       1.414   8.780  19.438  0.00  0.00    +0.000 A 
ATOM     16  C   UNL     1       2.091   8.950  18.224  0.00  0.00    +0.000 A 
ATOM     17  N   UNL     1       2.944   8.056  17.663  0.00  0.00    +0.000 NA
ATOM     18  C   UNL     1       3.136   6.883  18.325  0.00  0.00    +0.000 A 
ATOM     19  C   UNL     1       2.527   6.610  19.532  0.00  0.00    +0.000 A 
ATOM     20 CL   UNL     1       2.738   5.105  20.361  0.00  0.00    +0.000 Cl
ATOM     21  C   UNL     1       1.668   7.569  20.106  0.00  0.00    +0.000 A 
BRANCH  18  22
ATOM     22  C   UNL     1       4.017   5.958  17.662  0.00  0.00    +0.000 C 
ATOM     23  N   UNL     1       4.730   5.214  17.121  0.00  0.00    +0.000 NA
ENDBRANCH  18  22
ENDBRANCH  11  15
TORSDOF 2
ENDMDL
