MODEL 1
REMARK VINA RESULT:      -7.9      0.000      0.000
REMARK  Name = 
REMARK  5 active torsions:
REMARK  status: ('A' for Active; 'I' for Inactive)
REMARK    1  A    between atoms: C_1  and  O_2
REMARK    2  A    between atoms: O_2  and  C_3
REMARK    3  A    between atoms: C_3  and  C_5
REMARK    4  A    between atoms: N_11  and  C_12
REMARK    5  A    between atoms: C_12  and  C_13
REMARK                            x       y       z     vdW  Elec       q    Type
REMARK                         _______ _______ _______ _____ _____    ______ ____
ROOT
ATOM      1  C   UNL     1       5.626   5.174  15.706  0.00  0.00    +0.000 C 
ATOM      2  C   UNL     1       5.785   6.623  16.226  0.00  0.00    +0.000 C 
ATOM      3  C   UNL     1       7.170   6.834  16.918  0.00  0.00    +0.000 C 
ATOM      4  C   UNL     1       7.481   5.815  18.026  0.00  0.00    +0.000 C 
ATOM      5  C   UNL     1       7.163   4.385  17.567  0.00  0.00    +0.000 C 
ATOM      6  C   UNL     1       5.740   4.240  16.937  0.00  0.00    +0.000 C 
ATOM      7  N   UNL     1       4.588   4.480  17.867  0.00  0.00    +0.000 NA
ATOM      8  C   UNL     1       4.350   5.901  18.256  0.00  0.00    +0.000 C 
ATOM      9  C   UNL     1       4.549   6.906  17.107  0.00  0.00    +0.000 C 
ENDROOT
BRANCH   1  10
ATOM     10  C   UNL     1       6.579   4.795  14.584  0.00  0.00    +0.000 C 
ATOM     11  O   UNL     1       7.551   5.507  14.373  0.00  0.00    +0.000 OA
BRANCH  10  13
ATOM     12  C   UNL     1       6.443   3.630  12.473  0.00  0.00    +0.000 C 
ATOM     13  O   UNL     1       6.389   3.668  13.849  0.00  0.00    +0.000 OA
ENDBRANCH  10  13
ENDBRANCH   1  10
BRANCH   7  14
ATOM     14  C   UNL     1       4.607   3.642  19.092  0.00  0.00    +0.000 C 
BRANCH  14  15
ATOM     15  C   UNL     1       3.240   3.334  19.663  0.00  0.00    +0.000 A 
ATOM     16  C   UNL     1       3.084   3.158  21.051  0.00  0.00    +0.000 A 
ATOM     17  C   UNL     1       1.825   2.908  21.600  0.00  0.00    +0.000 A 
ATOM     18  C   UNL     1       0.702   2.841  20.774  0.00  0.00    +0.000 A 
ATOM     19  C   UNL     1       0.840   3.018  19.394  0.00  0.00    +0.000 A 
ATOM     20  C   UNL     1       2.102   3.261  18.837  0.00  0.00    +0.000 A 
ENDBRANCH  14  15
ENDBRANCH   7  14
TORSDOF 4
ENDMDL
MODEL 2
REMARK VINA RESULT:      -7.8      0.390      1.131
REMARK  Name = 
REMARK  5 active torsions:
REMARK  status: ('A' for Active; 'I' for Inactive)
REMARK    1  A    between atoms: C_1  and  O_2
REMARK    2  A    between atoms: O_2  and  C_3
REMARK    3  A    between atoms: C_3  and  C_5
REMARK    4  A    between atoms: N_11  and  C_12
REMARK    5  A    between atoms: C_12  and  C_13
REMARK                            x       y       z     vdW  Elec       q    Type
REMARK                         _______ _______ _______ _____ _____    ______ ____
ROOT
ATOM      1  C   UNL     1       5.863   5.259  15.690  0.00  0.00    +0.000 C 
ATOM      2  C   UNL     1       5.928   6.686  16.286  0.00  0.00    +0.000 C 
ATOM      3  C   UNL     1       7.239   6.903  17.110  0.00  0.00    +0.000 C 
ATOM      4  C   UNL     1       7.481   5.842  18.196  0.00  0.00    +0.000 C 
ATOM      5  C   UNL     1       7.252   4.427  17.647  0.00  0.00    +0.000 C 
ATOM      6  C   UNL     1       5.896   4.272  16.885  0.00  0.00    +0.000 C 
ATOM      7  N   UNL     1       4.658   4.437  17.715  0.00  0.00    +0.000 NA
ATOM      8  C   UNL     1       4.342   5.830  18.143  0.00  0.00    +0.000 C 
ATOM      9  C   UNL     1       4.611   6.893  17.062  0.00  0.00    +0.000 C 
ENDROOT
BRANCH   1  10
ATOM     10  C   UNL     1       6.924   4.959  14.644  0.00  0.00    +0.000 C 
ATOM     11  O   UNL     1       7.924   5.664  14.602  0.00  0.00    +0.000 OA
BRANCH  10  13
ATOM     12  C   UNL     1       5.626   3.579  13.147  0.00  0.00    +0.000 C 
ATOM     13  O   UNL     1       6.798   3.908  13.794  0.00  0.00    +0.000 OA
ENDBRANCH  10  13
ENDBRANCH   1  10
BRANCH   7  14
ATOM     14  C   UNL     1       4.593   3.543  18.899  0.00  0.00    +0.000 C 
BRANCH  14  15
ATOM     15  C   UNL     1       3.198   3.315  19.438  0.00  0.00    +0.000 A 
ATOM     16  C   UNL     1       2.165   2.923  18.565  0.00  0.00    +0.000 A 
ATOM     17  C   UNL     1       0.880   2.674  19.048  0.00  0.00    +0.000 A 
ATOM     18  C   UNL     1       0.609   2.802  20.412  0.00  0.00    +0.000 A 
ATOM     19  C   UNL     1       1.625   3.186  21.292  0.00  0.00    +0.000 A 
ATOM     20  C   UNL     1       2.915   3.445  20.810  0.00  0.00    +0.000 A 
ENDBRANCH  14  15
ENDBRANCH   7  14
TORSDOF 4
ENDMDL
MODEL 3
REMARK VINA RESULT:      -7.7      0.558      1.433
REMARK  Name = 
REMARK  5 active torsions:
REMARK  status: ('A' for Active; 'I' for Inactive)
REMARK    1  A    between atoms: C_1  and  O_2
REMARK    2  A    between atoms: O_2  and  C_3
REMARK    3  A    between atoms: C_3  and  C_5
REMARK    4  A    between atoms: N_11  and  C_12
REMARK    5  A    between atoms: C_12  and  C_13
REMARK                            x       y       z     vdW  Elec       q    Type
REMARK                         _______ _______ _______ _____ _____    ______ ____
ROOT
ATOM      1  C   UNL     1       5.686   5.149  15.687  0.00  0.00    +0.000 C 
ATOM      2  C   UNL     1       5.828   6.600  16.208  0.00  0.00    +0.000 C 
ATOM      3  C   UNL     1       7.206   6.822  16.912  0.00  0.00    +0.000 C 
ATOM      4  C   UNL     1       7.516   5.806  18.023  0.00  0.00    +0.000 C 
ATOM      5  C   UNL     1       7.215   4.374  17.561  0.00  0.00    +0.000 C 
ATOM      6  C   UNL     1       5.798   4.216  16.919  0.00  0.00    +0.000 C 
ATOM      7  N   UNL     1       4.636   4.447  17.839  0.00  0.00    +0.000 NA
ATOM      8  C   UNL     1       4.383   5.865  18.226  0.00  0.00    +0.000 C 
ATOM      9  C   UNL     1       4.583   6.872  17.078  0.00  0.00    +0.000 C 
ENDROOT
BRANCH   1  10
ATOM     10  C   UNL     1       6.652   4.778  14.573  0.00  0.00    +0.000 C 
ATOM     11  O   UNL     1       6.463   3.740  13.953  0.00  0.00    +0.000 OA
BRANCH  10  13
ATOM     12  C   UNL     1       8.277   5.608  12.991  0.00  0.00    +0.000 C 
ATOM     13  O   UNL     1       7.685   5.593  14.235  0.00  0.00    +0.000 OA
ENDBRANCH  10  13
ENDBRANCH   1  10
BRANCH   7  14
ATOM     14  C   UNL     1       4.652   3.609  19.064  0.00  0.00    +0.000 C 
BRANCH  14  15
ATOM     15  C   UNL     1       3.288   3.357  19.669  0.00  0.00    +0.000 A 
ATOM     16  C   UNL     1       2.170   3.183  18.830  0.00  0.00    +0.000 A 
ATOM     17  C   UNL     1       0.911   2.915  19.368  0.00  0.00    +0.000 A 
ATOM     18  C   UNL     1       0.749   2.805  20.750  0.00  0.00    +0.000 A 
ATOM     19  C   UNL     1       1.850   2.971  21.596  0.00  0.00    +0.000 A 
ATOM     20  C   UNL     1       3.115   3.248  21.062  0.00  0.00    +0.000 A 
ENDBRANCH  14  15
ENDBRANCH   7  14
TORSDOF 4
ENDMDL
MODEL 4
REMARK VINA RESULT:      -7.3      2.003      3.318
REMARK  Name = 
REMARK  5 active torsions:
REMARK  status: ('A' for Active; 'I' for Inactive)
REMARK    1  A    between atoms: C_1  and  O_2
REMARK    2  A    between atoms: O_2  and  C_3
REMARK    3  A    between atoms: C_3  and  C_5
REMARK    4  A    between atoms: N_11  and  C_12
REMARK    5  A    between atoms: C_12  and  C_13
REMARK                            x       y       z     vdW  Elec       q    Type
REMARK                         _______ _______ _______ _____ _____    ______ ____
ROOT
ATOM      1  C   UNL     1       6.703   4.755  17.874  0.00  0.00    +0.000 C 
ATOM      2  C   UNL     1       6.919   5.146  16.391  0.00  0.00    +0.000 C 
ATOM      3  C   UNL     1       6.287   6.538  16.069  0.00  0.00    +0.000 C 
ATOM      4  C   UNL     1       4.805   6.662  16.459  0.00  0.00    +0.000 C 
ATOM      5  C   UNL     1       4.559   6.117  17.873  0.00  0.00    +0.000 C 
ATOM      6  C   UNL     1       5.171   4.697  18.104  0.00  0.00    +0.000 C 
ATOM      7  N   UNL     1       4.576   3.589  17.287  0.00  0.00    +0.000 NA
ATOM      8  C   UNL     1       4.930   3.586  15.838  0.00  0.00    +0.000 C 
ATOM      9  C   UNL     1       6.394   3.964  15.550  0.00  0.00    +0.000 C 
ENDROOT
BRANCH   1  10
ATOM     10  C   UNL     1       7.420   5.646  18.876  0.00  0.00    +0.000 C 
ATOM     11  O   UNL     1       7.167   5.513  20.066  0.00  0.00    +0.000 OA
BRANCH  10  13
ATOM     12  C   UNL     1       8.172   7.913  18.518  0.00  0.00    +0.000 C 
ATOM     13  O   UNL     1       8.353   6.547  18.475  0.00  0.00    +0.000 OA
ENDBRANCH  10  13
ENDBRANCH   1  10
BRANCH   7  14
ATOM     14  C   UNL     1       3.104   3.453  17.424  0.00  0.00    +0.000 C 
BRANCH  14  15
ATOM     15  C   UNL     1       2.608   3.405  18.852  0.00  0.00    +0.000 A 
ATOM     16  C   UNL     1       3.234   2.551  19.782  0.00  0.00    +0.000 A 
ATOM     17  C   UNL     1       2.814   2.519  21.113  0.00  0.00    +0.000 A 
ATOM     18  C   UNL     1       1.772   3.345  21.538  0.00  0.00    +0.000 A 
ATOM     19  C   UNL     1       1.145   4.201  20.628  0.00  0.00    +0.000 A 
ATOM     20  C   UNL     1       1.556   4.231  19.290  0.00  0.00    +0.000 A 
ENDBRANCH  14  15
ENDBRANCH   7  14
TORSDOF 4
ENDMDL
MODEL 5
REMARK VINA RESULT:      -7.2      1.996      3.395
REMARK  Name = 
REMARK  5 active torsions:
REMARK  status: ('A' for Active; 'I' for Inactive)
REMARK    1  A    between atoms: C_1  and  O_2
REMARK    2  A    between atoms: O_2  and  C_3
REMARK    3  A    between atoms: C_3  and  C_5
REMARK    4  A    between atoms: N_11  and  C_12
REMARK    5  A    between atoms: C_12  and  C_13
REMARK                            x       y       z     vdW  Elec       q    Type
REMARK                         _______ _______ _______ _____ _____    ______ ____
ROOT
ATOM      1  C   UNL     1       6.744   4.720  17.858  0.00  0.00    +0.000 C 
ATOM      2  C   UNL     1       6.981   5.002  16.354  0.00  0.00    +0.000 C 
ATOM      3  C   UNL     1       6.396   6.388  15.932  0.00  0.00    +0.000 C 
ATOM      4  C   UNL     1       4.917   6.584  16.301  0.00  0.00    +0.000 C 
ATOM      5  C   UNL     1       4.645   6.145  17.746  0.00  0.00    +0.000 C 
ATOM      6  C   UNL     1       5.210   4.726  18.079  0.00  0.00    +0.000 C 
ATOM      7  N   UNL     1       4.584   3.584  17.334  0.00  0.00    +0.000 NA
ATOM      8  C   UNL     1       4.947   3.471  15.892  0.00  0.00    +0.000 C 
ATOM      9  C   UNL     1       6.424   3.782  15.591  0.00  0.00    +0.000 C 
ENDROOT
BRANCH   1  10
ATOM     10  C   UNL     1       7.483   5.655  18.803  0.00  0.00    +0.000 C 
ATOM     11  O   UNL     1       7.344   5.500  20.009  0.00  0.00    +0.000 OA
BRANCH  10  13
ATOM     12  C   UNL     1       8.123   7.968  18.539  0.00  0.00    +0.000 C 
ATOM     13  O   UNL     1       8.315   6.619  18.332  0.00  0.00    +0.000 OA
ENDBRANCH  10  13
ENDBRANCH   1  10
BRANCH   7  14
ATOM     14  C   UNL     1       3.108   3.504  17.468  0.00  0.00    +0.000 C 
BRANCH  14  15
ATOM     15  C   UNL     1       2.610   3.448  18.895  0.00  0.00    +0.000 A 
ATOM     16  C   UNL     1       1.575   4.308  19.311  0.00  0.00    +0.000 A 
ATOM     17  C   UNL     1       1.078   4.247  20.614  0.00  0.00    +0.000 A 
ATOM     18  C   UNL     1       1.598   3.319  21.518  0.00  0.00    +0.000 A 
ATOM     19  C   UNL     1       2.622   2.456  21.119  0.00  0.00    +0.000 A 
ATOM     20  C   UNL     1       3.131   2.519  19.815  0.00  0.00    +0.000 A 
ENDBRANCH  14  15
ENDBRANCH   7  14
TORSDOF 4
ENDMDL
MODEL 6
REMARK VINA RESULT:      -7.1      1.885      3.539
REMARK  Name = 
REMARK  5 active torsions:
REMARK  status: ('A' for Active; 'I' for Inactive)
REMARK    1  A    between atoms: C_1  and  O_2
REMARK    2  A    between atoms: O_2  and  C_3
REMARK    3  A    between atoms: C_3  and  C_5
REMARK    4  A    between atoms: N_11  and  C_12
REMARK    5  A    between atoms: C_12  and  C_13
REMARK                            x       y       z     vdW  Elec       q    Type
REMARK                         _______ _______ _______ _____ _____    ______ ____
ROOT
ATOM      1  C   UNL     1       6.674   6.637  18.055  0.00  0.00    +0.000 C 
ATOM      2  C   UNL     1       7.131   5.166  17.891  0.00  0.00    +0.000 C 
ATOM      3  C   UNL     1       7.047   4.704  16.401  0.00  0.00    +0.000 C 
ATOM      4  C   UNL     1       5.673   4.928  15.750  0.00  0.00    +0.000 C 
ATOM      5  C   UNL     1       5.140   6.335  16.054  0.00  0.00    +0.000 C 
ATOM      6  C   UNL     1       5.203   6.706  17.571  0.00  0.00    +0.000 C 
ATOM      7  N   UNL     1       4.330   5.892  18.478  0.00  0.00    +0.000 NA
ATOM      8  C   UNL     1       4.777   4.491  18.727  0.00  0.00    +0.000 C 
ATOM      9  C   UNL     1       6.300   4.339  18.894  0.00  0.00    +0.000 C 
ENDROOT
BRANCH   1  10
ATOM     10  C   UNL     1       7.571   7.659  17.376  0.00  0.00    +0.000 C 
ATOM     11  O   UNL     1       8.311   7.286  16.476  0.00  0.00    +0.000 OA
BRANCH  10  13
ATOM     12  C   UNL     1       8.594   9.652  18.279  0.00  0.00    +0.000 C 
ATOM     13  O   UNL     1       7.531   8.971  17.724  0.00  0.00    +0.000 OA
ENDBRANCH  10  13
ENDBRANCH   1  10
BRANCH   7  14
ATOM     14  C   UNL     1       2.895   5.879  18.095  0.00  0.00    +0.000 C 
BRANCH  14  15
ATOM     15  C   UNL     1       2.081   4.785  18.749  0.00  0.00    +0.000 A 
ATOM     16  C   UNL     1       1.666   3.672  17.992  0.00  0.00    +0.000 A 
ATOM     17  C   UNL     1       0.944   2.636  18.585  0.00  0.00    +0.000 A 
ATOM     18  C   UNL     1       0.635   2.689  19.946  0.00  0.00    +0.000 A 
ATOM     19  C   UNL     1       1.043   3.785  20.712  0.00  0.00    +0.000 A 
ATOM     20  C   UNL     1       1.761   4.832  20.119  0.00  0.00    +0.000 A 
ENDBRANCH  14  15
ENDBRANCH   7  14
TORSDOF 4
ENDMDL
MODEL 7
REMARK VINA RESULT:      -7.1      1.978      3.202
REMARK  Name = 
REMARK  5 active torsions:
REMARK  status: ('A' for Active; 'I' for Inactive)
REMARK    1  A    between atoms: C_1  and  O_2
REMARK    2  A    between atoms: O_2  and  C_3
REMARK    3  A    between atoms: C_3  and  C_5
REMARK    4  A    between atoms: N_11  and  C_12
REMARK    5  A    between atoms: C_12  and  C_13
REMARK                            x       y       z     vdW  Elec       q    Type
REMARK                         _______ _______ _______ _____ _____    ______ ____
ROOT
ATOM      1  C   UNL     1       6.597   5.320  17.624  0.00  0.00    +0.000 C 
ATOM      2  C   UNL     1       5.498   5.612  16.574  0.00  0.00    +0.000 C 
ATOM      3  C   UNL     1       4.447   6.634  17.115  0.00  0.00    +0.000 C 
ATOM      4  C   UNL     1       3.827   6.243  18.465  0.00  0.00    +0.000 C 
ATOM      5  C   UNL     1       4.905   5.791  19.459  0.00  0.00    +0.000 C 
ATOM      6  C   UNL     1       5.885   4.727  18.866  0.00  0.00    +0.000 C 
ATOM      7  N   UNL     1       5.275   3.401  18.518  0.00  0.00    +0.000 NA
ATOM      8  C   UNL     1       4.406   3.383  17.307  0.00  0.00    +0.000 C 
ATOM      9  C   UNL     1       4.935   4.241  16.143  0.00  0.00    +0.000 C 
ENDROOT
BRANCH   1  10
ATOM     10  C   UNL     1       7.485   6.508  17.961  0.00  0.00    +0.000 C 
ATOM     11  O   UNL     1       8.183   6.453  18.964  0.00  0.00    +0.000 OA
BRANCH  10  13
ATOM     12  C   UNL     1       7.865   8.863  17.587  0.00  0.00    +0.000 C 
ATOM     13  O   UNL     1       7.541   7.596  17.151  0.00  0.00    +0.000 OA
ENDBRANCH  10  13
ENDBRANCH   1  10
BRANCH   7  14
ATOM     14  C   UNL     1       4.553   2.748  19.639  0.00  0.00    +0.000 C 
BRANCH  14  15
ATOM     15  C   UNL     1       3.050   2.914  19.598  0.00  0.00    +0.000 A 
ATOM     16  C   UNL     1       2.285   2.142  18.703  0.00  0.00    +0.000 A 
ATOM     17  C   UNL     1       0.894   2.255  18.675  0.00  0.00    +0.000 A 
ATOM     18  C   UNL     1       0.245   3.131  19.547  0.00  0.00    +0.000 A 
ATOM     19  C   UNL     1       0.991   3.901  20.444  0.00  0.00    +0.000 A 
ATOM     20  C   UNL     1       2.388   3.798  20.470  0.00  0.00    +0.000 A 
ENDBRANCH  14  15
ENDBRANCH   7  14
TORSDOF 4
ENDMDL
MODEL 8
REMARK VINA RESULT:      -7.1      1.976      3.077
REMARK  Name = 
REMARK  5 active torsions:
REMARK  status: ('A' for Active; 'I' for Inactive)
REMARK    1  A    between atoms: C_1  and  O_2
REMARK    2  A    between atoms: O_2  and  C_3
REMARK    3  A    between atoms: C_3  and  C_5
REMARK    4  A    between atoms: N_11  and  C_12
REMARK    5  A    between atoms: C_12  and  C_13
REMARK                            x       y       z     vdW  Elec       q    Type
REMARK                         _______ _______ _______ _____ _____    ______ ____
ROOT
ATOM      1  C   UNL     1       6.549   5.261  17.652  0.00  0.00    +0.000 C 
ATOM      2  C   UNL     1       5.436   5.543  16.613  0.00  0.00    +0.000 C 
ATOM      3  C   UNL     1       4.387   6.563  17.161  0.00  0.00    +0.000 C 
ATOM      4  C   UNL     1       3.783   6.175  18.520  0.00  0.00    +0.000 C 
ATOM      5  C   UNL     1       4.875   5.732  19.503  0.00  0.00    +0.000 C 
ATOM      6  C   UNL     1       5.853   4.670  18.905  0.00  0.00    +0.000 C 
ATOM      7  N   UNL     1       5.245   3.340  18.568  0.00  0.00    +0.000 NA
ATOM      8  C   UNL     1       4.363   3.312  17.366  0.00  0.00    +0.000 C 
ATOM      9  C   UNL     1       4.875   4.169  16.194  0.00  0.00    +0.000 C 
ENDROOT
BRANCH   1  10
ATOM     10  C   UNL     1       7.434   6.454  17.974  0.00  0.00    +0.000 C 
ATOM     11  O   UNL     1       8.113   6.424  18.992  0.00  0.00    +0.000 OA
BRANCH  10  13
ATOM     12  C   UNL     1       7.796   8.804  17.551  0.00  0.00    +0.000 C 
ATOM     13  O   UNL     1       7.510   7.521  17.137  0.00  0.00    +0.000 OA
ENDBRANCH  10  13
ENDBRANCH   1  10
BRANCH   7  14
ATOM     14  C   UNL     1       4.539   2.688  19.700  0.00  0.00    +0.000 C 
BRANCH  14  15
ATOM     15  C   UNL     1       3.032   2.823  19.660  0.00  0.00    +0.000 A 
ATOM     16  C   UNL     1       2.382   3.687  20.562  0.00  0.00    +0.000 A 
ATOM     17  C   UNL     1       0.997   3.852  20.518  0.00  0.00    +0.000 A 
ATOM     18  C   UNL     1       0.241   3.165  19.566  0.00  0.00    +0.000 A 
ATOM     19  C   UNL     1       0.873   2.307  18.660  0.00  0.00    +0.000 A 
ATOM     20  C   UNL     1       2.262   2.132  18.706  0.00  0.00    +0.000 A 
ENDBRANCH  14  15
ENDBRANCH   7  14
TORSDOF 4
ENDMDL
MODEL 9
REMARK VINA RESULT:      -7.0      2.428      6.415
REMARK  Name = 
REMARK  5 active torsions:
REMARK  status: ('A' for Active; 'I' for Inactive)
REMARK    1  A    between atoms: C_1  and  O_2
REMARK    2  A    between atoms: O_2  and  C_3
REMARK    3  A    between atoms: C_3  and  C_5
REMARK    4  A    between atoms: N_11  and  C_12
REMARK    5  A    between atoms: C_12  and  C_13
REMARK                            x       y       z     vdW  Elec       q    Type
REMARK                         _______ _______ _______ _____ _____    ______ ____
ROOT
ATOM      1  C   UNL     1       4.713   3.386  18.605  0.00  0.00    +0.000 C 
ATOM      2  C   UNL     1       5.007   4.534  19.601  0.00  0.00    +0.000 C 
ATOM      3  C   UNL     1       3.760   5.455  19.797  0.00  0.00    +0.000 C 
ATOM      4  C   UNL     1       3.170   6.002  18.488  0.00  0.00    +0.000 C 
ATOM      5  C   UNL     1       3.033   4.892  17.437  0.00  0.00    +0.000 C 
ATOM      6  C   UNL     1       4.337   4.049  17.255  0.00  0.00    +0.000 C 
ATOM      7  N   UNL     1       5.520   4.789  16.705  0.00  0.00    +0.000 NA
ATOM      8  C   UNL     1       6.182   5.746  17.638  0.00  0.00    +0.000 C 
ATOM      9  C   UNL     1       6.281   5.237  19.089  0.00  0.00    +0.000 C 
ENDROOT
BRANCH   1  10
ATOM     10  C   UNL     1       3.675   2.383  19.081  0.00  0.00    +0.000 C 
ATOM     11  O   UNL     1       3.352   1.471  18.331  0.00  0.00    +0.000 OA
BRANCH  10  13
ATOM     12  C   UNL     1       1.786   2.515  20.580  0.00  0.00    +0.000 C 
ATOM     13  O   UNL     1       3.140   2.461  20.327  0.00  0.00    +0.000 OA
ENDBRANCH  10  13
ENDBRANCH   1  10
BRANCH   7  14
ATOM     14  C   UNL     1       5.264   5.475  15.413  0.00  0.00    +0.000 C 
BRANCH  14  15
ATOM     15  C   UNL     1       5.926   4.827  14.217  0.00  0.00    +0.000 A 
ATOM     16  C   UNL     1       5.225   3.865  13.464  0.00  0.00    +0.000 A 
ATOM     17  C   UNL     1       5.805   3.281  12.337  0.00  0.00    +0.000 A 
ATOM     18  C   UNL     1       7.088   3.657  11.937  0.00  0.00    +0.000 A 
ATOM     19  C   UNL     1       7.795   4.615  12.671  0.00  0.00    +0.000 A 
ATOM     20  C   UNL     1       7.221   5.197  13.808  0.00  0.00    +0.000 A 
ENDBRANCH  14  15
ENDBRANCH   7  14
TORSDOF 4
ENDMDL
