MODEL 1
REMARK VINA RESULT:      -7.2      0.000      0.000
REMARK  Name = 
REMARK  5 active torsions:
REMARK  status: ('A' for Active; 'I' for Inactive)
REMARK    1  A    between atoms: C_2  and  C_3
REMARK    2  A    between atoms: C_7  and  C_8
REMARK    3  A    between atoms: C_9  and  C_10
REMARK    4  A    between atoms: C_10  and  C_12
REMARK    5  A    between atoms: C_15  and  O_16
REMARK                            x       y       z     vdW  Elec       q    Type
REMARK                         _______ _______ _______ _____ _____    ______ ____
ROOT
ATOM      1  C   UNL     1       2.969   6.443  18.508  0.00  0.00    +0.000 C 
ATOM      2  C   UNL     1       3.454   5.563  19.397  0.00  0.00    +0.000 C 
ENDROOT
BRANCH   1   7
ATOM      3  C   UNL     1       1.138   9.080  20.553  0.00  0.00    +0.000 A 
ATOM      4  C   UNL     1       0.767   9.976  19.547  0.00  0.00    +0.000 A 
ATOM      5  C   UNL     1       1.109   9.711  18.222  0.00  0.00    +0.000 A 
ATOM      6  C   UNL     1       1.825   8.555  17.900  0.00  0.00    +0.000 A 
ATOM      7  C   UNL     1       2.219   7.651  18.895  0.00  0.00    +0.000 A 
ATOM      8  C   UNL     1       1.858   7.921  20.225  0.00  0.00    +0.000 A 
BRANCH   3  10
ATOM      9  N   UNL     1       0.502   9.553  23.022  0.00  0.00    +0.000 NA
ATOM     10  C   UNL     1       0.782   9.340  21.916  0.00  0.00    +0.000 C 
ENDBRANCH   3  10
ENDBRANCH   1   7
BRANCH   2  11
ATOM     11  C   UNL     1       4.281   4.399  18.972  0.00  0.00    +0.000 C 
ATOM     12  O   UNL     1       4.250   3.322  19.553  0.00  0.00    +0.000 OA
BRANCH  11  13
ATOM     13  C   UNL     1       5.183   4.627  17.808  0.00  0.00    +0.000 A 
ATOM     14  C   UNL     1       6.395   5.306  17.991  0.00  0.00    +0.000 A 
ATOM     15  C   UNL     1       7.237   5.545  16.899  0.00  0.00    +0.000 A 
ATOM     16  C   UNL     1       6.866   5.092  15.635  0.00  0.00    +0.000 A 
ATOM     17  C   UNL     1       5.681   4.395  15.446  0.00  0.00    +0.000 A 
ATOM     18  C   UNL     1       4.842   4.153  16.533  0.00  0.00    +0.000 A 
BRANCH  16  19
ATOM     19  O   UNL     1       7.647   5.302  14.539  0.00  0.00    +0.000 OA
ATOM     20  H   UNL     1       7.238   5.986  13.985  0.00  0.00    +0.000 HD
ENDBRANCH  16  19
ENDBRANCH  11  13
ENDBRANCH   2  11
TORSDOF 5
ENDMDL
MODEL 2
REMARK VINA RESULT:      -7.1      5.433      7.428
REMARK  Name = 
REMARK  5 active torsions:
REMARK  status: ('A' for Active; 'I' for Inactive)
REMARK    1  A    between atoms: C_2  and  C_3
REMARK    2  A    between atoms: C_7  and  C_8
REMARK    3  A    between atoms: C_9  and  C_10
REMARK    4  A    between atoms: C_10  and  C_12
REMARK    5  A    between atoms: C_15  and  O_16
REMARK                            x       y       z     vdW  Elec       q    Type
REMARK                         _______ _______ _______ _____ _____    ______ ____
ROOT
ATOM      1  C   UNL     1       8.129   9.098  17.721  0.00  0.00    +0.000 C 
ATOM      2  C   UNL     1       8.085   7.792  18.024  0.00  0.00    +0.000 C 
ENDROOT
BRANCH   1   7
ATOM      3  C   UNL     1      10.697  11.806  18.468  0.00  0.00    +0.000 A 
ATOM      4  C   UNL     1      10.618  11.860  19.862  0.00  0.00    +0.000 A 
ATOM      5  C   UNL     1       9.741  11.016  20.539  0.00  0.00    +0.000 A 
ATOM      6  C   UNL     1       8.938  10.121  19.828  0.00  0.00    +0.000 A 
ATOM      7  C   UNL     1       8.991  10.061  18.429  0.00  0.00    +0.000 A 
ATOM      8  C   UNL     1       9.888  10.907  17.757  0.00  0.00    +0.000 A 
BRANCH   3  10
ATOM      9  N   UNL     1      12.332  13.364  17.192  0.00  0.00    +0.000 NA
ATOM     10  C   UNL     1      11.603  12.664  17.764  0.00  0.00    +0.000 C 
ENDBRANCH   3  10
ENDBRANCH   1   7
BRANCH   2  11
ATOM     11  C   UNL     1       7.265   6.834  17.231  0.00  0.00    +0.000 C 
ATOM     12  O   UNL     1       7.618   6.412  16.138  0.00  0.00    +0.000 OA
BRANCH  11  13
ATOM     13  C   UNL     1       5.959   6.438  17.831  0.00  0.00    +0.000 A 
ATOM     14  C   UNL     1       4.769   6.975  17.321  0.00  0.00    +0.000 A 
ATOM     15  C   UNL     1       3.541   6.626  17.894  0.00  0.00    +0.000 A 
ATOM     16  C   UNL     1       3.511   5.734  18.963  0.00  0.00    +0.000 A 
ATOM     17  C   UNL     1       4.681   5.175  19.460  0.00  0.00    +0.000 A 
ATOM     18  C   UNL     1       5.905   5.518  18.889  0.00  0.00    +0.000 A 
BRANCH  16  19
ATOM     19  O   UNL     1       2.343   5.366  19.559  0.00  0.00    +0.000 OA
ATOM     20  H   UNL     1       2.542   4.925  20.400  0.00  0.00    +0.000 HD
ENDBRANCH  16  19
ENDBRANCH  11  13
ENDBRANCH   2  11
TORSDOF 5
ENDMDL
MODEL 3
REMARK VINA RESULT:      -7.1      0.437      1.168
REMARK  Name = 
REMARK  5 active torsions:
REMARK  status: ('A' for Active; 'I' for Inactive)
REMARK    1  A    between atoms: C_2  and  C_3
REMARK    2  A    between atoms: C_7  and  C_8
REMARK    3  A    between atoms: C_9  and  C_10
REMARK    4  A    between atoms: C_10  and  C_12
REMARK    5  A    between atoms: C_15  and  O_16
REMARK                            x       y       z     vdW  Elec       q    Type
REMARK                         _______ _______ _______ _____ _____    ______ ____
ROOT
ATOM      1  C   UNL     1       2.526   6.563  18.764  0.00  0.00    +0.000 C 
ATOM      2  C   UNL     1       3.530   5.938  19.398  0.00  0.00    +0.000 C 
ENDROOT
BRANCH   1   7
ATOM      3  C   UNL     1       1.027   9.296  20.948  0.00  0.00    +0.000 A 
ATOM      4  C   UNL     1       0.854  10.314  20.006  0.00  0.00    +0.000 A 
ATOM      5  C   UNL     1       1.219  10.099  18.679  0.00  0.00    +0.000 A 
ATOM      6  C   UNL     1       1.761   8.871  18.290  0.00  0.00    +0.000 A 
ATOM      7  C   UNL     1       1.956   7.842  19.221  0.00  0.00    +0.000 A 
ATOM      8  C   UNL     1       1.572   8.065  20.553  0.00  0.00    +0.000 A 
BRANCH   3  10
ATOM      9  N   UNL     1       0.330   9.670  23.418  0.00  0.00    +0.000 NA
ATOM     10  C   UNL     1       0.645   9.506  22.313  0.00  0.00    +0.000 C 
ENDBRANCH   3  10
ENDBRANCH   1   7
BRANCH   2  11
ATOM     11  C   UNL     1       4.137   4.689  18.858  0.00  0.00    +0.000 C 
ATOM     12  O   UNL     1       3.911   3.587  19.339  0.00  0.00    +0.000 OA
BRANCH  11  13
ATOM     13  C   UNL     1       5.072   4.859  17.711  0.00  0.00    +0.000 A 
ATOM     14  C   UNL     1       4.921   4.062  16.568  0.00  0.00    +0.000 A 
ATOM     15  C   UNL     1       5.810   4.199  15.495  0.00  0.00    +0.000 A 
ATOM     16  C   UNL     1       6.834   5.140  15.568  0.00  0.00    +0.000 A 
ATOM     17  C   UNL     1       6.977   5.954  16.684  0.00  0.00    +0.000 A 
ATOM     18  C   UNL     1       6.092   5.822  17.753  0.00  0.00    +0.000 A 
BRANCH  16  19
ATOM     19  O   UNL     1       7.727   5.310  14.554  0.00  0.00    +0.000 OA
ATOM     20  H   UNL     1       7.568   6.169  14.132  0.00  0.00    +0.000 HD
ENDBRANCH  16  19
ENDBRANCH  11  13
ENDBRANCH   2  11
TORSDOF 5
ENDMDL
MODEL 4
REMARK VINA RESULT:      -6.9      3.664      7.527
REMARK  Name = 
REMARK  5 active torsions:
REMARK  status: ('A' for Active; 'I' for Inactive)
REMARK    1  A    between atoms: C_2  and  C_3
REMARK    2  A    between atoms: C_7  and  C_8
REMARK    3  A    between atoms: C_9  and  C_10
REMARK    4  A    between atoms: C_10  and  C_12
REMARK    5  A    between atoms: C_15  and  O_16
REMARK                            x       y       z     vdW  Elec       q    Type
REMARK                         _______ _______ _______ _____ _____    ______ ____
ROOT
ATOM      1  C   UNL     1       3.581   7.634  17.641  0.00  0.00    +0.000 C 
ATOM      2  C   UNL     1       2.281   7.863  17.881  0.00  0.00    +0.000 C 
ENDROOT
BRANCH   1   7
ATOM      3  C   UNL     1       4.185   3.899  17.226  0.00  0.00    +0.000 A 
ATOM      4  C   UNL     1       5.154   3.905  16.219  0.00  0.00    +0.000 A 
ATOM      5  C   UNL     1       5.602   5.115  15.695  0.00  0.00    +0.000 A 
ATOM      6  C   UNL     1       5.081   6.322  16.170  0.00  0.00    +0.000 A 
ATOM      7  C   UNL     1       4.098   6.338  17.168  0.00  0.00    +0.000 A 
ATOM      8  C   UNL     1       3.664   5.112  17.699  0.00  0.00    +0.000 A 
BRANCH   3  10
ATOM      9  N   UNL     1       3.361   1.653  18.228  0.00  0.00    +0.000 NA
ATOM     10  C   UNL     1       3.726   2.659  17.777  0.00  0.00    +0.000 C 
ENDBRANCH   3  10
ENDBRANCH   1   7
BRANCH   2  11
ATOM     11  C   UNL     1       1.785   9.211  18.277  0.00  0.00    +0.000 C 
ATOM     12  O   UNL     1       1.932  10.200  17.571  0.00  0.00    +0.000 OA
BRANCH  11  13
ATOM     13  C   UNL     1       1.122   9.300  19.608  0.00  0.00    +0.000 A 
ATOM     14  C   UNL     1       1.420   8.351  20.596  0.00  0.00    +0.000 A 
ATOM     15  C   UNL     1       0.784   8.414  21.842  0.00  0.00    +0.000 A 
ATOM     16  C   UNL     1      -0.133   9.431  22.094  0.00  0.00    +0.000 A 
ATOM     17  C   UNL     1      -0.417  10.391  21.132  0.00  0.00    +0.000 A 
ATOM     18  C   UNL     1       0.217  10.333  19.892  0.00  0.00    +0.000 A 
BRANCH  16  19
ATOM     19  O   UNL     1      -0.782   9.534  23.287  0.00  0.00    +0.000 OA
ATOM     20  H   UNL     1      -0.956  10.470  23.474  0.00  0.00    +0.000 HD
ENDBRANCH  16  19
ENDBRANCH  11  13
ENDBRANCH   2  11
TORSDOF 5
ENDMDL
MODEL 5
REMARK VINA RESULT:      -6.9      4.024      7.884
REMARK  Name = 
REMARK  5 active torsions:
REMARK  status: ('A' for Active; 'I' for Inactive)
REMARK    1  A    between atoms: C_2  and  C_3
REMARK    2  A    between atoms: C_7  and  C_8
REMARK    3  A    between atoms: C_9  and  C_10
REMARK    4  A    between atoms: C_10  and  C_12
REMARK    5  A    between atoms: C_15  and  O_16
REMARK                            x       y       z     vdW  Elec       q    Type
REMARK                         _______ _______ _______ _____ _____    ______ ____
ROOT
ATOM      1  C   UNL     1       3.573   7.736  17.763  0.00  0.00    +0.000 C 
ATOM      2  C   UNL     1       2.264   8.031  17.799  0.00  0.00    +0.000 C 
ENDROOT
BRANCH   1   7
ATOM      3  C   UNL     1       5.638   5.188  15.831  0.00  0.00    +0.000 A 
ATOM      4  C   UNL     1       5.028   3.999  16.237  0.00  0.00    +0.000 A 
ATOM      5  C   UNL     1       3.954   4.039  17.124  0.00  0.00    +0.000 A 
ATOM      6  C   UNL     1       3.490   5.264  17.611  0.00  0.00    +0.000 A 
ATOM      7  C   UNL     1       4.098   6.467  17.228  0.00  0.00    +0.000 A 
ATOM      8  C   UNL     1       5.170   6.416  16.323  0.00  0.00    +0.000 A 
BRANCH   3  10
ATOM      9  N   UNL     1       7.625   5.139  14.164  0.00  0.00    +0.000 NA
ATOM     10  C   UNL     1       6.736   5.157  14.912  0.00  0.00    +0.000 C 
ENDBRANCH   3  10
ENDBRANCH   1   7
BRANCH   2  11
ATOM     11  C   UNL     1       1.776   9.358  18.269  0.00  0.00    +0.000 C 
ATOM     12  O   UNL     1       1.949  10.387  17.629  0.00  0.00    +0.000 OA
BRANCH  11  13
ATOM     13  C   UNL     1       1.088   9.372  19.590  0.00  0.00    +0.000 A 
ATOM     14  C   UNL     1       0.141  10.366  19.870  0.00  0.00    +0.000 A 
ATOM     15  C   UNL     1      -0.492  10.400  21.119  0.00  0.00    +0.000 A 
ATOM     16  C   UNL     1      -0.182   9.432  22.071  0.00  0.00    +0.000 A 
ATOM     17  C   UNL     1       0.735   8.427  21.796  0.00  0.00    +0.000 A 
ATOM     18  C   UNL     1       1.365   8.389  20.553  0.00  0.00    +0.000 A 
BRANCH  16  19
ATOM     19  O   UNL     1      -0.766   9.423  23.301  0.00  0.00    +0.000 OA
ATOM     20  H   UNL     1      -0.368  10.120  23.846  0.00  0.00    +0.000 HD
ENDBRANCH  16  19
ENDBRANCH  11  13
ENDBRANCH   2  11
TORSDOF 5
ENDMDL
MODEL 6
REMARK VINA RESULT:      -6.8      1.032      1.082
REMARK  Name = 
REMARK  5 active torsions:
REMARK  status: ('A' for Active; 'I' for Inactive)
REMARK    1  A    between atoms: C_2  and  C_3
REMARK    2  A    between atoms: C_7  and  C_8
REMARK    3  A    between atoms: C_9  and  C_10
REMARK    4  A    between atoms: C_10  and  C_12
REMARK    5  A    between atoms: C_15  and  O_16
REMARK                            x       y       z     vdW  Elec       q    Type
REMARK                         _______ _______ _______ _____ _____    ______ ____
ROOT
ATOM      1  C   UNL     1       2.614   6.848  19.308  0.00  0.00    +0.000 C 
ATOM      2  C   UNL     1       2.425   6.132  18.188  0.00  0.00    +0.000 C 
ENDROOT
BRANCH   1   7
ATOM      3  C   UNL     1       0.646   9.521  21.169  0.00  0.00    +0.000 A 
ATOM      4  C   UNL     1       0.386  10.420  20.132  0.00  0.00    +0.000 A 
ATOM      5  C   UNL     1       0.846  10.146  18.846  0.00  0.00    +0.000 A 
ATOM      6  C   UNL     1       1.569   8.977  18.593  0.00  0.00    +0.000 A 
ATOM      7  C   UNL     1       1.853   8.069  19.622  0.00  0.00    +0.000 A 
ATOM      8  C   UNL     1       1.373   8.349  20.912  0.00  0.00    +0.000 A 
BRANCH   3  10
ATOM      9  N   UNL     1      -0.214  10.016  23.566  0.00  0.00    +0.000 NA
ATOM     10  C   UNL     1       0.168   9.790  22.493  0.00  0.00    +0.000 C 
ENDBRANCH   3  10
ENDBRANCH   1   7
BRANCH   2  11
ATOM     11  C   UNL     1       3.154   4.856  17.945  0.00  0.00    +0.000 C 
ATOM     12  O   UNL     1       2.784   3.787  18.413  0.00  0.00    +0.000 OA
BRANCH  11  13
ATOM     13  C   UNL     1       4.390   4.956  17.120  0.00  0.00    +0.000 A 
ATOM     14  C   UNL     1       5.202   6.094  17.221  0.00  0.00    +0.000 A 
ATOM     15  C   UNL     1       6.353   6.206  16.432  0.00  0.00    +0.000 A 
ATOM     16  C   UNL     1       6.690   5.174  15.559  0.00  0.00    +0.000 A 
ATOM     17  C   UNL     1       5.907   4.031  15.469  0.00  0.00    +0.000 A 
ATOM     18  C   UNL     1       4.762   3.916  16.256  0.00  0.00    +0.000 A 
BRANCH  16  19
ATOM     19  O   UNL     1       7.795   5.236  14.766  0.00  0.00    +0.000 OA
ATOM     20  H   UNL     1       8.493   4.682  15.152  0.00  0.00    +0.000 HD
ENDBRANCH  16  19
ENDBRANCH  11  13
ENDBRANCH   2  11
TORSDOF 5
ENDMDL
MODEL 7
REMARK VINA RESULT:      -6.8      3.665      7.525
REMARK  Name = 
REMARK  5 active torsions:
REMARK  status: ('A' for Active; 'I' for Inactive)
REMARK    1  A    between atoms: C_2  and  C_3
REMARK    2  A    between atoms: C_7  and  C_8
REMARK    3  A    between atoms: C_9  and  C_10
REMARK    4  A    between atoms: C_10  and  C_12
REMARK    5  A    between atoms: C_15  and  O_16
REMARK                            x       y       z     vdW  Elec       q    Type
REMARK                         _______ _______ _______ _____ _____    ______ ____
ROOT
ATOM      1  C   UNL     1       3.561   7.635  17.811  0.00  0.00    +0.000 C 
ATOM      2  C   UNL     1       2.269   7.992  17.764  0.00  0.00    +0.000 C 
ENDROOT
BRANCH   1   7
ATOM      3  C   UNL     1       4.157   3.914  17.280  0.00  0.00    +0.000 A 
ATOM      4  C   UNL     1       5.091   3.947  16.241  0.00  0.00    +0.000 A 
ATOM      5  C   UNL     1       5.518   5.172  15.732  0.00  0.00    +0.000 A 
ATOM      6  C   UNL     1       5.012   6.365  16.256  0.00  0.00    +0.000 A 
ATOM      7  C   UNL     1       4.064   6.353  17.288  0.00  0.00    +0.000 A 
ATOM      8  C   UNL     1       3.651   5.113  17.802  0.00  0.00    +0.000 A 
BRANCH   3  10
ATOM      9  N   UNL     1       3.372   1.641  18.253  0.00  0.00    +0.000 NA
ATOM     10  C   UNL     1       3.720   2.659  17.815  0.00  0.00    +0.000 C 
ENDBRANCH   3  10
ENDBRANCH   1   7
BRANCH   2  11
ATOM     11  C   UNL     1       1.811   9.333  18.226  0.00  0.00    +0.000 C 
ATOM     12  O   UNL     1       2.009  10.354  17.581  0.00  0.00    +0.000 OA
BRANCH  11  13
ATOM     13  C   UNL     1       1.122   9.369  19.546  0.00  0.00    +0.000 A 
ATOM     14  C   UNL     1       0.169  10.364  19.805  0.00  0.00    +0.000 A 
ATOM     15  C   UNL     1      -0.466  10.420  21.051  0.00  0.00    +0.000 A 
ATOM     16  C   UNL     1      -0.152   9.473  22.024  0.00  0.00    +0.000 A 
ATOM     17  C   UNL     1       0.771   8.468  21.770  0.00  0.00    +0.000 A 
ATOM     18  C   UNL     1       1.403   8.408  20.528  0.00  0.00    +0.000 A 
BRANCH  16  19
ATOM     19  O   UNL     1      -0.737   9.486  23.253  0.00  0.00    +0.000 OA
ATOM     20  H   UNL     1      -0.838   8.573  23.566  0.00  0.00    +0.000 HD
ENDBRANCH  16  19
ENDBRANCH  11  13
ENDBRANCH   2  11
TORSDOF 5
ENDMDL
MODEL 8
REMARK VINA RESULT:      -6.8      2.141      3.060
REMARK  Name = 
REMARK  5 active torsions:
REMARK  status: ('A' for Active; 'I' for Inactive)
REMARK    1  A    between atoms: C_2  and  C_3
REMARK    2  A    between atoms: C_7  and  C_8
REMARK    3  A    between atoms: C_9  and  C_10
REMARK    4  A    between atoms: C_10  and  C_12
REMARK    5  A    between atoms: C_15  and  O_16
REMARK                            x       y       z     vdW  Elec       q    Type
REMARK                         _______ _______ _______ _____ _____    ______ ____
ROOT
ATOM      1  C   UNL     1       2.243   8.393  18.160  0.00  0.00    +0.000 C 
ATOM      2  C   UNL     1       2.535   7.121  18.471  0.00  0.00    +0.000 C 
ENDROOT
BRANCH   1   7
ATOM      3  C   UNL     1       0.111   9.955  20.899  0.00  0.00    +0.000 A 
ATOM      4  C   UNL     1      -0.790  10.698  20.132  0.00  0.00    +0.000 A 
ATOM      5  C   UNL     1      -0.700  10.678  18.742  0.00  0.00    +0.000 A 
ATOM      6  C   UNL     1       0.293   9.920  18.114  0.00  0.00    +0.000 A 
ATOM      7  C   UNL     1       1.217   9.180  18.865  0.00  0.00    +0.000 A 
ATOM      8  C   UNL     1       1.107   9.198  20.265  0.00  0.00    +0.000 A 
BRANCH   3  10
ATOM      9  N   UNL     1      -0.055   9.962  23.487  0.00  0.00    +0.000 NA
ATOM     10  C   UNL     1       0.019   9.963  22.328  0.00  0.00    +0.000 C 
ENDBRANCH   3  10
ENDBRANCH   1   7
BRANCH   2  11
ATOM     11  C   UNL     1       3.638   6.385  17.792  0.00  0.00    +0.000 C 
ATOM     12  O   UNL     1       4.464   6.944  17.082  0.00  0.00    +0.000 OA
BRANCH  11  13
ATOM     13  C   UNL     1       3.664   4.909  17.998  0.00  0.00    +0.000 A 
ATOM     14  C   UNL     1       4.577   4.350  18.902  0.00  0.00    +0.000 A 
ATOM     15  C   UNL     1       4.624   2.963  19.083  0.00  0.00    +0.000 A 
ATOM     16  C   UNL     1       3.748   2.148  18.370  0.00  0.00    +0.000 A 
ATOM     17  C   UNL     1       2.822   2.692  17.491  0.00  0.00    +0.000 A 
ATOM     18  C   UNL     1       2.771   4.074  17.310  0.00  0.00    +0.000 A 
BRANCH  16  19
ATOM     19  O   UNL     1       3.756   0.793  18.506  0.00  0.00    +0.000 OA
ATOM     20  H   UNL     1       3.383   0.559  19.372  0.00  0.00    +0.000 HD
ENDBRANCH  16  19
ENDBRANCH  11  13
ENDBRANCH   2  11
TORSDOF 5
ENDMDL
MODEL 9
REMARK VINA RESULT:      -6.8      4.007      7.882
REMARK  Name = 
REMARK  5 active torsions:
REMARK  status: ('A' for Active; 'I' for Inactive)
REMARK    1  A    between atoms: C_2  and  C_3
REMARK    2  A    between atoms: C_7  and  C_8
REMARK    3  A    between atoms: C_9  and  C_10
REMARK    4  A    between atoms: C_10  and  C_12
REMARK    5  A    between atoms: C_15  and  O_16
REMARK                            x       y       z     vdW  Elec       q    Type
REMARK                         _______ _______ _______ _____ _____    ______ ____
ROOT
ATOM      1  C   UNL     1       3.334   7.842  17.910  0.00  0.00    +0.000 C 
ATOM      2  C   UNL     1       2.024   8.111  18.013  0.00  0.00    +0.000 C 
ENDROOT
BRANCH   1   7
ATOM      3  C   UNL     1       5.424   5.235  16.088  0.00  0.00    +0.000 A 
ATOM      4  C   UNL     1       4.778   4.062  16.486  0.00  0.00    +0.000 A 
ATOM      5  C   UNL     1       3.674   4.131  17.333  0.00  0.00    +0.000 A 
ATOM      6  C   UNL     1       3.215   5.371  17.786  0.00  0.00    +0.000 A 
ATOM      7  C   UNL     1       3.857   6.559  17.410  0.00  0.00    +0.000 A 
ATOM      8  C   UNL     1       4.960   6.477  16.546  0.00  0.00    +0.000 A 
BRANCH   3  10
ATOM      9  N   UNL     1       7.468   5.129  14.495  0.00  0.00    +0.000 NA
ATOM     10  C   UNL     1       6.554   5.173  15.210  0.00  0.00    +0.000 C 
ENDBRANCH   3  10
ENDBRANCH   1   7
BRANCH   2  11
ATOM     11  C   UNL     1       1.533   9.451  18.442  0.00  0.00    +0.000 C 
ATOM     12  O   UNL     1       1.577  10.433  17.713  0.00  0.00    +0.000 OA
BRANCH  11  13
ATOM     13  C   UNL     1       1.011   9.542  19.835  0.00  0.00    +0.000 A 
ATOM     14  C   UNL     1       1.261   8.500  20.739  0.00  0.00    +0.000 A 
ATOM     15  C   UNL     1       0.753   8.567  22.042  0.00  0.00    +0.000 A 
ATOM     16  C   UNL     1       0.012   9.679  22.434  0.00  0.00    +0.000 A 
ATOM     17  C   UNL     1      -0.220  10.728  21.555  0.00  0.00    +0.000 A 
ATOM     18  C   UNL     1       0.287  10.666  20.257  0.00  0.00    +0.000 A 
BRANCH  16  19
ATOM     19  O   UNL     1      -0.507   9.790  23.688  0.00  0.00    +0.000 OA
ATOM     20  H   UNL     1      -0.510   8.916  24.109  0.00  0.00    +0.000 HD
ENDBRANCH  16  19
ENDBRANCH  11  13
ENDBRANCH   2  11
TORSDOF 5
ENDMDL
