MODEL 1
REMARK VINA RESULT:      -8.0      0.000      0.000
REMARK  Name = 
REMARK  4 active torsions:
REMARK  status: ('A' for Active; 'I' for Inactive)
REMARK    1  A    between atoms: C_1  and  C_2
REMARK    2  A    between atoms: C_6  and  N_7
REMARK    3  A    between atoms: C_8  and  C_10
REMARK    4  A    between atoms: C_10  and  C_11
REMARK                            x       y       z     vdW  Elec       q    Type
REMARK                         _______ _______ _______ _____ _____    ______ ____
ROOT
ATOM      1  N   UNL     1       4.341   4.105  17.364  0.00  0.00    +0.000 N 
ATOM      2  C   UNL     1       3.562   5.160  17.815  0.00  0.00    +0.000 C 
ATOM      3  O   UNL     1       4.014   6.267  18.108  0.00  0.00    +0.000 OA
ATOM      4  H   UNL     1       3.924   3.207  17.149  0.00  0.00    +0.000 HD
ENDROOT
BRANCH   1  10
ATOM      5  C   UNL     1       6.191   4.431  14.640  0.00  0.00    +0.000 C 
ATOM      6  C   UNL     1       6.514   4.401  16.080  0.00  0.00    +0.000 A 
ATOM      7  N   UNL     1       7.823   4.521  16.481  0.00  0.00    +0.000 NA
ATOM      8  N   UNL     1       7.865   4.457  17.803  0.00  0.00    +0.000 NA
ATOM      9  N   UNL     1       6.608   4.293  18.234  0.00  0.00    +0.000 N 
ATOM     10  C   UNL     1       5.711   4.256  17.195  0.00  0.00    +0.000 A 
ATOM     11  H   UNL     1       6.409   4.215  19.227  0.00  0.00    +0.000 HD
ENDBRANCH   1  10
BRANCH   2  12
ATOM     12  C   UNL     1       2.070   4.866  17.871  0.00  0.00    +0.000 C 
BRANCH  12  13
ATOM     13  C   UNL     1       1.568   4.529  19.281  0.00  0.00    +0.000 C 
ATOM     14  C   UNL     1       2.694   4.635  20.339  0.00  0.00    +0.000 C 
ATOM     15  C   UNL     1       2.650   3.266  21.043  0.00  0.00    +0.000 C 
ATOM     16  C   UNL     1       3.171   2.187  20.075  0.00  0.00    +0.000 C 
ATOM     17  C   UNL     1       2.010   2.018  19.087  0.00  0.00    +0.000 C 
ATOM     18  C   UNL     1       1.017   3.100  19.538  0.00  0.00    +0.000 C 
ATOM     19  C   UNL     1       1.151   2.984  21.063  0.00  0.00    +0.000 C 
ENDBRANCH  12  13
ENDBRANCH   2  12
TORSDOF 3
ENDMDL
MODEL 2
REMARK VINA RESULT:      -8.0      1.417      2.052
REMARK  Name = 
REMARK  4 active torsions:
REMARK  status: ('A' for Active; 'I' for Inactive)
REMARK    1  A    between atoms: C_1  and  C_2
REMARK    2  A    between atoms: C_6  and  N_7
REMARK    3  A    between atoms: C_8  and  C_10
REMARK    4  A    between atoms: C_10  and  C_11
REMARK                            x       y       z     vdW  Elec       q    Type
REMARK                         _______ _______ _______ _____ _____    ______ ____
ROOT
ATOM      1  N   UNL     1       5.267   3.770  17.201  0.00  0.00    +0.000 N 
ATOM      2  C   UNL     1       5.320   3.742  18.587  0.00  0.00    +0.000 C 
ATOM      3  O   UNL     1       6.126   4.391  19.253  0.00  0.00    +0.000 OA
ATOM      4  H   UNL     1       4.594   3.206  16.696  0.00  0.00    +0.000 HD
ENDROOT
BRANCH   1  10
ATOM      5  C   UNL     1       6.176   3.698  14.019  0.00  0.00    +0.000 C 
ATOM      6  C   UNL     1       6.531   4.579  15.150  0.00  0.00    +0.000 A 
ATOM      7  N   UNL     1       7.416   5.610  14.950  0.00  0.00    +0.000 NA
ATOM      8  N   UNL     1       7.586   6.247  16.098  0.00  0.00    +0.000 NA
ATOM      9  N   UNL     1       6.827   5.630  17.012  0.00  0.00    +0.000 N 
ATOM     10  C   UNL     1       6.134   4.573  16.473  0.00  0.00    +0.000 A 
ATOM     11  H   UNL     1       6.809   5.957  17.973  0.00  0.00    +0.000 HD
ENDBRANCH   1  10
BRANCH   2  12
ATOM     12  C   UNL     1       4.253   2.878  19.244  0.00  0.00    +0.000 C 
BRANCH  12  13
ATOM     13  C   UNL     1       3.254   3.681  20.088  0.00  0.00    +0.000 C 
ATOM     14  C   UNL     1       2.389   2.766  20.990  0.00  0.00    +0.000 C 
ATOM     15  C   UNL     1       0.948   3.181  20.638  0.00  0.00    +0.000 C 
ATOM     16  C   UNL     1       0.618   2.693  19.215  0.00  0.00    +0.000 C 
ATOM     17  C   UNL     1       1.402   3.665  18.325  0.00  0.00    +0.000 C 
ATOM     18  C   UNL     1       2.174   4.515  19.345  0.00  0.00    +0.000 C 
ATOM     19  C   UNL     1       1.107   4.685  20.434  0.00  0.00    +0.000 C 
ENDBRANCH  12  13
ENDBRANCH   2  12
TORSDOF 3
ENDMDL
MODEL 3
REMARK VINA RESULT:      -7.9      1.307      2.161
REMARK  Name = 
REMARK  4 active torsions:
REMARK  status: ('A' for Active; 'I' for Inactive)
REMARK    1  A    between atoms: C_1  and  C_2
REMARK    2  A    between atoms: C_6  and  N_7
REMARK    3  A    between atoms: C_8  and  C_10
REMARK    4  A    between atoms: C_10  and  C_11
REMARK                            x       y       z     vdW  Elec       q    Type
REMARK                         _______ _______ _______ _____ _____    ______ ____
ROOT
ATOM      1  N   UNL     1       5.880   3.748  18.077  0.00  0.00    +0.000 N 
ATOM      2  C   UNL     1       5.078   4.126  19.145  0.00  0.00    +0.000 C 
ATOM      3  O   UNL     1       4.906   5.295  19.489  0.00  0.00    +0.000 OA
ATOM      4  H   UNL     1       6.001   2.771  17.840  0.00  0.00    +0.000 HD
ENDROOT
BRANCH   1  10
ATOM      5  C   UNL     1       6.346   3.979  14.808  0.00  0.00    +0.000 C 
ATOM      6  C   UNL     1       6.738   4.835  15.945  0.00  0.00    +0.000 A 
ATOM      7  N   UNL     1       7.449   5.987  15.710  0.00  0.00    +0.000 NA
ATOM      8  N   UNL     1       7.691   6.576  16.870  0.00  0.00    +0.000 NA
ATOM      9  N   UNL     1       7.149   5.811  17.826  0.00  0.00    +0.000 N 
ATOM     10  C   UNL     1       6.530   4.702  17.305  0.00  0.00    +0.000 A 
ATOM     11  H   UNL     1       7.222   6.078  18.803  0.00  0.00    +0.000 HD
ENDBRANCH   1  10
BRANCH   2  12
ATOM     12  C   UNL     1       4.368   2.974  19.842  0.00  0.00    +0.000 C 
BRANCH  12  13
ATOM     13  C   UNL     1       3.106   2.504  19.107  0.00  0.00    +0.000 C 
ATOM     14  C   UNL     1       2.526   3.605  18.186  0.00  0.00    +0.000 C 
ATOM     15  C   UNL     1       1.057   3.707  18.636  0.00  0.00    +0.000 C 
ATOM     16  C   UNL     1       1.004   4.349  20.035  0.00  0.00    +0.000 C 
ATOM     17  C   UNL     1       1.488   3.220  20.953  0.00  0.00    +0.000 C 
ATOM     18  C   UNL     1       1.868   2.112  19.960  0.00  0.00    +0.000 C 
ATOM     19  C   UNL     1       0.731   2.247  18.939  0.00  0.00    +0.000 C 
ENDBRANCH  12  13
ENDBRANCH   2  12
TORSDOF 3
ENDMDL
MODEL 4
REMARK VINA RESULT:      -7.8      1.776      2.562
REMARK  Name = 
REMARK  4 active torsions:
REMARK  status: ('A' for Active; 'I' for Inactive)
REMARK    1  A    between atoms: C_1  and  C_2
REMARK    2  A    between atoms: C_6  and  N_7
REMARK    3  A    between atoms: C_8  and  C_10
REMARK    4  A    between atoms: C_10  and  C_11
REMARK                            x       y       z     vdW  Elec       q    Type
REMARK                         _______ _______ _______ _____ _____    ______ ____
ROOT
ATOM      1  N   UNL     1       5.795   3.478  15.698  0.00  0.00    +0.000 N 
ATOM      2  C   UNL     1       4.955   4.181  16.549  0.00  0.00    +0.000 C 
ATOM      3  O   UNL     1       4.820   5.404  16.519  0.00  0.00    +0.000 OA
ATOM      4  H   UNL     1       5.883   2.472  15.771  0.00  0.00    +0.000 HD
ENDROOT
BRANCH   1  10
ATOM      5  C   UNL     1       5.748   3.268  12.396  0.00  0.00    +0.000 C 
ATOM      6  C   UNL     1       6.536   4.082  13.343  0.00  0.00    +0.000 A 
ATOM      7  N   UNL     1       7.473   4.963  12.860  0.00  0.00    +0.000 NA
ATOM      8  N   UNL     1       8.053   5.565  13.887  0.00  0.00    +0.000 NA
ATOM      9  N   UNL     1       7.498   5.072  15.002  0.00  0.00    +0.000 N 
ATOM     10  C   UNL     1       6.532   4.137  14.724  0.00  0.00    +0.000 A 
ATOM     11  H   UNL     1       7.802   5.398  15.915  0.00  0.00    +0.000 HD
ENDBRANCH   1  10
BRANCH   2  12
ATOM     12  C   UNL     1       4.153   3.312  17.507  0.00  0.00    +0.000 C 
BRANCH  12  13
ATOM     13  C   UNL     1       3.640   4.074  18.736  0.00  0.00    +0.000 C 
ATOM     14  C   UNL     1       3.487   3.150  19.970  0.00  0.00    +0.000 C 
ATOM     15  C   UNL     1       2.033   3.391  20.415  0.00  0.00    +0.000 C 
ATOM     16  C   UNL     1       1.080   2.763  19.380  0.00  0.00    +0.000 C 
ATOM     17  C   UNL     1       1.164   3.737  18.197  0.00  0.00    +0.000 C 
ATOM     18  C   UNL     1       2.238   4.736  18.653  0.00  0.00    +0.000 C 
ATOM     19  C   UNL     1       1.873   4.883  20.136  0.00  0.00    +0.000 C 
ENDBRANCH  12  13
ENDBRANCH   2  12
TORSDOF 3
ENDMDL
MODEL 5
REMARK VINA RESULT:      -7.8      1.405      1.867
REMARK  Name = 
REMARK  4 active torsions:
REMARK  status: ('A' for Active; 'I' for Inactive)
REMARK    1  A    between atoms: C_1  and  C_2
REMARK    2  A    between atoms: C_6  and  N_7
REMARK    3  A    between atoms: C_8  and  C_10
REMARK    4  A    between atoms: C_10  and  C_11
REMARK                            x       y       z     vdW  Elec       q    Type
REMARK                         _______ _______ _______ _____ _____    ______ ____
ROOT
ATOM      1  N   UNL     1       5.485   3.610  16.272  0.00  0.00    +0.000 N 
ATOM      2  C   UNL     1       4.512   4.313  16.967  0.00  0.00    +0.000 C 
ATOM      3  O   UNL     1       4.354   5.530  16.878  0.00  0.00    +0.000 OA
ATOM      4  H   UNL     1       5.586   2.609  16.389  0.00  0.00    +0.000 HD
ENDROOT
BRANCH   1  10
ATOM      5  C   UNL     1       5.715   3.540  12.971  0.00  0.00    +0.000 C 
ATOM      6  C   UNL     1       6.462   4.263  14.018  0.00  0.00    +0.000 A 
ATOM      7  N   UNL     1       7.487   5.104  13.657  0.00  0.00    +0.000 NA
ATOM      8  N   UNL     1       8.010   5.626  14.756  0.00  0.00    +0.000 NA
ATOM      9  N   UNL     1       7.332   5.123  15.797  0.00  0.00    +0.000 N 
ATOM     10  C   UNL     1       6.341   4.262  15.395  0.00  0.00    +0.000 A 
ATOM     11  H   UNL     1       7.574   5.391  16.746  0.00  0.00    +0.000 HD
ENDBRANCH   1  10
BRANCH   2  12
ATOM     12  C   UNL     1       3.599   3.449  17.825  0.00  0.00    +0.000 C 
BRANCH  12  13
ATOM     13  C   UNL     1       2.590   4.261  18.648  0.00  0.00    +0.000 C 
ATOM     14  C   UNL     1       3.229   4.857  19.927  0.00  0.00    +0.000 C 
ATOM     15  C   UNL     1       2.292   4.372  21.050  0.00  0.00    +0.000 C 
ATOM     16  C   UNL     1       2.473   2.854  21.235  0.00  0.00    +0.000 C 
ATOM     17  C   UNL     1       1.753   2.268  20.014  0.00  0.00    +0.000 C 
ATOM     18  C   UNL     1       1.350   3.520  19.221  0.00  0.00    +0.000 C 
ATOM     19  C   UNL     1       0.931   4.453  20.365  0.00  0.00    +0.000 C 
ENDBRANCH  12  13
ENDBRANCH   2  12
TORSDOF 3
ENDMDL
MODEL 6
REMARK VINA RESULT:      -7.7      0.927      1.744
REMARK  Name = 
REMARK  4 active torsions:
REMARK  status: ('A' for Active; 'I' for Inactive)
REMARK    1  A    between atoms: C_1  and  C_2
REMARK    2  A    between atoms: C_6  and  N_7
REMARK    3  A    between atoms: C_8  and  C_10
REMARK    4  A    between atoms: C_10  and  C_11
REMARK                            x       y       z     vdW  Elec       q    Type
REMARK                         _______ _______ _______ _____ _____    ______ ____
ROOT
ATOM      1  N   UNL     1       4.588   3.392  16.831  0.00  0.00    +0.000 N 
ATOM      2  C   UNL     1       3.569   4.254  17.211  0.00  0.00    +0.000 C 
ATOM      3  O   UNL     1       3.697   5.477  17.272  0.00  0.00    +0.000 OA
ATOM      4  H   UNL     1       4.438   2.390  16.810  0.00  0.00    +0.000 HD
ENDROOT
BRANCH   1  10
ATOM      5  C   UNL     1       5.929   3.986  13.865  0.00  0.00    +0.000 C 
ATOM      6  C   UNL     1       6.424   4.149  15.246  0.00  0.00    +0.000 A 
ATOM      7  N   UNL     1       7.692   4.636  15.456  0.00  0.00    +0.000 NA
ATOM      8  N   UNL     1       7.913   4.683  16.761  0.00  0.00    +0.000 NA
ATOM      9  N   UNL     1       6.809   4.229  17.368  0.00  0.00    +0.000 N 
ATOM     10  C   UNL     1       5.834   3.882  16.467  0.00  0.00    +0.000 A 
ATOM     11  H   UNL     1       6.764   4.176  18.382  0.00  0.00    +0.000 HD
ENDBRANCH   1  10
BRANCH   2  12
ATOM     12  C   UNL     1       2.239   3.574  17.502  0.00  0.00    +0.000 C 
BRANCH  12  13
ATOM     13  C   UNL     1       2.236   2.778  18.813  0.00  0.00    +0.000 C 
ATOM     14  C   UNL     1       0.816   2.671  19.424  0.00  0.00    +0.000 C 
ATOM     15  C   UNL     1       1.009   3.187  20.862  0.00  0.00    +0.000 C 
ATOM     16  C   UNL     1       1.265   4.705  20.821  0.00  0.00    +0.000 C 
ATOM     17  C   UNL     1       2.708   4.799  20.307  0.00  0.00    +0.000 C 
ATOM     18  C   UNL     1       3.060   3.335  20.007  0.00  0.00    +0.000 C 
ATOM     19  C   UNL     1       2.392   2.636  21.199  0.00  0.00    +0.000 C 
ENDBRANCH  12  13
ENDBRANCH   2  12
TORSDOF 3
ENDMDL
MODEL 7
REMARK VINA RESULT:      -7.7      0.995      1.081
REMARK  Name = 
REMARK  4 active torsions:
REMARK  status: ('A' for Active; 'I' for Inactive)
REMARK    1  A    between atoms: C_1  and  C_2
REMARK    2  A    between atoms: C_6  and  N_7
REMARK    3  A    between atoms: C_8  and  C_10
REMARK    4  A    between atoms: C_10  and  C_11
REMARK                            x       y       z     vdW  Elec       q    Type
REMARK                         _______ _______ _______ _____ _____    ______ ____
ROOT
ATOM      1  N   UNL     1       4.725   5.422  17.923  0.00  0.00    +0.000 N 
ATOM      2  C   UNL     1       3.580   4.703  17.614  0.00  0.00    +0.000 C 
ATOM      3  O   UNL     1       3.579   3.685  16.923  0.00  0.00    +0.000 OA
ATOM      4  H   UNL     1       4.674   6.264  18.485  0.00  0.00    +0.000 HD
ENDROOT
BRANCH   1  10
ATOM      5  C   UNL     1       6.027   5.287  14.883  0.00  0.00    +0.000 C 
ATOM      6  C   UNL     1       6.549   4.940  16.219  0.00  0.00    +0.000 A 
ATOM      7  N   UNL     1       7.825   4.446  16.338  0.00  0.00    +0.000 NA
ATOM      8  N   UNL     1       8.063   4.200  17.617  0.00  0.00    +0.000 NA
ATOM      9  N   UNL     1       6.958   4.526  18.298  0.00  0.00    +0.000 N 
ATOM     10  C   UNL     1       5.970   5.004  17.472  0.00  0.00    +0.000 A 
ATOM     11  H   UNL     1       6.921   4.412  19.307  0.00  0.00    +0.000 HD
ENDBRANCH   1  10
BRANCH   2  12
ATOM     12  C   UNL     1       2.305   5.240  18.247  0.00  0.00    +0.000 C 
BRANCH  12  13
ATOM     13  C   UNL     1       2.086   4.751  19.685  0.00  0.00    +0.000 C 
ATOM     14  C   UNL     1       3.255   3.864  20.181  0.00  0.00    +0.000 C 
ATOM     15  C   UNL     1       2.549   2.584  20.664  0.00  0.00    +0.000 C 
ATOM     16  C   UNL     1       2.011   1.815  19.442  0.00  0.00    +0.000 C 
ATOM     17  C   UNL     1       0.795   2.647  19.016  0.00  0.00    +0.000 C 
ATOM     18  C   UNL     1       0.853   3.849  19.970  0.00  0.00    +0.000 C 
ATOM     19  C   UNL     1       1.271   3.154  21.273  0.00  0.00    +0.000 C 
ENDBRANCH  12  13
ENDBRANCH   2  12
TORSDOF 3
ENDMDL
MODEL 8
REMARK VINA RESULT:      -7.7      1.510      2.282
REMARK  Name = 
REMARK  4 active torsions:
REMARK  status: ('A' for Active; 'I' for Inactive)
REMARK    1  A    between atoms: C_1  and  C_2
REMARK    2  A    between atoms: C_6  and  N_7
REMARK    3  A    between atoms: C_8  and  C_10
REMARK    4  A    between atoms: C_10  and  C_11
REMARK                            x       y       z     vdW  Elec       q    Type
REMARK                         _______ _______ _______ _____ _____    ______ ____
ROOT
ATOM      1  N   UNL     1       5.056   3.521  17.524  0.00  0.00    +0.000 N 
ATOM      2  C   UNL     1       5.194   3.702  18.892  0.00  0.00    +0.000 C 
ATOM      3  O   UNL     1       5.959   4.522  19.399  0.00  0.00    +0.000 OA
ATOM      4  H   UNL     1       4.422   2.822  17.154  0.00  0.00    +0.000 HD
ENDROOT
BRANCH   1  10
ATOM      5  C   UNL     1       4.705   6.668  16.563  0.00  0.00    +0.000 C 
ATOM      6  C   UNL     1       5.670   5.607  16.209  0.00  0.00    +0.000 A 
ATOM      7  N   UNL     1       6.665   5.875  15.300  0.00  0.00    +0.000 NA
ATOM      8  N   UNL     1       7.391   4.780  15.137  0.00  0.00    +0.000 NA
ATOM      9  N   UNL     1       6.865   3.833  15.924  0.00  0.00    +0.000 N 
ATOM     10  C   UNL     1       5.781   4.295  16.629  0.00  0.00    +0.000 A 
ATOM     11  H   UNL     1       7.270   2.902  15.952  0.00  0.00    +0.000 HD
ENDBRANCH   1  10
BRANCH   2  12
ATOM     12  C   UNL     1       4.274   2.836  19.741  0.00  0.00    +0.000 C 
BRANCH  12  13
ATOM     13  C   UNL     1       3.147   3.628  20.419  0.00  0.00    +0.000 C 
ATOM     14  C   UNL     1       2.160   2.702  21.173  0.00  0.00    +0.000 C 
ATOM     15  C   UNL     1       0.789   3.104  20.601  0.00  0.00    +0.000 C 
ATOM     16  C   UNL     1       0.690   2.617  19.143  0.00  0.00    +0.000 C 
ATOM     17  C   UNL     1       1.595   3.599  18.387  0.00  0.00    +0.000 C 
ATOM     18  C   UNL     1       2.190   4.453  19.516  0.00  0.00    +0.000 C 
ATOM     19  C   UNL     1       0.963   4.610  20.425  0.00  0.00    +0.000 C 
ENDBRANCH  12  13
ENDBRANCH   2  12
TORSDOF 3
ENDMDL
MODEL 9
REMARK VINA RESULT:      -7.7      2.121      3.317
REMARK  Name = 
REMARK  4 active torsions:
REMARK  status: ('A' for Active; 'I' for Inactive)
REMARK    1  A    between atoms: C_1  and  C_2
REMARK    2  A    between atoms: C_6  and  N_7
REMARK    3  A    between atoms: C_8  and  C_10
REMARK    4  A    between atoms: C_10  and  C_11
REMARK                            x       y       z     vdW  Elec       q    Type
REMARK                         _______ _______ _______ _____ _____    ______ ____
ROOT
ATOM      1  N   UNL     1       5.901   4.507  15.461  0.00  0.00    +0.000 N 
ATOM      2  C   UNL     1       6.466   4.423  16.725  0.00  0.00    +0.000 C 
ATOM      3  O   UNL     1       7.675   4.510  16.940  0.00  0.00    +0.000 OA
ATOM      4  H   UNL     1       4.900   4.415  15.333  0.00  0.00    +0.000 HD
ENDROOT
BRANCH   1  10
ATOM      5  C   UNL     1       5.721   3.309  12.381  0.00  0.00    +0.000 C 
ATOM      6  C   UNL     1       6.645   4.251  13.044  0.00  0.00    +0.000 A 
ATOM      7  N   UNL     1       7.682   4.798  12.328  0.00  0.00    +0.000 NA
ATOM      8  N   UNL     1       8.373   5.594  13.129  0.00  0.00    +0.000 NA
ATOM      9  N   UNL     1       7.789   5.550  14.333  0.00  0.00    +0.000 N 
ATOM     10  C   UNL     1       6.692   4.724  14.342  0.00  0.00    +0.000 A 
ATOM     11  H   UNL     1       8.164   6.091  15.107  0.00  0.00    +0.000 HD
ENDBRANCH   1  10
BRANCH   2  12
ATOM     12  C   UNL     1       5.463   4.265  17.858  0.00  0.00    +0.000 C 
BRANCH  12  13
ATOM     13  C   UNL     1       4.006   4.448  17.412  0.00  0.00    +0.000 C 
ATOM     14  C   UNL     1       3.422   5.805  17.879  0.00  0.00    +0.000 C 
ATOM     15  C   UNL     1       2.132   5.400  18.616  0.00  0.00    +0.000 C 
ATOM     16  C   UNL     1       2.506   4.700  19.936  0.00  0.00    +0.000 C 
ATOM     17  C   UNL     1       2.993   3.321  19.471  0.00  0.00    +0.000 C 
ATOM     18  C   UNL     1       2.948   3.441  17.941  0.00  0.00    +0.000 C 
ATOM     19  C   UNL     1       1.646   4.233  17.759  0.00  0.00    +0.000 C 
ENDBRANCH  12  13
ENDBRANCH   2  12
TORSDOF 3
ENDMDL
