MODEL 1
REMARK VINA RESULT:      -7.2      0.000      0.000
REMARK  Name = 
REMARK  25 active torsions:
REMARK  status: ('A' for Active; 'I' for Inactive)
REMARK    1  A    between atoms: C_1  and  C_2
REMARK    2  A    between atoms: C_2  and  C_22
REMARK    3  A    between atoms: C_3  and  C_4
REMARK    4  A    between atoms: C_4  and  C_5
REMARK    5  A    between atoms: C_5  and  C_6
REMARK    6  A    between atoms: C_7  and  C_8
REMARK    7  A    between atoms: C_7  and  C_9
REMARK    8  A    between atoms: C_9  and  C_10
REMARK    9  A    between atoms: C_10  and  C_11
REMARK   10  A    between atoms: C_12  and  C_13
REMARK   11  A    between atoms: C_12  and  C_14
REMARK   12  A    between atoms: C_14  and  C_15
REMARK   13  A    between atoms: C_15  and  C_16
REMARK   14  A    between atoms: C_16  and  O_17
REMARK   15  A    between atoms: C_16  and  C_18
REMARK   16  A    between atoms: C_18  and  C_19
REMARK   17  A    between atoms: C_18  and  C_20
REMARK   18  A    between atoms: C_18  and  O_21
REMARK   19  A    between atoms: C_22  and  C_23
REMARK   20  A    between atoms: C_24  and  C_25
REMARK   21  A    between atoms: C_25  and  C_26
REMARK   22  A    between atoms: C_29  and  C_30
REMARK   23  A    between atoms: C_30  and  C_31
REMARK   24  A    between atoms: C_30  and  C_32
REMARK   25  A    between atoms: C_30  and  O_33
REMARK                            x       y       z     vdW  Elec       q    Type
REMARK                         _______ _______ _______ _____ _____    ______ ____
ROOT
ATOM      1  C   UNL     1       3.703   7.311  17.465  0.00  0.00    +0.000 C 
ENDROOT
BRANCH   1   2
ATOM      2  C   UNL     1       2.977   6.969  18.723  0.00  0.00    +0.000 C 
ATOM      3  C   UNL     1       2.078   7.724  19.390  0.00  0.00    +0.000 C 
ATOM      4  C   UNL     1       1.652   9.093  18.932  0.00  0.00    +0.000 C 
BRANCH   3   5
ATOM      5  C   UNL     1       1.383   7.243  20.661  0.00  0.00    +0.000 C 
BRANCH   5   6
ATOM      6  C   UNL     1       1.074   5.743  20.650  0.00  0.00    +0.000 C 
BRANCH   6   7
ATOM      7  C   UNL     1       2.165   4.816  21.083  0.00  0.00    +0.000 C 
ATOM      8  C   UNL     1       2.075   3.482  20.904  0.00  0.00    +0.000 C 
ATOM      9  C   UNL     1       0.875   2.808  20.274  0.00  0.00    +0.000 C 
BRANCH   8  10
ATOM     10  C   UNL     1       3.199   2.564  21.330  0.00  0.00    +0.000 C 
BRANCH  10  11
ATOM     11  C   UNL     1       4.026   2.139  20.115  0.00  0.00    +0.000 C 
BRANCH  11  12
ATOM     12  C   UNL     1       4.338   3.290  19.159  0.00  0.00    +0.000 C 
BRANCH  12  13
ATOM     13  C   UNL     1       3.951   2.986  17.683  0.00  0.00    +0.000 C 
ATOM     14  C   UNL     1       2.597   3.582  17.278  0.00  0.00    +0.000 C 
ATOM     15  C   UNL     1       5.037   3.445  16.707  0.00  0.00    +0.000 C 
BRANCH  13  16
ATOM     16  O   UNL     1       3.831   1.561  17.551  0.00  0.00    +0.000 OA
ATOM     17  H   UNL     1       2.962   1.408  17.128  0.00  0.00    +0.000 HD
ENDBRANCH  13  16
ENDBRANCH  12  13
BRANCH  12  18
ATOM     18  O   UNL     1       5.737   3.616  19.210  0.00  0.00    +0.000 OA
ATOM     19  H   UNL     1       6.109   3.237  20.026  0.00  0.00    +0.000 HD
ENDBRANCH  12  18
ENDBRANCH  11  12
ENDBRANCH  10  11
ENDBRANCH   8  10
ENDBRANCH   6   7
ENDBRANCH   5   6
ENDBRANCH   3   5
ENDBRANCH   1   2
BRANCH   1  20
ATOM     20  C   UNL     1       5.022   6.546  17.390  0.00  0.00    +0.000 C 
BRANCH  20  23
ATOM     21  C   UNL     1       7.829   6.468  18.676  0.00  0.00    +0.000 C 
ATOM     22  C   UNL     1       7.346   7.512  17.704  0.00  0.00    +0.000 C 
ATOM     23  C   UNL     1       6.131   7.515  17.125  0.00  0.00    +0.000 C 
BRANCH  22  24
ATOM     24  C   UNL     1       8.337   8.609  17.396  0.00  0.00    +0.000 C 
BRANCH  24  25
ATOM     25  C   UNL     1       8.671   9.523  18.542  0.00  0.00    +0.000 C 
ATOM     26  C   UNL     1       9.287  10.726  18.537  0.00  0.00    +0.000 C 
BRANCH  26  27
ATOM     27  C   UNL     1       9.556  11.545  19.783  0.00  0.00    +0.000 C 
ATOM     28  C   UNL     1       9.045  10.792  21.019  0.00  0.00    +0.000 C 
ATOM     29  C   UNL     1      11.028  11.919  19.940  0.00  0.00    +0.000 C 
ATOM     30  C   UNL     1      10.961  13.229  20.688  0.00  0.00    +0.000 C 
ATOM     31  C   UNL     1       9.692  13.876  20.145  0.00  0.00    +0.000 C 
ATOM     32  O   UNL     1       8.847  12.802  19.688  0.00  0.00    +0.000 OA
BRANCH  31  33
ATOM     33  C   UNL     1       9.923  14.948  19.039  0.00  0.00    +0.000 C 
ATOM     34  C   UNL     1      11.367  15.451  18.952  0.00  0.00    +0.000 C 
ATOM     35  C   UNL     1       9.504  14.403  17.666  0.00  0.00    +0.000 C 
BRANCH  33  36
ATOM     36  O   UNL     1       9.084  16.077  19.330  0.00  0.00    +0.000 OA
ATOM     37  H   UNL     1       9.391  16.470  20.165  0.00  0.00    +0.000 HD
ENDBRANCH  33  36
ENDBRANCH  31  33
ENDBRANCH  26  27
ENDBRANCH  24  25
ENDBRANCH  22  24
ENDBRANCH  20  23
ENDBRANCH   1  20
TORSDOF 17
ENDMDL
MODEL 2
REMARK VINA RESULT:      -7.1      2.327      4.106
REMARK  Name = 
REMARK  25 active torsions:
REMARK  status: ('A' for Active; 'I' for Inactive)
REMARK    1  A    between atoms: C_1  and  C_2
REMARK    2  A    between atoms: C_2  and  C_22
REMARK    3  A    between atoms: C_3  and  C_4
REMARK    4  A    between atoms: C_4  and  C_5
REMARK    5  A    between atoms: C_5  and  C_6
REMARK    6  A    between atoms: C_7  and  C_8
REMARK    7  A    between atoms: C_7  and  C_9
REMARK    8  A    between atoms: C_9  and  C_10
REMARK    9  A    between atoms: C_10  and  C_11
REMARK   10  A    between atoms: C_12  and  C_13
REMARK   11  A    between atoms: C_12  and  C_14
REMARK   12  A    between atoms: C_14  and  C_15
REMARK   13  A    between atoms: C_15  and  C_16
REMARK   14  A    between atoms: C_16  and  O_17
REMARK   15  A    between atoms: C_16  and  C_18
REMARK   16  A    between atoms: C_18  and  C_19
REMARK   17  A    between atoms: C_18  and  C_20
REMARK   18  A    between atoms: C_18  and  O_21
REMARK   19  A    between atoms: C_22  and  C_23
REMARK   20  A    between atoms: C_24  and  C_25
REMARK   21  A    between atoms: C_25  and  C_26
REMARK   22  A    between atoms: C_29  and  C_30
REMARK   23  A    between atoms: C_30  and  C_31
REMARK   24  A    between atoms: C_30  and  C_32
REMARK   25  A    between atoms: C_30  and  O_33
REMARK                            x       y       z     vdW  Elec       q    Type
REMARK                         _______ _______ _______ _____ _____    ______ ____
ROOT
ATOM      1  C   UNL     1       4.405   5.114  17.123  0.00  0.00    +0.000 C 
ENDROOT
BRANCH   1   2
ATOM      2  C   UNL     1       3.084   4.475  17.391  0.00  0.00    +0.000 C 
ATOM      3  C   UNL     1       2.846   3.225  17.840  0.00  0.00    +0.000 C 
ATOM      4  C   UNL     1       3.941   2.243  18.159  0.00  0.00    +0.000 C 
BRANCH   3   5
ATOM      5  C   UNL     1       1.437   2.699  18.100  0.00  0.00    +0.000 C 
BRANCH   5   6
ATOM      6  C   UNL     1       0.967   2.916  19.542  0.00  0.00    +0.000 C 
BRANCH   6   7
ATOM      7  C   UNL     1       0.781   4.329  19.995  0.00  0.00    +0.000 C 
ATOM      8  C   UNL     1       1.717   4.969  20.725  0.00  0.00    +0.000 C 
ATOM      9  C   UNL     1       3.016   4.323  21.160  0.00  0.00    +0.000 C 
BRANCH   8  10
ATOM     10  C   UNL     1       1.519   6.405  21.155  0.00  0.00    +0.000 C 
BRANCH  10  11
ATOM     11  C   UNL     1       1.624   7.340  19.948  0.00  0.00    +0.000 C 
BRANCH  11  12
ATOM     12  C   UNL     1       0.961   8.698  20.172  0.00  0.00    +0.000 C 
BRANCH  12  13
ATOM     13  C   UNL     1       1.098   9.658  18.954  0.00  0.00    +0.000 C 
ATOM     14  C   UNL     1       2.147   9.196  17.935  0.00  0.00    +0.000 C 
ATOM     15  C   UNL     1      -0.245   9.884  18.257  0.00  0.00    +0.000 C 
BRANCH  13  16
ATOM     16  O   UNL     1       1.541  10.930  19.454  0.00  0.00    +0.000 OA
ATOM     17  H   UNL     1       1.900  10.752  20.347  0.00  0.00    +0.000 HD
ENDBRANCH  13  16
ENDBRANCH  12  13
BRANCH  12  18
ATOM     18  O   UNL     1       1.519   9.342  21.330  0.00  0.00    +0.000 OA
ATOM     19  H   UNL     1       1.233  10.272  21.328  0.00  0.00    +0.000 HD
ENDBRANCH  12  18
ENDBRANCH  11  12
ENDBRANCH  10  11
ENDBRANCH   8  10
ENDBRANCH   6   7
ENDBRANCH   5   6
ENDBRANCH   3   5
ENDBRANCH   1   2
BRANCH   1  20
ATOM     20  C   UNL     1       4.627   6.290  18.070  0.00  0.00    +0.000 C 
BRANCH  20  23
ATOM     21  C   UNL     1       7.609   6.044  18.840  0.00  0.00    +0.000 C 
ATOM     22  C   UNL     1       7.036   7.065  17.893  0.00  0.00    +0.000 C 
ATOM     23  C   UNL     1       5.739   7.139  17.540  0.00  0.00    +0.000 C 
BRANCH  22  24
ATOM     24  C   UNL     1       8.034   8.050  17.331  0.00  0.00    +0.000 C 
BRANCH  24  25
ATOM     25  C   UNL     1       8.576   9.054  18.310  0.00  0.00    +0.000 C 
ATOM     26  C   UNL     1       9.079  10.289  18.092  0.00  0.00    +0.000 C 
BRANCH  26  27
ATOM     27  C   UNL     1       9.591  11.201  19.188  0.00  0.00    +0.000 C 
ATOM     28  C   UNL     1       9.148  10.666  20.556  0.00  0.00    +0.000 C 
ATOM     29  C   UNL     1      11.105  11.393  19.140  0.00  0.00    +0.000 C 
ATOM     30  C   UNL     1      11.283  12.777  19.719  0.00  0.00    +0.000 C 
ATOM     31  C   UNL     1      10.042  13.520  19.235  0.00  0.00    +0.000 C 
ATOM     32  O   UNL     1       9.029  12.521  19.009  0.00  0.00    +0.000 OA
BRANCH  31  33
ATOM     33  C   UNL     1      10.263  14.420  17.984  0.00  0.00    +0.000 C 
ATOM     34  C   UNL     1       9.391  15.680  17.962  0.00  0.00    +0.000 C 
ATOM     35  C   UNL     1      11.736  14.836  17.872  0.00  0.00    +0.000 C 
BRANCH  33  36
ATOM     36  O   UNL     1       9.942  13.648  16.815  0.00  0.00    +0.000 OA
ATOM     37  H   UNL     1       9.694  12.753  17.107  0.00  0.00    +0.000 HD
ENDBRANCH  33  36
ENDBRANCH  31  33
ENDBRANCH  26  27
ENDBRANCH  24  25
ENDBRANCH  22  24
ENDBRANCH  20  23
ENDBRANCH   1  20
TORSDOF 17
ENDMDL
MODEL 3
REMARK VINA RESULT:      -7.1      4.244      8.659
REMARK  Name = 
REMARK  25 active torsions:
REMARK  status: ('A' for Active; 'I' for Inactive)
REMARK    1  A    between atoms: C_1  and  C_2
REMARK    2  A    between atoms: C_2  and  C_22
REMARK    3  A    between atoms: C_3  and  C_4
REMARK    4  A    between atoms: C_4  and  C_5
REMARK    5  A    between atoms: C_5  and  C_6
REMARK    6  A    between atoms: C_7  and  C_8
REMARK    7  A    between atoms: C_7  and  C_9
REMARK    8  A    between atoms: C_9  and  C_10
REMARK    9  A    between atoms: C_10  and  C_11
REMARK   10  A    between atoms: C_12  and  C_13
REMARK   11  A    between atoms: C_12  and  C_14
REMARK   12  A    between atoms: C_14  and  C_15
REMARK   13  A    between atoms: C_15  and  C_16
REMARK   14  A    between atoms: C_16  and  O_17
REMARK   15  A    between atoms: C_16  and  C_18
REMARK   16  A    between atoms: C_18  and  C_19
REMARK   17  A    between atoms: C_18  and  C_20
REMARK   18  A    between atoms: C_18  and  O_21
REMARK   19  A    between atoms: C_22  and  C_23
REMARK   20  A    between atoms: C_24  and  C_25
REMARK   21  A    between atoms: C_25  and  C_26
REMARK   22  A    between atoms: C_29  and  C_30
REMARK   23  A    between atoms: C_30  and  C_31
REMARK   24  A    between atoms: C_30  and  C_32
REMARK   25  A    between atoms: C_30  and  O_33
REMARK                            x       y       z     vdW  Elec       q    Type
REMARK                         _______ _______ _______ _____ _____    ______ ____
ROOT
ATOM      1  C   UNL     1       1.924   4.490  21.310  0.00  0.00    +0.000 C 
ENDROOT
BRANCH   1   2
ATOM      2  C   UNL     1       2.392   5.225  20.099  0.00  0.00    +0.000 C 
ATOM      3  C   UNL     1       2.249   6.539  19.822  0.00  0.00    +0.000 C 
ATOM      4  C   UNL     1       1.563   7.505  20.751  0.00  0.00    +0.000 C 
BRANCH   3   5
ATOM      5  C   UNL     1       2.801   7.176  18.550  0.00  0.00    +0.000 C 
BRANCH   5   6
ATOM      6  C   UNL     1       1.841   8.188  17.916  0.00  0.00    +0.000 C 
BRANCH   6   7
ATOM      7  C   UNL     1       2.069   9.633  18.223  0.00  0.00    +0.000 C 
ATOM      8  C   UNL     1       1.045  10.478  18.461  0.00  0.00    +0.000 C 
ATOM      9  C   UNL     1      -0.408  10.054  18.424  0.00  0.00    +0.000 C 
BRANCH   8  10
ATOM     10  C   UNL     1       1.299  11.932  18.792  0.00  0.00    +0.000 C 
BRANCH  10  11
ATOM     11  C   UNL     1       0.023  12.585  19.327  0.00  0.00    +0.000 C 
BRANCH  11  12
ATOM     12  C   UNL     1       0.130  13.024  20.786  0.00  0.00    +0.000 C 
BRANCH  12  13
ATOM     13  C   UNL     1      -0.804  12.225  21.740  0.00  0.00    +0.000 C 
ATOM     14  C   UNL     1      -0.267  10.829  22.082  0.00  0.00    +0.000 C 
ATOM     15  C   UNL     1      -1.098  13.000  23.026  0.00  0.00    +0.000 C 
BRANCH  13  16
ATOM     16  O   UNL     1      -2.054  12.031  21.060  0.00  0.00    +0.000 OA
ATOM     17  H   UNL     1      -1.865  11.399  20.336  0.00  0.00    +0.000 HD
ENDBRANCH  13  16
ENDBRANCH  12  13
BRANCH  12  18
ATOM     18  O   UNL     1      -0.175  14.424  20.910  0.00  0.00    +0.000 OA
ATOM     19  H   UNL     1       0.387  14.914  20.286  0.00  0.00    +0.000 HD
ENDBRANCH  12  18
ENDBRANCH  11  12
ENDBRANCH  10  11
ENDBRANCH   8  10
ENDBRANCH   6   7
ENDBRANCH   5   6
ENDBRANCH   3   5
ENDBRANCH   1   2
BRANCH   1  20
ATOM     20  C   UNL     1       1.082   3.283  20.905  0.00  0.00    +0.000 C 
BRANCH  20  23
ATOM     21  C   UNL     1       3.490   1.682  19.819  0.00  0.00    +0.000 C 
ATOM     22  C   UNL     1       2.406   2.302  18.977  0.00  0.00    +0.000 C 
ATOM     23  C   UNL     1       1.343   2.969  19.466  0.00  0.00    +0.000 C 
BRANCH  22  24
ATOM     24  C   UNL     1       2.576   2.133  17.486  0.00  0.00    +0.000 C 
BRANCH  24  25
ATOM     25  C   UNL     1       3.780   2.809  16.890  0.00  0.00    +0.000 C 
ATOM     26  C   UNL     1       4.020   4.123  16.685  0.00  0.00    +0.000 C 
BRANCH  26  27
ATOM     27  C   UNL     1       5.294   4.666  16.072  0.00  0.00    +0.000 C 
ATOM     28  C   UNL     1       5.447   4.136  14.640  0.00  0.00    +0.000 C 
ATOM     29  C   UNL     1       5.361   6.192  16.100  0.00  0.00    +0.000 C 
ATOM     30  C   UNL     1       6.846   6.458  16.179  0.00  0.00    +0.000 C 
ATOM     31  C   UNL     1       7.364   5.297  17.021  0.00  0.00    +0.000 C 
ATOM     32  O   UNL     1       6.427   4.216  16.850  0.00  0.00    +0.000 OA
BRANCH  31  33
ATOM     33  C   UNL     1       7.602   5.631  18.523  0.00  0.00    +0.000 C 
ATOM     34  C   UNL     1       8.125   7.049  18.771  0.00  0.00    +0.000 C 
ATOM     35  C   UNL     1       6.311   5.431  19.330  0.00  0.00    +0.000 C 
BRANCH  33  36
ATOM     36  O   UNL     1       8.578   4.710  19.036  0.00  0.00    +0.000 OA
ATOM     37  H   UNL     1       9.298   5.229  19.434  0.00  0.00    +0.000 HD
ENDBRANCH  33  36
ENDBRANCH  31  33
ENDBRANCH  26  27
ENDBRANCH  24  25
ENDBRANCH  22  24
ENDBRANCH  20  23
ENDBRANCH   1  20
TORSDOF 17
ENDMDL
MODEL 4
REMARK VINA RESULT:      -7.1      6.412     10.259
REMARK  Name = 
REMARK  25 active torsions:
REMARK  status: ('A' for Active; 'I' for Inactive)
REMARK    1  A    between atoms: C_1  and  C_2
REMARK    2  A    between atoms: C_2  and  C_22
REMARK    3  A    between atoms: C_3  and  C_4
REMARK    4  A    between atoms: C_4  and  C_5
REMARK    5  A    between atoms: C_5  and  C_6
REMARK    6  A    between atoms: C_7  and  C_8
REMARK    7  A    between atoms: C_7  and  C_9
REMARK    8  A    between atoms: C_9  and  C_10
REMARK    9  A    between atoms: C_10  and  C_11
REMARK   10  A    between atoms: C_12  and  C_13
REMARK   11  A    between atoms: C_12  and  C_14
REMARK   12  A    between atoms: C_14  and  C_15
REMARK   13  A    between atoms: C_15  and  C_16
REMARK   14  A    between atoms: C_16  and  O_17
REMARK   15  A    between atoms: C_16  and  C_18
REMARK   16  A    between atoms: C_18  and  C_19
REMARK   17  A    between atoms: C_18  and  C_20
REMARK   18  A    between atoms: C_18  and  O_21
REMARK   19  A    between atoms: C_22  and  C_23
REMARK   20  A    between atoms: C_24  and  C_25
REMARK   21  A    between atoms: C_25  and  C_26
REMARK   22  A    between atoms: C_29  and  C_30
REMARK   23  A    between atoms: C_30  and  C_31
REMARK   24  A    between atoms: C_30  and  C_32
REMARK   25  A    between atoms: C_30  and  O_33
REMARK                            x       y       z     vdW  Elec       q    Type
REMARK                         _______ _______ _______ _____ _____    ______ ____
ROOT
ATOM      1  C   UNL     1      -1.535  10.468  18.395  0.00  0.00    +0.000 C 
ENDROOT
BRANCH   1   2
ATOM      2  C   UNL     1      -0.195   9.999  17.934  0.00  0.00    +0.000 C 
ATOM      3  C   UNL     1       0.853   9.616  18.694  0.00  0.00    +0.000 C 
ATOM      4  C   UNL     1       0.817   9.600  20.198  0.00  0.00    +0.000 C 
BRANCH   3   5
ATOM      5  C   UNL     1       2.169   9.128  18.093  0.00  0.00    +0.000 C 
BRANCH   5   6
ATOM      6  C   UNL     1       2.143   7.647  17.703  0.00  0.00    +0.000 C 
BRANCH   6   7
ATOM      7  C   UNL     1       2.813   6.684  18.631  0.00  0.00    +0.000 C 
ATOM      8  C   UNL     1       4.043   6.193  18.376  0.00  0.00    +0.000 C 
ATOM      9  C   UNL     1       4.841   6.552  17.140  0.00  0.00    +0.000 C 
BRANCH   8  10
ATOM     10  C   UNL     1       4.712   5.236  19.338  0.00  0.00    +0.000 C 
BRANCH  10  11
ATOM     11  C   UNL     1       4.537   3.794  18.860  0.00  0.00    +0.000 C 
BRANCH  11  12
ATOM     12  C   UNL     1       3.421   3.044  19.585  0.00  0.00    +0.000 C 
BRANCH  12  13
ATOM     13  C   UNL     1       2.182   2.765  18.686  0.00  0.00    +0.000 C 
ATOM     14  C   UNL     1       0.894   3.411  19.214  0.00  0.00    +0.000 C 
ATOM     15  C   UNL     1       2.424   3.193  17.237  0.00  0.00    +0.000 C 
BRANCH  13  16
ATOM     16  O   UNL     1       1.960   1.346  18.683  0.00  0.00    +0.000 OA
ATOM     17  H   UNL     1       1.289   1.185  17.989  0.00  0.00    +0.000 HD
ENDBRANCH  13  16
ENDBRANCH  12  13
BRANCH  12  18
ATOM     18  O   UNL     1       2.993   3.783  20.742  0.00  0.00    +0.000 OA
ATOM     19  H   UNL     1       3.777   4.185  21.153  0.00  0.00    +0.000 HD
ENDBRANCH  12  18
ENDBRANCH  11  12
ENDBRANCH  10  11
ENDBRANCH   8  10
ENDBRANCH   6   7
ENDBRANCH   5   6
ENDBRANCH   3   5
ENDBRANCH   1   2
BRANCH   1  20
ATOM     20  C   UNL     1      -1.674  11.972  18.176  0.00  0.00    +0.000 C 
BRANCH  20  23
ATOM     21  C   UNL     1       0.778  13.249  19.555  0.00  0.00    +0.000 C 
ATOM     22  C   UNL     1      -0.612  13.188  20.132  0.00  0.00    +0.000 C 
ATOM     23  C   UNL     1      -1.679  12.658  19.505  0.00  0.00    +0.000 C 
BRANCH  22  24
ATOM     24  C   UNL     1      -0.759  13.778  21.515  0.00  0.00    +0.000 C 
BRANCH  24  25
ATOM     25  C   UNL     1      -2.156  13.785  22.072  0.00  0.00    +0.000 C 
ATOM     26  C   UNL     1      -2.820  12.824  22.750  0.00  0.00    +0.000 C 
BRANCH  26  27
ATOM     27  C   UNL     1      -4.239  12.973  23.260  0.00  0.00    +0.000 C 
ATOM     28  C   UNL     1      -4.330  12.454  24.701  0.00  0.00    +0.000 C 
ATOM     29  C   UNL     1      -4.755  14.407  23.162  0.00  0.00    +0.000 C 
ATOM     30  C   UNL     1      -6.242  14.214  22.980  0.00  0.00    +0.000 C 
ATOM     31  C   UNL     1      -6.329  12.932  22.158  0.00  0.00    +0.000 C 
ATOM     32  O   UNL     1      -5.127  12.187  22.433  0.00  0.00    +0.000 OA
BRANCH  31  33
ATOM     33  C   UNL     1      -6.547  13.145  20.631  0.00  0.00    +0.000 C 
ATOM     34  C   UNL     1      -5.260  13.078  19.803  0.00  0.00    +0.000 C 
ATOM     35  C   UNL     1      -7.544  12.115  20.081  0.00  0.00    +0.000 C 
BRANCH  33  36
ATOM     36  O   UNL     1      -7.122  14.448  20.439  0.00  0.00    +0.000 OA
ATOM     37  H   UNL     1      -7.574  14.699  21.263  0.00  0.00    +0.000 HD
ENDBRANCH  33  36
ENDBRANCH  31  33
ENDBRANCH  26  27
ENDBRANCH  24  25
ENDBRANCH  22  24
ENDBRANCH  20  23
ENDBRANCH   1  20
TORSDOF 17
ENDMDL
MODEL 5
REMARK VINA RESULT:      -7.0      6.261     10.590
REMARK  Name = 
REMARK  25 active torsions:
REMARK  status: ('A' for Active; 'I' for Inactive)
REMARK    1  A    between atoms: C_1  and  C_2
REMARK    2  A    between atoms: C_2  and  C_22
REMARK    3  A    between atoms: C_3  and  C_4
REMARK    4  A    between atoms: C_4  and  C_5
REMARK    5  A    between atoms: C_5  and  C_6
REMARK    6  A    between atoms: C_7  and  C_8
REMARK    7  A    between atoms: C_7  and  C_9
REMARK    8  A    between atoms: C_9  and  C_10
REMARK    9  A    between atoms: C_10  and  C_11
REMARK   10  A    between atoms: C_12  and  C_13
REMARK   11  A    between atoms: C_12  and  C_14
REMARK   12  A    between atoms: C_14  and  C_15
REMARK   13  A    between atoms: C_15  and  C_16
REMARK   14  A    between atoms: C_16  and  O_17
REMARK   15  A    between atoms: C_16  and  C_18
REMARK   16  A    between atoms: C_18  and  C_19
REMARK   17  A    between atoms: C_18  and  C_20
REMARK   18  A    between atoms: C_18  and  O_21
REMARK   19  A    between atoms: C_22  and  C_23
REMARK   20  A    between atoms: C_24  and  C_25
REMARK   21  A    between atoms: C_25  and  C_26
REMARK   22  A    between atoms: C_29  and  C_30
REMARK   23  A    between atoms: C_30  and  C_31
REMARK   24  A    between atoms: C_30  and  C_32
REMARK   25  A    between atoms: C_30  and  O_33
REMARK                            x       y       z     vdW  Elec       q    Type
REMARK                         _______ _______ _______ _____ _____    ______ ____
ROOT
ATOM      1  C   UNL     1      -1.710  12.069  18.123  0.00  0.00    +0.000 C 
ENDROOT
BRANCH   1   2
ATOM      2  C   UNL     1      -1.177  12.915  19.231  0.00  0.00    +0.000 C 
ATOM      3  C   UNL     1       0.061  13.440  19.349  0.00  0.00    +0.000 C 
ATOM      4  C   UNL     1       1.140  13.242  18.318  0.00  0.00    +0.000 C 
BRANCH   3   5
ATOM      5  C   UNL     1       0.475  14.315  20.529  0.00  0.00    +0.000 C 
BRANCH   5   6
ATOM      6  C   UNL     1       0.456  13.572  21.868  0.00  0.00    +0.000 C 
BRANCH   6   7
ATOM      7  C   UNL     1      -0.730  12.708  22.154  0.00  0.00    +0.000 C 
ATOM      8  C   UNL     1      -1.648  13.048  23.082  0.00  0.00    +0.000 C 
ATOM      9  C   UNL     1      -1.557  14.308  23.918  0.00  0.00    +0.000 C 
BRANCH   8  10
ATOM     10  C   UNL     1      -2.852  12.171  23.342  0.00  0.00    +0.000 C 
BRANCH  10  11
ATOM     11  C   UNL     1      -4.096  12.766  22.678  0.00  0.00    +0.000 C 
BRANCH  11  12
ATOM     12  C   UNL     1      -5.224  13.069  23.663  0.00  0.00    +0.000 C 
BRANCH  12  13
ATOM     13  C   UNL     1      -6.622  13.171  22.987  0.00  0.00    +0.000 C 
ATOM     14  C   UNL     1      -7.645  12.183  23.562  0.00  0.00    +0.000 C 
ATOM     15  C   UNL     1      -7.178  14.595  23.047  0.00  0.00    +0.000 C 
BRANCH  13  16
ATOM     16  O   UNL     1      -6.457  12.833  21.600  0.00  0.00    +0.000 OA
ATOM     17  H   UNL     1      -5.723  13.393  21.277  0.00  0.00    +0.000 HD
ENDBRANCH  13  16
ENDBRANCH  12  13
BRANCH  12  18
ATOM     18  O   UNL     1      -4.961  14.299  24.361  0.00  0.00    +0.000 OA
ATOM     19  H   UNL     1      -5.308  15.033  23.826  0.00  0.00    +0.000 HD
ENDBRANCH  12  18
ENDBRANCH  11  12
ENDBRANCH  10  11
ENDBRANCH   8  10
ENDBRANCH   6   7
ENDBRANCH   5   6
ENDBRANCH   3   5
ENDBRANCH   1   2
BRANCH   1  20
ATOM     20  C   UNL     1      -1.648  10.593  18.506  0.00  0.00    +0.000 C 
BRANCH  20  23
ATOM     21  C   UNL     1       0.914   9.721  19.995  0.00  0.00    +0.000 C 
ATOM     22  C   UNL     1       0.697   9.625  18.508  0.00  0.00    +0.000 C 
ATOM     23  C   UNL     1      -0.438   9.978  17.876  0.00  0.00    +0.000 C 
BRANCH  22  24
ATOM     24  C   UNL     1       1.870   9.090  17.721  0.00  0.00    +0.000 C 
BRANCH  24  25
ATOM     25  C   UNL     1       2.350   7.722  18.121  0.00  0.00    +0.000 C 
ATOM     26  C   UNL     1       3.582   7.177  18.026  0.00  0.00    +0.000 C 
BRANCH  26  27
ATOM     27  C   UNL     1       3.924   5.772  18.478  0.00  0.00    +0.000 C 
ATOM     28  C   UNL     1       3.142   5.433  19.754  0.00  0.00    +0.000 C 
ATOM     29  C   UNL     1       3.680   4.725  17.393  0.00  0.00    +0.000 C 
ATOM     30  C   UNL     1       4.704   3.664  17.718  0.00  0.00    +0.000 C 
ATOM     31  C   UNL     1       5.883   4.470  18.254  0.00  0.00    +0.000 C 
ATOM     32  O   UNL     1       5.338   5.698  18.774  0.00  0.00    +0.000 OA
BRANCH  31  33
ATOM     33  C   UNL     1       7.024   4.728  17.226  0.00  0.00    +0.000 C 
ATOM     34  C   UNL     1       6.707   4.240  15.808  0.00  0.00    +0.000 C 
ATOM     35  C   UNL     1       7.369   6.223  17.169  0.00  0.00    +0.000 C 
BRANCH  33  36
ATOM     36  O   UNL     1       8.197   4.031  17.675  0.00  0.00    +0.000 OA
ATOM     37  H   UNL     1       8.246   4.122  18.643  0.00  0.00    +0.000 HD
ENDBRANCH  33  36
ENDBRANCH  31  33
ENDBRANCH  26  27
ENDBRANCH  24  25
ENDBRANCH  22  24
ENDBRANCH  20  23
ENDBRANCH   1  20
TORSDOF 17
ENDMDL
MODEL 6
REMARK VINA RESULT:      -6.9      5.704      9.179
REMARK  Name = 
REMARK  25 active torsions:
REMARK  status: ('A' for Active; 'I' for Inactive)
REMARK    1  A    between atoms: C_1  and  C_2
REMARK    2  A    between atoms: C_2  and  C_22
REMARK    3  A    between atoms: C_3  and  C_4
REMARK    4  A    between atoms: C_4  and  C_5
REMARK    5  A    between atoms: C_5  and  C_6
REMARK    6  A    between atoms: C_7  and  C_8
REMARK    7  A    between atoms: C_7  and  C_9
REMARK    8  A    between atoms: C_9  and  C_10
REMARK    9  A    between atoms: C_10  and  C_11
REMARK   10  A    between atoms: C_12  and  C_13
REMARK   11  A    between atoms: C_12  and  C_14
REMARK   12  A    between atoms: C_14  and  C_15
REMARK   13  A    between atoms: C_15  and  C_16
REMARK   14  A    between atoms: C_16  and  O_17
REMARK   15  A    between atoms: C_16  and  C_18
REMARK   16  A    between atoms: C_18  and  C_19
REMARK   17  A    between atoms: C_18  and  C_20
REMARK   18  A    between atoms: C_18  and  O_21
REMARK   19  A    between atoms: C_22  and  C_23
REMARK   20  A    between atoms: C_24  and  C_25
REMARK   21  A    between atoms: C_25  and  C_26
REMARK   22  A    between atoms: C_29  and  C_30
REMARK   23  A    between atoms: C_30  and  C_31
REMARK   24  A    between atoms: C_30  and  C_32
REMARK   25  A    between atoms: C_30  and  O_33
REMARK                            x       y       z     vdW  Elec       q    Type
REMARK                         _______ _______ _______ _____ _____    ______ ____
ROOT
ATOM      1  C   UNL     1       2.108   6.735  20.419  0.00  0.00    +0.000 C 
ENDROOT
BRANCH   1   2
ATOM      2  C   UNL     1       1.421   5.504  19.932  0.00  0.00    +0.000 C 
ATOM      3  C   UNL     1       1.517   4.252  20.428  0.00  0.00    +0.000 C 
ATOM      4  C   UNL     1       2.374   3.901  21.615  0.00  0.00    +0.000 C 
BRANCH   3   5
ATOM      5  C   UNL     1       0.735   3.076  19.850  0.00  0.00    +0.000 C 
BRANCH   5   6
ATOM      6  C   UNL     1       0.982   2.864  18.353  0.00  0.00    +0.000 C 
BRANCH   6   7
ATOM      7  C   UNL     1       2.175   3.539  17.754  0.00  0.00    +0.000 C 
ATOM      8  C   UNL     1       3.377   2.930  17.691  0.00  0.00    +0.000 C 
ATOM      9  C   UNL     1       3.631   1.536  18.226  0.00  0.00    +0.000 C 
BRANCH   8  10
ATOM     10  C   UNL     1       4.566   3.621  17.062  0.00  0.00    +0.000 C 
BRANCH  10  11
ATOM     11  C   UNL     1       4.671   5.061  17.566  0.00  0.00    +0.000 C 
BRANCH  11  12
ATOM     12  C   UNL     1       5.633   5.225  18.741  0.00  0.00    +0.000 C 
BRANCH  12  13
ATOM     13  C   UNL     1       7.068   5.644  18.309  0.00  0.00    +0.000 C 
ATOM     14  C   UNL     1       7.820   4.537  17.559  0.00  0.00    +0.000 C 
ATOM     15  C   UNL     1       7.057   6.926  17.474  0.00  0.00    +0.000 C 
BRANCH  13  16
ATOM     16  O   UNL     1       7.818   5.916  19.503  0.00  0.00    +0.000 OA
ATOM     17  H   UNL     1       7.376   6.681  19.924  0.00  0.00    +0.000 HD
ENDBRANCH  13  16
ENDBRANCH  12  13
BRANCH  12  18
ATOM     18  O   UNL     1       5.718   4.002  19.492  0.00  0.00    +0.000 OA
ATOM     19  H   UNL     1       6.522   4.036  20.039  0.00  0.00    +0.000 HD
ENDBRANCH  12  18
ENDBRANCH  11  12
ENDBRANCH  10  11
ENDBRANCH   8  10
ENDBRANCH   6   7
ENDBRANCH   5   6
ENDBRANCH   3   5
ENDBRANCH   1   2
BRANCH   1  20
ATOM     20  C   UNL     1       1.219   7.482  21.409  0.00  0.00    +0.000 C 
BRANCH  20  23
ATOM     21  C   UNL     1      -0.191   9.772  22.929  0.00  0.00    +0.000 C 
ATOM     22  C   UNL     1       0.247   9.823  21.489  0.00  0.00    +0.000 C 
ATOM     23  C   UNL     1       0.891   8.830  20.849  0.00  0.00    +0.000 C 
BRANCH  22  24
ATOM     24  C   UNL     1      -0.088  11.104  20.761  0.00  0.00    +0.000 C 
BRANCH  24  25
ATOM     25  C   UNL     1      -1.409  11.727  21.118  0.00  0.00    +0.000 C 
ATOM     26  C   UNL     1      -1.689  12.979  21.541  0.00  0.00    +0.000 C 
BRANCH  26  27
ATOM     27  C   UNL     1      -3.084  13.474  21.863  0.00  0.00    +0.000 C 
ATOM     28  C   UNL     1      -3.948  13.451  20.595  0.00  0.00    +0.000 C 
ATOM     29  C   UNL     1      -3.746  12.684  22.990  0.00  0.00    +0.000 C 
ATOM     30  C   UNL     1      -4.664  13.706  23.618  0.00  0.00    +0.000 C 
ATOM     31  C   UNL     1      -3.887  15.010  23.469  0.00  0.00    +0.000 C 
ATOM     32  O   UNL     1      -3.007  14.836  22.341  0.00  0.00    +0.000 OA
BRANCH  31  33
ATOM     33  C   UNL     1      -3.118  15.466  24.743  0.00  0.00    +0.000 C 
ATOM     34  C   UNL     1      -1.593  15.457  24.588  0.00  0.00    +0.000 C 
ATOM     35  C   UNL     1      -3.563  16.872  25.167  0.00  0.00    +0.000 C 
BRANCH  33  36
ATOM     36  O   UNL     1      -3.452  14.566  25.813  0.00  0.00    +0.000 OA
ATOM     37  H   UNL     1      -4.289  14.868  26.206  0.00  0.00    +0.000 HD
ENDBRANCH  33  36
ENDBRANCH  31  33
ENDBRANCH  26  27
ENDBRANCH  24  25
ENDBRANCH  22  24
ENDBRANCH  20  23
ENDBRANCH   1  20
TORSDOF 17
ENDMDL
MODEL 7
REMARK VINA RESULT:      -6.9      6.504     11.028
REMARK  Name = 
REMARK  25 active torsions:
REMARK  status: ('A' for Active; 'I' for Inactive)
REMARK    1  A    between atoms: C_1  and  C_2
REMARK    2  A    between atoms: C_2  and  C_22
REMARK    3  A    between atoms: C_3  and  C_4
REMARK    4  A    between atoms: C_4  and  C_5
REMARK    5  A    between atoms: C_5  and  C_6
REMARK    6  A    between atoms: C_7  and  C_8
REMARK    7  A    between atoms: C_7  and  C_9
REMARK    8  A    between atoms: C_9  and  C_10
REMARK    9  A    between atoms: C_10  and  C_11
REMARK   10  A    between atoms: C_12  and  C_13
REMARK   11  A    between atoms: C_12  and  C_14
REMARK   12  A    between atoms: C_14  and  C_15
REMARK   13  A    between atoms: C_15  and  C_16
REMARK   14  A    between atoms: C_16  and  O_17
REMARK   15  A    between atoms: C_16  and  C_18
REMARK   16  A    between atoms: C_18  and  C_19
REMARK   17  A    between atoms: C_18  and  C_20
REMARK   18  A    between atoms: C_18  and  O_21
REMARK   19  A    between atoms: C_22  and  C_23
REMARK   20  A    between atoms: C_24  and  C_25
REMARK   21  A    between atoms: C_25  and  C_26
REMARK   22  A    between atoms: C_29  and  C_30
REMARK   23  A    between atoms: C_30  and  C_31
REMARK   24  A    between atoms: C_30  and  C_32
REMARK   25  A    between atoms: C_30  and  O_33
REMARK                            x       y       z     vdW  Elec       q    Type
REMARK                         _______ _______ _______ _____ _____    ______ ____
ROOT
ATOM      1  C   UNL     1       0.303  11.898  20.437  0.00  0.00    +0.000 C 
ENDROOT
BRANCH   1   2
ATOM      2  C   UNL     1      -0.613  12.528  21.432  0.00  0.00    +0.000 C 
ATOM      3  C   UNL     1      -1.125  11.973  22.552  0.00  0.00    +0.000 C 
ATOM      4  C   UNL     1      -0.824  10.562  22.983  0.00  0.00    +0.000 C 
BRANCH   3   5
ATOM      5  C   UNL     1      -2.036  12.740  23.507  0.00  0.00    +0.000 C 
BRANCH   5   6
ATOM      6  C   UNL     1      -3.520  12.409  23.322  0.00  0.00    +0.000 C 
BRANCH   6   7
ATOM      7  C   UNL     1      -4.261  13.160  22.262  0.00  0.00    +0.000 C 
ATOM      8  C   UNL     1      -4.813  14.367  22.502  0.00  0.00    +0.000 C 
ATOM      9  C   UNL     1      -4.750  15.056  23.849  0.00  0.00    +0.000 C 
BRANCH   8  10
ATOM     10  C   UNL     1      -5.540  15.120  21.411  0.00  0.00    +0.000 C 
BRANCH  10  11
ATOM     11  C   UNL     1      -6.736  14.308  20.911  0.00  0.00    +0.000 C 
BRANCH  11  12
ATOM     12  C   UNL     1      -6.801  14.195  19.389  0.00  0.00    +0.000 C 
BRANCH  12  13
ATOM     13  C   UNL     1      -6.354  12.803  18.855  0.00  0.00    +0.000 C 
ATOM     14  C   UNL     1      -6.693  11.652  19.811  0.00  0.00    +0.000 C 
ATOM     15  C   UNL     1      -6.930  12.517  17.467  0.00  0.00    +0.000 C 
BRANCH  13  16
ATOM     16  O   UNL     1      -4.924  12.826  18.729  0.00  0.00    +0.000 OA
ATOM     17  H   UNL     1      -4.582  12.982  19.633  0.00  0.00    +0.000 HD
ENDBRANCH  13  16
ENDBRANCH  12  13
BRANCH  12  18
ATOM     18  O   UNL     1      -5.982  15.206  18.777  0.00  0.00    +0.000 OA
ATOM     19  H   UNL     1      -6.546  15.971  18.570  0.00  0.00    +0.000 HD
ENDBRANCH  12  18
ENDBRANCH  11  12
ENDBRANCH  10  11
ENDBRANCH   8  10
ENDBRANCH   6   7
ENDBRANCH   5   6
ENDBRANCH   3   5
ENDBRANCH   1   2
BRANCH   1  20
ATOM     20  C   UNL     1      -0.497  11.094  19.416  0.00  0.00    +0.000 C 
BRANCH  20  23
ATOM     21  C   UNL     1       1.292   8.727  20.275  0.00  0.00    +0.000 C 
ATOM     22  C   UNL     1       1.262   9.341  18.900  0.00  0.00    +0.000 C 
ATOM     23  C   UNL     1       0.452  10.350  18.530  0.00  0.00    +0.000 C 
BRANCH  22  24
ATOM     24  C   UNL     1       2.232   8.742  17.908  0.00  0.00    +0.000 C 
BRANCH  24  25
ATOM     25  C   UNL     1       2.775   7.387  18.270  0.00  0.00    +0.000 C 
ATOM     26  C   UNL     1       2.210   6.167  18.140  0.00  0.00    +0.000 C 
BRANCH  26  27
ATOM     27  C   UNL     1       2.884   4.873  18.547  0.00  0.00    +0.000 C 
ATOM     28  C   UNL     1       2.359   4.423  19.917  0.00  0.00    +0.000 C 
ATOM     29  C   UNL     1       2.720   3.767  17.508  0.00  0.00    +0.000 C 
ATOM     30  C   UNL     1       3.971   2.942  17.698  0.00  0.00    +0.000 C 
ATOM     31  C   UNL     1       5.021   3.983  18.070  0.00  0.00    +0.000 C 
ATOM     32  O   UNL     1       4.310   5.092  18.654  0.00  0.00    +0.000 OA
BRANCH  31  33
ATOM     33  C   UNL     1       5.943   4.433  16.900  0.00  0.00    +0.000 C 
ATOM     34  C   UNL     1       5.496   5.730  16.217  0.00  0.00    +0.000 C 
ATOM     35  C   UNL     1       7.389   4.604  17.388  0.00  0.00    +0.000 C 
BRANCH  33  36
ATOM     36  O   UNL     1       5.943   3.395  15.906  0.00  0.00    +0.000 OA
ATOM     37  H   UNL     1       5.764   2.551  16.356  0.00  0.00    +0.000 HD
ENDBRANCH  33  36
ENDBRANCH  31  33
ENDBRANCH  26  27
ENDBRANCH  24  25
ENDBRANCH  22  24
ENDBRANCH  20  23
ENDBRANCH   1  20
TORSDOF 17
ENDMDL
MODEL 8
REMARK VINA RESULT:      -6.8      6.627     10.989
REMARK  Name = 
REMARK  25 active torsions:
REMARK  status: ('A' for Active; 'I' for Inactive)
REMARK    1  A    between atoms: C_1  and  C_2
REMARK    2  A    between atoms: C_2  and  C_22
REMARK    3  A    between atoms: C_3  and  C_4
REMARK    4  A    between atoms: C_4  and  C_5
REMARK    5  A    between atoms: C_5  and  C_6
REMARK    6  A    between atoms: C_7  and  C_8
REMARK    7  A    between atoms: C_7  and  C_9
REMARK    8  A    between atoms: C_9  and  C_10
REMARK    9  A    between atoms: C_10  and  C_11
REMARK   10  A    between atoms: C_12  and  C_13
REMARK   11  A    between atoms: C_12  and  C_14
REMARK   12  A    between atoms: C_14  and  C_15
REMARK   13  A    between atoms: C_15  and  C_16
REMARK   14  A    between atoms: C_16  and  O_17
REMARK   15  A    between atoms: C_16  and  C_18
REMARK   16  A    between atoms: C_18  and  C_19
REMARK   17  A    between atoms: C_18  and  C_20
REMARK   18  A    between atoms: C_18  and  O_21
REMARK   19  A    between atoms: C_22  and  C_23
REMARK   20  A    between atoms: C_24  and  C_25
REMARK   21  A    between atoms: C_25  and  C_26
REMARK   22  A    between atoms: C_29  and  C_30
REMARK   23  A    between atoms: C_30  and  C_31
REMARK   24  A    between atoms: C_30  and  C_32
REMARK   25  A    between atoms: C_30  and  O_33
REMARK                            x       y       z     vdW  Elec       q    Type
REMARK                         _______ _______ _______ _____ _____    ______ ____
ROOT
ATOM      1  C   UNL     1       0.826  10.118  21.494  0.00  0.00    +0.000 C 
ENDROOT
BRANCH   1   2
ATOM      2  C   UNL     1       1.015   9.259  20.288  0.00  0.00    +0.000 C 
ATOM      3  C   UNL     1       1.324   9.650  19.034  0.00  0.00    +0.000 C 
ATOM      4  C   UNL     1       1.541  11.090  18.651  0.00  0.00    +0.000 C 
BRANCH   3   5
ATOM      5  C   UNL     1       1.517   8.661  17.888  0.00  0.00    +0.000 C 
BRANCH   5   6
ATOM      6  C   UNL     1       2.842   7.896  17.966  0.00  0.00    +0.000 C 
BRANCH   6   7
ATOM      7  C   UNL     1       2.815   6.443  17.614  0.00  0.00    +0.000 C 
ATOM      8  C   UNL     1       3.950   5.737  17.429  0.00  0.00    +0.000 C 
ATOM      9  C   UNL     1       5.333   6.343  17.542  0.00  0.00    +0.000 C 
BRANCH   8  10
ATOM     10  C   UNL     1       3.902   4.263  17.095  0.00  0.00    +0.000 C 
BRANCH  10  11
ATOM     11  C   UNL     1       2.719   3.597  17.800  0.00  0.00    +0.000 C 
BRANCH  11  12
ATOM     12  C   UNL     1       3.095   2.937  19.126  0.00  0.00    +0.000 C 
BRANCH  12  13
ATOM     13  C   UNL     1       2.469   3.642  20.364  0.00  0.00    +0.000 C 
ATOM     14  C   UNL     1       1.054   4.174  20.106  0.00  0.00    +0.000 C 
ATOM     15  C   UNL     1       2.469   2.732  21.594  0.00  0.00    +0.000 C 
BRANCH  13  16
ATOM     16  O   UNL     1       3.288   4.781  20.674  0.00  0.00    +0.000 OA
ATOM     17  H   UNL     1       2.820   5.553  20.294  0.00  0.00    +0.000 HD
ENDBRANCH  13  16
ENDBRANCH  12  13
BRANCH  12  18
ATOM     18  O   UNL     1       4.524   2.912  19.284  0.00  0.00    +0.000 OA
ATOM     19  H   UNL     1       4.750   3.419  20.084  0.00  0.00    +0.000 HD
ENDBRANCH  12  18
ENDBRANCH  11  12
ENDBRANCH  10  11
ENDBRANCH   8  10
ENDBRANCH   6   7
ENDBRANCH   5   6
ENDBRANCH   3   5
ENDBRANCH   1   2
BRANCH   1  20
ATOM     20  C   UNL     1      -0.388   9.651  22.292  0.00  0.00    +0.000 C 
BRANCH  20  23
ATOM     21  C   UNL     1      -1.361  12.178  20.805  0.00  0.00    +0.000 C 
ATOM     22  C   UNL     1      -1.437  11.961  22.293  0.00  0.00    +0.000 C 
ATOM     23  C   UNL     1      -1.041  10.839  22.925  0.00  0.00    +0.000 C 
BRANCH  22  24
ATOM     24  C   UNL     1      -2.007  13.116  23.083  0.00  0.00    +0.000 C 
BRANCH  24  25
ATOM     25  C   UNL     1      -3.473  13.380  22.880  0.00  0.00    +0.000 C 
ATOM     26  C   UNL     1      -4.504  12.510  22.798  0.00  0.00    +0.000 C 
BRANCH  26  27
ATOM     27  C   UNL     1      -5.947  12.923  22.594  0.00  0.00    +0.000 C 
ATOM     28  C   UNL     1      -6.652  13.032  23.953  0.00  0.00    +0.000 C 
ATOM     29  C   UNL     1      -6.085  14.221  21.801  0.00  0.00    +0.000 C 
ATOM     30  C   UNL     1      -7.415  14.046  21.106  0.00  0.00    +0.000 C 
ATOM     31  C   UNL     1      -7.466  12.548  20.824  0.00  0.00    +0.000 C 
ATOM     32  O   UNL     1      -6.624  11.916  21.807  0.00  0.00    +0.000 OA
BRANCH  31  33
ATOM     33  C   UNL     1      -7.075  12.140  19.373  0.00  0.00    +0.000 C 
ATOM     34  C   UNL     1      -7.628  13.075  18.292  0.00  0.00    +0.000 C 
ATOM     35  C   UNL     1      -5.549  12.064  19.227  0.00  0.00    +0.000 C 
BRANCH  33  36
ATOM     36  O   UNL     1      -7.599  10.826  19.122  0.00  0.00    +0.000 OA
ATOM     37  H   UNL     1      -7.610  10.688  18.159  0.00  0.00    +0.000 HD
ENDBRANCH  33  36
ENDBRANCH  31  33
ENDBRANCH  26  27
ENDBRANCH  24  25
ENDBRANCH  22  24
ENDBRANCH  20  23
ENDBRANCH   1  20
TORSDOF 17
ENDMDL
MODEL 9
REMARK VINA RESULT:      -6.8      5.541      9.823
REMARK  Name = 
REMARK  25 active torsions:
REMARK  status: ('A' for Active; 'I' for Inactive)
REMARK    1  A    between atoms: C_1  and  C_2
REMARK    2  A    between atoms: C_2  and  C_22
REMARK    3  A    between atoms: C_3  and  C_4
REMARK    4  A    between atoms: C_4  and  C_5
REMARK    5  A    between atoms: C_5  and  C_6
REMARK    6  A    between atoms: C_7  and  C_8
REMARK    7  A    between atoms: C_7  and  C_9
REMARK    8  A    between atoms: C_9  and  C_10
REMARK    9  A    between atoms: C_10  and  C_11
REMARK   10  A    between atoms: C_12  and  C_13
REMARK   11  A    between atoms: C_12  and  C_14
REMARK   12  A    between atoms: C_14  and  C_15
REMARK   13  A    between atoms: C_15  and  C_16
REMARK   14  A    between atoms: C_16  and  O_17
REMARK   15  A    between atoms: C_16  and  C_18
REMARK   16  A    between atoms: C_18  and  C_19
REMARK   17  A    between atoms: C_18  and  C_20
REMARK   18  A    between atoms: C_18  and  O_21
REMARK   19  A    between atoms: C_22  and  C_23
REMARK   20  A    between atoms: C_24  and  C_25
REMARK   21  A    between atoms: C_25  and  C_26
REMARK   22  A    between atoms: C_29  and  C_30
REMARK   23  A    between atoms: C_30  and  C_31
REMARK   24  A    between atoms: C_30  and  C_32
REMARK   25  A    between atoms: C_30  and  O_33
REMARK                            x       y       z     vdW  Elec       q    Type
REMARK                         _______ _______ _______ _____ _____    ______ ____
ROOT
ATOM      1  C   UNL     1       0.460  12.307  20.976  0.00  0.00    +0.000 C 
ENDROOT
BRANCH   1   2
ATOM      2  C   UNL     1      -0.729  12.486  21.860  0.00  0.00    +0.000 C 
ATOM      3  C   UNL     1      -1.287  11.578  22.689  0.00  0.00    +0.000 C 
ATOM      4  C   UNL     1      -0.757  10.179  22.854  0.00  0.00    +0.000 C 
BRANCH   3   5
ATOM      5  C   UNL     1      -2.495  11.899  23.565  0.00  0.00    +0.000 C 
BRANCH   5   6
ATOM      6  C   UNL     1      -3.334  13.065  23.034  0.00  0.00    +0.000 C 
BRANCH   6   7
ATOM      7  C   UNL     1      -3.496  13.172  21.551  0.00  0.00    +0.000 C 
ATOM      8  C   UNL     1      -4.639  12.805  20.934  0.00  0.00    +0.000 C 
ATOM      9  C   UNL     1      -5.838  12.246  21.671  0.00  0.00    +0.000 C 
BRANCH   8  10
ATOM     10  C   UNL     1      -4.791  12.941  19.436  0.00  0.00    +0.000 C 
BRANCH  10  11
ATOM     11  C   UNL     1      -5.213  11.606  18.821  0.00  0.00    +0.000 C 
BRANCH  11  12
ATOM     12  C   UNL     1      -5.012  11.542  17.308  0.00  0.00    +0.000 C 
BRANCH  12  13
ATOM     13  C   UNL     1      -3.625  10.970  16.894  0.00  0.00    +0.000 C 
ATOM     14  C   UNL     1      -3.213   9.736  17.708  0.00  0.00    +0.000 C 
ATOM     15  C   UNL     1      -3.567  10.653  15.398  0.00  0.00    +0.000 C 
BRANCH  13  16
ATOM     16  O   UNL     1      -2.643  11.984  17.157  0.00  0.00    +0.000 OA
ATOM     17  H   UNL     1      -3.097  12.656  17.704  0.00  0.00    +0.000 HD
ENDBRANCH  13  16
ENDBRANCH  12  13
BRANCH  12  18
ATOM     18  O   UNL     1      -5.161  12.850  16.729  0.00  0.00    +0.000 OA
ATOM     19  H   UNL     1      -4.346  13.352  16.898  0.00  0.00    +0.000 HD
ENDBRANCH  12  18
ENDBRANCH  11  12
ENDBRANCH  10  11
ENDBRANCH   8  10
ENDBRANCH   6   7
ENDBRANCH   5   6
ENDBRANCH   3   5
ENDBRANCH   1   2
BRANCH   1  20
ATOM     20  C   UNL     1       0.067  12.496  19.514  0.00  0.00    +0.000 C 
BRANCH  20  23
ATOM     21  C   UNL     1       0.093   9.410  19.384  0.00  0.00    +0.000 C 
ATOM     22  C   UNL     1       1.013  10.321  18.616  0.00  0.00    +0.000 C 
ATOM     23  C   UNL     1       0.968  11.666  18.656  0.00  0.00    +0.000 C 
BRANCH  22  24
ATOM     24  C   UNL     1       2.040   9.620  17.757  0.00  0.00    +0.000 C 
BRANCH  24  25
ATOM     25  C   UNL     1       2.309   8.184  18.110  0.00  0.00    +0.000 C 
ATOM     26  C   UNL     1       3.485   7.544  18.290  0.00  0.00    +0.000 C 
BRANCH  26  27
ATOM     27  C   UNL     1       3.606   6.078  18.651  0.00  0.00    +0.000 C 
ATOM     28  C   UNL     1       2.787   5.786  19.915  0.00  0.00    +0.000 C 
ATOM     29  C   UNL     1       3.197   5.151  17.508  0.00  0.00    +0.000 C 
ATOM     30  C   UNL     1       4.045   3.925  17.754  0.00  0.00    +0.000 C 
ATOM     31  C   UNL     1       5.337   4.504  18.321  0.00  0.00    +0.000 C 
ATOM     32  O   UNL     1       4.992   5.767  18.922  0.00  0.00    +0.000 OA
BRANCH  31  33
ATOM     33  C   UNL     1       6.500   4.645  17.295  0.00  0.00    +0.000 C 
ATOM     34  C   UNL     1       6.211   4.001  15.935  0.00  0.00    +0.000 C 
ATOM     35  C   UNL     1       6.850   6.123  17.078  0.00  0.00    +0.000 C 
BRANCH  33  36
ATOM     36  O   UNL     1       7.661   4.001  17.844  0.00  0.00    +0.000 OA
ATOM     37  H   UNL     1       7.474   3.048  17.904  0.00  0.00    +0.000 HD
ENDBRANCH  33  36
ENDBRANCH  31  33
ENDBRANCH  26  27
ENDBRANCH  24  25
ENDBRANCH  22  24
ENDBRANCH  20  23
ENDBRANCH   1  20
TORSDOF 17
ENDMDL
