MODEL 1
REMARK VINA RESULT:      -7.1      0.000      0.000
REMARK  Name = 
REMARK  4 active torsions:
REMARK  status: ('A' for Active; 'I' for Inactive)
REMARK    1  A    between atoms: C_1  and  O_2
REMARK    2  A    between atoms: O_2  and  C_3
REMARK    3  A    between atoms: C_10  and  C_12
REMARK    4  A    between atoms: C_14  and  C_15
REMARK                            x       y       z     vdW  Elec       q    Type
REMARK                         _______ _______ _______ _____ _____    ______ ____
ROOT
ATOM      1  C   UNL     1      -0.935  11.720  22.207  0.00  0.00    +0.000 A 
ATOM      2  C   UNL     1      -0.861  10.746  23.201  0.00  0.00    +0.000 A 
ATOM      3  C   UNL     1      -0.244   9.512  22.947  0.00  0.00    +0.000 A 
ATOM      4  C   UNL     1       0.315   9.251  21.680  0.00  0.00    +0.000 A 
ATOM      5  N   UNL     1       0.949   8.084  21.283  0.00  0.00    +0.000 NA
ATOM      6  C   UNL     1       1.397   8.220  20.056  0.00  0.00    +0.000 A 
ATOM      7  N   UNL     1       2.098   7.212  19.444  0.00  0.00    +0.000 N 
ATOM      8  C   UNL     1       2.811   7.276  18.273  0.00  0.00    +0.000 C 
ATOM      9  O   UNL     1       2.913   8.261  17.548  0.00  0.00    +0.000 OA
ATOM     10  S   UNL     1       1.027   9.686  19.280  0.00  0.00    +0.000 S 
ATOM     11  C   UNL     1       0.245  10.245  20.705  0.00  0.00    +0.000 A 
ATOM     12  C   UNL     1      -0.380  11.478  20.946  0.00  0.00    +0.000 A 
ATOM     13  H   UNL     1       2.153   6.374  20.010  0.00  0.00    +0.000 HD
ENDROOT
BRANCH   8  14
ATOM     14  C   UNL     1       3.521   6.056  17.928  0.00  0.00    +0.000 A 
ATOM     15  N   UNL     1       3.300   4.884  18.631  0.00  0.00    +0.000 N 
ATOM     16  C   UNL     1       4.013   3.843  18.089  0.00  0.00    +0.000 A 
ATOM     17  C   UNL     1       3.928   2.453  18.602  0.00  0.00    +0.000 C 
ATOM     18  C   UNL     1       4.744   4.362  17.040  0.00  0.00    +0.000 A 
ATOM     19 CL   UNL     1       5.794   3.488  16.021  0.00  0.00    +0.000 Cl
ATOM     20  C   UNL     1       4.449   5.749  16.946  0.00  0.00    +0.000 A 
ATOM     21 CL   UNL     1       5.132   6.794  15.783  0.00  0.00    +0.000 Cl
ATOM     22  H   UNL     1       2.665   4.824  19.423  0.00  0.00    +0.000 HD
ENDBRANCH   8  14
BRANCH   1  24
ATOM     23  C   UNL     1      -2.706  13.031  23.106  0.00  0.00    +0.000 C 
ATOM     24  O   UNL     1      -1.513  12.954  22.334  0.00  0.00    +0.000 OA
ENDBRANCH   1  24
TORSDOF 2
ENDMDL
MODEL 2
REMARK VINA RESULT:      -7.0      1.424      1.740
REMARK  Name = 
REMARK  4 active torsions:
REMARK  status: ('A' for Active; 'I' for Inactive)
REMARK    1  A    between atoms: C_1  and  O_2
REMARK    2  A    between atoms: O_2  and  C_3
REMARK    3  A    between atoms: C_10  and  C_12
REMARK    4  A    between atoms: C_14  and  C_15
REMARK                            x       y       z     vdW  Elec       q    Type
REMARK                         _______ _______ _______ _____ _____    ______ ____
ROOT
ATOM      1  C   UNL     1      -1.363  12.055  22.088  0.00  0.00    +0.000 A 
ATOM      2  C   UNL     1      -1.113  11.140  23.108  0.00  0.00    +0.000 A 
ATOM      3  C   UNL     1      -0.363   9.980  22.860  0.00  0.00    +0.000 A 
ATOM      4  C   UNL     1       0.152   9.736  21.571  0.00  0.00    +0.000 A 
ATOM      5  N   UNL     1       0.901   8.640  21.177  0.00  0.00    +0.000 NA
ATOM      6  C   UNL     1       1.260   8.777  19.921  0.00  0.00    +0.000 A 
ATOM      7  N   UNL     1       2.044   7.838  19.303  0.00  0.00    +0.000 N 
ATOM      8  C   UNL     1       2.677   7.938  18.089  0.00  0.00    +0.000 C 
ATOM      9  O   UNL     1       2.616   8.897  17.325  0.00  0.00    +0.000 OA
ATOM     10  S   UNL     1       0.668  10.154  19.119  0.00  0.00    +0.000 S 
ATOM     11  C   UNL     1      -0.095  10.672  20.568  0.00  0.00    +0.000 A 
ATOM     12  C   UNL     1      -0.854  11.830  20.804  0.00  0.00    +0.000 A 
ATOM     13  H   UNL     1       2.235   7.037  19.893  0.00  0.00    +0.000 HD
ENDROOT
BRANCH   8  14
ATOM     14  C   UNL     1       3.512   6.800  17.743  0.00  0.00    +0.000 A 
ATOM     15  N   UNL     1       4.864   6.963  17.491  0.00  0.00    +0.000 N 
ATOM     16  C   UNL     1       5.470   5.753  17.263  0.00  0.00    +0.000 A 
ATOM     17  C   UNL     1       6.928   5.615  17.021  0.00  0.00    +0.000 C 
ATOM     18  C   UNL     1       4.483   4.791  17.326  0.00  0.00    +0.000 A 
ATOM     19 CL   UNL     1       4.703   3.113  17.123  0.00  0.00    +0.000 Cl
ATOM     20  C   UNL     1       3.254   5.446  17.612  0.00  0.00    +0.000 A 
ATOM     21 CL   UNL     1       1.760   4.639  17.781  0.00  0.00    +0.000 Cl
ATOM     22  H   UNL     1       5.326   7.868  17.508  0.00  0.00    +0.000 HD
ENDBRANCH   8  14
BRANCH   1  24
ATOM     23  C   UNL     1      -3.375  13.114  22.792  0.00  0.00    +0.000 C 
ATOM     24  O   UNL     1      -2.081  13.214  22.207  0.00  0.00    +0.000 OA
ENDBRANCH   1  24
TORSDOF 2
ENDMDL
MODEL 3
REMARK VINA RESULT:      -7.0      3.563      8.613
REMARK  Name = 
REMARK  4 active torsions:
REMARK  status: ('A' for Active; 'I' for Inactive)
REMARK    1  A    between atoms: C_1  and  O_2
REMARK    2  A    between atoms: O_2  and  C_3
REMARK    3  A    between atoms: C_10  and  C_12
REMARK    4  A    between atoms: C_14  and  C_15
REMARK                            x       y       z     vdW  Elec       q    Type
REMARK                         _______ _______ _______ _____ _____    ______ ____
ROOT
ATOM      1  C   UNL     1       5.029   4.001  16.613  0.00  0.00    +0.000 A 
ATOM      2  C   UNL     1       4.398   3.254  17.605  0.00  0.00    +0.000 A 
ATOM      3  C   UNL     1       3.543   3.871  18.530  0.00  0.00    +0.000 A 
ATOM      4  C   UNL     1       3.311   5.259  18.457  0.00  0.00    +0.000 A 
ATOM      5  N   UNL     1       2.501   6.005  19.299  0.00  0.00    +0.000 NA
ATOM      6  C   UNL     1       2.474   7.254  18.894  0.00  0.00    +0.000 A 
ATOM      7  N   UNL     1       1.710   8.190  19.542  0.00  0.00    +0.000 N 
ATOM      8  C   UNL     1       1.404   9.461  19.123  0.00  0.00    +0.000 C 
ATOM      9  O   UNL     1       1.802   9.991  18.091  0.00  0.00    +0.000 OA
ATOM     10  S   UNL     1       3.459   7.632  17.562  0.00  0.00    +0.000 S 
ATOM     11  C   UNL     1       3.939   5.986  17.447  0.00  0.00    +0.000 A 
ATOM     12  C   UNL     1       4.804   5.379  16.523  0.00  0.00    +0.000 A 
ATOM     13  H   UNL     1       1.255   7.820  20.368  0.00  0.00    +0.000 HD
ENDROOT
BRANCH   8  14
ATOM     14  C   UNL     1       0.494  10.185  19.995  0.00  0.00    +0.000 A 
ATOM     15  N   UNL     1      -0.411  11.095  19.476  0.00  0.00    +0.000 N 
ATOM     16  C   UNL     1      -1.219  11.602  20.463  0.00  0.00    +0.000 A 
ATOM     17  C   UNL     1      -2.321  12.558  20.192  0.00  0.00    +0.000 C 
ATOM     18  C   UNL     1      -0.801  11.040  21.652  0.00  0.00    +0.000 A 
ATOM     19 CL   UNL     1      -1.478  11.325  23.190  0.00  0.00    +0.000 Cl
ATOM     20  C   UNL     1       0.281  10.164  21.363  0.00  0.00    +0.000 A 
ATOM     21 CL   UNL     1       1.110   9.251  22.542  0.00  0.00    +0.000 Cl
ATOM     22  H   UNL     1      -0.466  11.319  18.486  0.00  0.00    +0.000 HD
ENDBRANCH   8  14
BRANCH   1  24
ATOM     23  C   UNL     1       5.983   4.247  14.446  0.00  0.00    +0.000 C 
ATOM     24  O   UNL     1       5.884   3.513  15.661  0.00  0.00    +0.000 OA
ENDBRANCH   1  24
TORSDOF 2
ENDMDL
MODEL 4
REMARK VINA RESULT:      -7.0      2.016      2.238
REMARK  Name = 
REMARK  4 active torsions:
REMARK  status: ('A' for Active; 'I' for Inactive)
REMARK    1  A    between atoms: C_1  and  O_2
REMARK    2  A    between atoms: O_2  and  C_3
REMARK    3  A    between atoms: C_10  and  C_12
REMARK    4  A    between atoms: C_14  and  C_15
REMARK                            x       y       z     vdW  Elec       q    Type
REMARK                         _______ _______ _______ _____ _____    ______ ____
ROOT
ATOM      1  C   UNL     1      -1.503  12.352  21.891  0.00  0.00    +0.000 A 
ATOM      2  C   UNL     1      -1.409  11.642  23.086  0.00  0.00    +0.000 A 
ATOM      3  C   UNL     1      -0.730  10.416  23.138  0.00  0.00    +0.000 A 
ATOM      4  C   UNL     1      -0.129   9.894  21.975  0.00  0.00    +0.000 A 
ATOM      5  N   UNL     1       0.567   8.701  21.871  0.00  0.00    +0.000 NA
ATOM      6  C   UNL     1       1.039   8.568  20.653  0.00  0.00    +0.000 A 
ATOM      7  N   UNL     1       1.800   7.482  20.304  0.00  0.00    +0.000 N 
ATOM      8  C   UNL     1       2.539   7.306  19.160  0.00  0.00    +0.000 C 
ATOM      9  O   UNL     1       2.613   8.097  18.225  0.00  0.00    +0.000 OA
ATOM     10  S   UNL     1       0.622   9.791  19.550  0.00  0.00    +0.000 S 
ATOM     11  C   UNL     1      -0.220  10.627  20.792  0.00  0.00    +0.000 A 
ATOM     12  C   UNL     1      -0.907  11.850  20.729  0.00  0.00    +0.000 A 
ATOM     13  H   UNL     1       1.880   6.803  21.052  0.00  0.00    +0.000 HD
ENDROOT
BRANCH   8  14
ATOM     14  C   UNL     1       3.312   6.076  19.121  0.00  0.00    +0.000 A 
ATOM     15  N   UNL     1       4.504   6.010  18.419  0.00  0.00    +0.000 N 
ATOM     16  C   UNL     1       5.102   4.785  18.580  0.00  0.00    +0.000 A 
ATOM     17  C   UNL     1       6.421   4.448  17.988  0.00  0.00    +0.000 C 
ATOM     18  C   UNL     1       4.260   4.027  19.368  0.00  0.00    +0.000 A 
ATOM     19 CL   UNL     1       4.535   2.425  19.878  0.00  0.00    +0.000 Cl
ATOM     20  C   UNL     1       3.131   4.828  19.695  0.00  0.00    +0.000 A 
ATOM     21 CL   UNL     1       1.829   4.293  20.658  0.00  0.00    +0.000 Cl
ATOM     22  H   UNL     1       4.877   6.791  17.886  0.00  0.00    +0.000 HD
ENDBRANCH   8  14
BRANCH   1  24
ATOM     23  C   UNL     1      -1.927  14.220  20.479  0.00  0.00    +0.000 C 
ATOM     24  O   UNL     1      -2.140  13.551  21.716  0.00  0.00    +0.000 OA
ENDBRANCH   1  24
TORSDOF 2
ENDMDL
MODEL 5
REMARK VINA RESULT:      -6.9      3.778      8.048
REMARK  Name = 
REMARK  4 active torsions:
REMARK  status: ('A' for Active; 'I' for Inactive)
REMARK    1  A    between atoms: C_1  and  O_2
REMARK    2  A    between atoms: O_2  and  C_3
REMARK    3  A    between atoms: C_10  and  C_12
REMARK    4  A    between atoms: C_14  and  C_15
REMARK                            x       y       z     vdW  Elec       q    Type
REMARK                         _______ _______ _______ _____ _____    ______ ____
ROOT
ATOM      1  C   UNL     1       3.236   3.055  19.781  0.00  0.00    +0.000 A 
ATOM      2  C   UNL     1       2.537   3.179  20.980  0.00  0.00    +0.000 A 
ATOM      3  C   UNL     1       1.962   4.404  21.349  0.00  0.00    +0.000 A 
ATOM      4  C   UNL     1       2.083   5.523  20.500  0.00  0.00    +0.000 A 
ATOM      5  N   UNL     1       1.576   6.792  20.731  0.00  0.00    +0.000 NA
ATOM      6  C   UNL     1       1.827   7.563  19.699  0.00  0.00    +0.000 A 
ATOM      7  N   UNL     1       1.393   8.864  19.666  0.00  0.00    +0.000 N 
ATOM      8  C   UNL     1       1.381   9.718  18.592  0.00  0.00    +0.000 C 
ATOM      9  O   UNL     1       1.797   9.462  17.466  0.00  0.00    +0.000 OA
ATOM     10  S   UNL     1       2.740   6.866  18.446  0.00  0.00    +0.000 S 
ATOM     11  C   UNL     1       2.773   5.374  19.298  0.00  0.00    +0.000 A 
ATOM     12  C   UNL     1       3.360   4.155  18.925  0.00  0.00    +0.000 A 
ATOM     13  H   UNL     1       0.943   9.148  20.528  0.00  0.00    +0.000 HD
ENDROOT
BRANCH   8  14
ATOM     14  C   UNL     1       0.775  11.013  18.854  0.00  0.00    +0.000 A 
ATOM     15  N   UNL     1      -0.518  11.105  19.342  0.00  0.00    +0.000 N 
ATOM     16  C   UNL     1      -0.858  12.412  19.588  0.00  0.00    +0.000 A 
ATOM     17  C   UNL     1      -2.164  12.810  20.170  0.00  0.00    +0.000 C 
ATOM     18  C   UNL     1       0.221  13.186  19.212  0.00  0.00    +0.000 A 
ATOM     19 CL   UNL     1       0.325  14.883  19.320  0.00  0.00    +0.000 Cl
ATOM     20  C   UNL     1       1.239  12.313  18.738  0.00  0.00    +0.000 A 
ATOM     21 CL   UNL     1       2.758  12.840  18.168  0.00  0.00    +0.000 Cl
ATOM     22  H   UNL     1      -1.105  10.294  19.513  0.00  0.00    +0.000 HD
ENDBRANCH   8  14
BRANCH   1  24
ATOM     23  C   UNL     1       3.703   1.633  17.931  0.00  0.00    +0.000 C 
ATOM     24  O   UNL     1       3.841   1.918  19.318  0.00  0.00    +0.000 OA
ENDBRANCH   1  24
TORSDOF 2
ENDMDL
MODEL 6
REMARK VINA RESULT:      -6.8      1.514      1.929
REMARK  Name = 
REMARK  4 active torsions:
REMARK  status: ('A' for Active; 'I' for Inactive)
REMARK    1  A    between atoms: C_1  and  O_2
REMARK    2  A    between atoms: O_2  and  C_3
REMARK    3  A    between atoms: C_10  and  C_12
REMARK    4  A    between atoms: C_14  and  C_15
REMARK                            x       y       z     vdW  Elec       q    Type
REMARK                         _______ _______ _______ _____ _____    ______ ____
ROOT
ATOM      1  C   UNL     1      -0.988  12.133  21.556  0.00  0.00    +0.000 A 
ATOM      2  C   UNL     1      -0.765  12.540  20.242  0.00  0.00    +0.000 A 
ATOM      3  C   UNL     1      -0.027  11.736  19.360  0.00  0.00    +0.000 A 
ATOM      4  C   UNL     1       0.491  10.501  19.798  0.00  0.00    +0.000 A 
ATOM      5  N   UNL     1       1.237   9.607  19.048  0.00  0.00    +0.000 NA
ATOM      6  C   UNL     1       1.495   8.536  19.762  0.00  0.00    +0.000 A 
ATOM      7  N   UNL     1       2.192   7.482  19.231  0.00  0.00    +0.000 N 
ATOM      8  C   UNL     1       2.349   6.225  19.761  0.00  0.00    +0.000 C 
ATOM      9  O   UNL     1       1.908   5.841  20.840  0.00  0.00    +0.000 OA
ATOM     10  S   UNL     1       0.947   8.558  21.371  0.00  0.00    +0.000 S 
ATOM     11  C   UNL     1       0.242  10.104  21.112  0.00  0.00    +0.000 A 
ATOM     12  C   UNL     1      -0.486  10.906  22.004  0.00  0.00    +0.000 A 
ATOM     13  H   UNL     1       2.523   7.665  18.291  0.00  0.00    +0.000 HD
ENDROOT
BRANCH   8  14
ATOM     14  C   UNL     1       3.075   5.295  18.912  0.00  0.00    +0.000 A 
ATOM     15  N   UNL     1       2.870   3.930  19.019  0.00  0.00    +0.000 N 
ATOM     16  C   UNL     1       3.597   3.248  18.075  0.00  0.00    +0.000 A 
ATOM     17  C   UNL     1       3.531   1.774  17.915  0.00  0.00    +0.000 C 
ATOM     18  C   UNL     1       4.320   4.188  17.370  0.00  0.00    +0.000 A 
ATOM     19 CL   UNL     1       5.382   3.872  16.075  0.00  0.00    +0.000 Cl
ATOM     20  C   UNL     1       4.007   5.469  17.902  0.00  0.00    +0.000 A 
ATOM     21 CL   UNL     1       4.675   6.930  17.329  0.00  0.00    +0.000 Cl
ATOM     22  H   UNL     1       2.237   3.516  19.698  0.00  0.00    +0.000 HD
ENDBRANCH   8  14
BRANCH   1  24
ATOM     23  C   UNL     1      -2.608  12.092  23.299  0.00  0.00    +0.000 C 
ATOM     24  O   UNL     1      -1.685  12.830  22.505  0.00  0.00    +0.000 OA
ENDBRANCH   1  24
TORSDOF 2
ENDMDL
MODEL 7
REMARK VINA RESULT:      -6.8      2.653      3.636
REMARK  Name = 
REMARK  4 active torsions:
REMARK  status: ('A' for Active; 'I' for Inactive)
REMARK    1  A    between atoms: C_1  and  O_2
REMARK    2  A    between atoms: O_2  and  C_3
REMARK    3  A    between atoms: C_10  and  C_12
REMARK    4  A    between atoms: C_14  and  C_15
REMARK                            x       y       z     vdW  Elec       q    Type
REMARK                         _______ _______ _______ _____ _____    ______ ____
ROOT
ATOM      1  C   UNL     1       0.154   8.926  21.343  0.00  0.00    +0.000 A 
ATOM      2  C   UNL     1       0.207   9.925  20.373  0.00  0.00    +0.000 A 
ATOM      3  C   UNL     1       1.033   9.786  19.247  0.00  0.00    +0.000 A 
ATOM      4  C   UNL     1       1.814   8.624  19.087  0.00  0.00    +0.000 A 
ATOM      5  N   UNL     1       2.675   8.349  18.037  0.00  0.00    +0.000 NA
ATOM      6  C   UNL     1       3.186   7.149  18.187  0.00  0.00    +0.000 A 
ATOM      7  N   UNL     1       4.045   6.624  17.255  0.00  0.00    +0.000 N 
ATOM      8  C   UNL     1       4.484   5.328  17.153  0.00  0.00    +0.000 C 
ATOM      9  O   UNL     1       4.199   4.411  17.917  0.00  0.00    +0.000 OA
ATOM     10  S   UNL     1       2.749   6.319  19.604  0.00  0.00    +0.000 S 
ATOM     11  C   UNL     1       1.734   7.629  20.060  0.00  0.00    +0.000 A 
ATOM     12  C   UNL     1       0.919   7.764  21.194  0.00  0.00    +0.000 A 
ATOM     13  H   UNL     1       4.272   7.281  16.519  0.00  0.00    +0.000 HD
ENDROOT
BRANCH   8  14
ATOM     14  C   UNL     1       5.326   5.061  15.998  0.00  0.00    +0.000 A 
ATOM     15  N   UNL     1       4.905   4.203  14.997  0.00  0.00    +0.000 N 
ATOM     16  C   UNL     1       5.817   4.159  13.972  0.00  0.00    +0.000 A 
ATOM     17  C   UNL     1       5.604   3.365  12.736  0.00  0.00    +0.000 C 
ATOM     18  C   UNL     1       6.871   4.972  14.337  0.00  0.00    +0.000 A 
ATOM     19 CL   UNL     1       8.269   5.277  13.412  0.00  0.00    +0.000 Cl
ATOM     20  C   UNL     1       6.572   5.526  15.612  0.00  0.00    +0.000 A 
ATOM     21 CL   UNL     1       7.601   6.597  16.451  0.00  0.00    +0.000 Cl
ATOM     22  H   UNL     1       4.019   3.706  15.029  0.00  0.00    +0.000 HD
ENDBRANCH   8  14
BRANCH   1  24
ATOM     23  C   UNL     1      -0.803  10.218  23.098  0.00  0.00    +0.000 C 
ATOM     24  O   UNL     1      -0.607   8.951  22.480  0.00  0.00    +0.000 OA
ENDBRANCH   1  24
TORSDOF 2
ENDMDL
MODEL 8
REMARK VINA RESULT:      -6.7      4.202      8.085
REMARK  Name = 
REMARK  4 active torsions:
REMARK  status: ('A' for Active; 'I' for Inactive)
REMARK    1  A    between atoms: C_1  and  O_2
REMARK    2  A    between atoms: O_2  and  C_3
REMARK    3  A    between atoms: C_10  and  C_12
REMARK    4  A    between atoms: C_14  and  C_15
REMARK                            x       y       z     vdW  Elec       q    Type
REMARK                         _______ _______ _______ _____ _____    ______ ____
ROOT
ATOM      1  C   UNL     1       2.470   2.683  19.559  0.00  0.00    +0.000 A 
ATOM      2  C   UNL     1       1.963   2.966  20.826  0.00  0.00    +0.000 A 
ATOM      3  C   UNL     1       1.691   4.288  21.209  0.00  0.00    +0.000 A 
ATOM      4  C   UNL     1       1.923   5.344  20.306  0.00  0.00    +0.000 A 
ATOM      5  N   UNL     1       1.707   6.692  20.543  0.00  0.00    +0.000 NA
ATOM      6  C   UNL     1       1.974   7.380  19.457  0.00  0.00    +0.000 A 
ATOM      7  N   UNL     1       1.804   8.740  19.421  0.00  0.00    +0.000 N 
ATOM      8  C   UNL     1       1.825   9.562  18.321  0.00  0.00    +0.000 C 
ATOM      9  O   UNL     1       2.039   9.208  17.166  0.00  0.00    +0.000 OA
ATOM     10  S   UNL     1       2.569   6.493  18.134  0.00  0.00    +0.000 S 
ATOM     11  C   UNL     1       2.414   5.040  19.038  0.00  0.00    +0.000 A 
ATOM     12  C   UNL     1       2.700   3.721  18.649  0.00  0.00    +0.000 A 
ATOM     13  H   UNL     1       1.529   9.124  20.317  0.00  0.00    +0.000 HD
ENDROOT
BRANCH   8  14
ATOM     14  C   UNL     1       1.523  10.956  18.599  0.00  0.00    +0.000 A 
ATOM     15  N   UNL     1       2.370  11.964  18.170  0.00  0.00    +0.000 N 
ATOM     16  C   UNL     1       1.854  13.200  18.471  0.00  0.00    +0.000 A 
ATOM     17  C   UNL     1       2.519  14.468  18.080  0.00  0.00    +0.000 C 
ATOM     18  C   UNL     1       0.669  12.987  19.146  0.00  0.00    +0.000 A 
ATOM     19 CL   UNL     1      -0.378  14.194  19.739  0.00  0.00    +0.000 Cl
ATOM     20  C   UNL     1       0.468  11.583  19.240  0.00  0.00    +0.000 A 
ATOM     21 CL   UNL     1      -0.879  10.862  19.999  0.00  0.00    +0.000 Cl
ATOM     22  H   UNL     1       3.239  11.784  17.675  0.00  0.00    +0.000 HD
ENDBRANCH   8  14
BRANCH   1  24
ATOM     23  C   UNL     1       3.835   1.361  18.126  0.00  0.00    +0.000 C 
ATOM     24  O   UNL     1       2.777   1.440  19.076  0.00  0.00    +0.000 OA
ENDBRANCH   1  24
TORSDOF 2
ENDMDL
MODEL 9
REMARK VINA RESULT:      -6.7      1.997      2.236
REMARK  Name = 
REMARK  4 active torsions:
REMARK  status: ('A' for Active; 'I' for Inactive)
REMARK    1  A    between atoms: C_1  and  O_2
REMARK    2  A    between atoms: O_2  and  C_3
REMARK    3  A    between atoms: C_10  and  C_12
REMARK    4  A    between atoms: C_14  and  C_15
REMARK                            x       y       z     vdW  Elec       q    Type
REMARK                         _______ _______ _______ _____ _____    ______ ____
ROOT
ATOM      1  C   UNL     1      -0.765  13.221  21.638  0.00  0.00    +0.000 A 
ATOM      2  C   UNL     1      -1.120  12.557  22.809  0.00  0.00    +0.000 A 
ATOM      3  C   UNL     1      -0.838  11.192  22.971  0.00  0.00    +0.000 A 
ATOM      4  C   UNL     1      -0.183  10.482  21.945  0.00  0.00    +0.000 A 
ATOM      5  N   UNL     1       0.156   9.138  21.958  0.00  0.00    +0.000 NA
ATOM      6  C   UNL     1       0.810   8.836  20.861  0.00  0.00    +0.000 A 
ATOM      7  N   UNL     1       1.290   7.569  20.650  0.00  0.00    +0.000 N 
ATOM      8  C   UNL     1       2.167   7.153  19.679  0.00  0.00    +0.000 C 
ATOM      9  O   UNL     1       2.650   7.858  18.799  0.00  0.00    +0.000 OA
ATOM     10  S   UNL     1       0.987  10.087  19.724  0.00  0.00    +0.000 S 
ATOM     11  C   UNL     1       0.179  11.169  20.786  0.00  0.00    +0.000 A 
ATOM     12  C   UNL     1      -0.109  12.532  20.612  0.00  0.00    +0.000 A 
ATOM     13  H   UNL     1       1.022   6.922  21.382  0.00  0.00    +0.000 HD
ENDROOT
BRANCH   8  14
ATOM     14  C   UNL     1       2.555   5.755  19.770  0.00  0.00    +0.000 A 
ATOM     15  N   UNL     1       2.248   5.006  20.893  0.00  0.00    +0.000 N 
ATOM     16  C   UNL     1       2.638   3.699  20.734  0.00  0.00    +0.000 A 
ATOM     17  C   UNL     1       2.385   2.652  21.755  0.00  0.00    +0.000 C 
ATOM     18  C   UNL     1       3.248   3.610  19.500  0.00  0.00    +0.000 A 
ATOM     19 CL   UNL     1       3.907   2.200  18.806  0.00  0.00    +0.000 Cl
ATOM     20  C   UNL     1       3.211   4.899  18.901  0.00  0.00    +0.000 A 
ATOM     21 CL   UNL     1       3.854   5.255  17.362  0.00  0.00    +0.000 Cl
ATOM     22  H   UNL     1       1.770   5.391  21.703  0.00  0.00    +0.000 HD
ENDBRANCH   8  14
BRANCH   1  24
ATOM     23  C   UNL     1      -0.962  14.933  19.996  0.00  0.00    +0.000 C 
ATOM     24  O   UNL     1      -0.991  14.543  21.364  0.00  0.00    +0.000 OA
ENDBRANCH   1  24
TORSDOF 2
ENDMDL
