MODEL 1
REMARK VINA RESULT:      -7.3      0.000      0.000
REMARK  Name = 
REMARK  5 active torsions:
REMARK  status: ('A' for Active; 'I' for Inactive)
REMARK    1  A    between atoms: C_1  and  O_2
REMARK    2  A    between atoms: O_2  and  C_3
REMARK    3  A    between atoms: C_6  and  C_7
REMARK    4  A    between atoms: C_12  and  C_13
REMARK    5  A    between atoms: N_22  and  C_23
REMARK                            x       y       z     vdW  Elec       q    Type
REMARK                         _______ _______ _______ _____ _____    ______ ____
ROOT
ATOM      1  C   UNL     1      -0.198  10.709  19.065  0.00  0.00    +0.000 C 
ATOM      2  C   UNL     1      -1.156  10.655  20.294  0.00  0.00    +0.000 C 
ATOM      3  N   UNL     1      -2.014  11.849  20.263  0.00  0.00    +0.000 N 
ATOM      4  C   UNL     1      -2.259  12.621  21.378  0.00  0.00    +0.000 A 
ATOM      5  N   UNL     1      -3.480  12.805  21.795  0.00  0.00    +0.000 NA
ATOM      6  C   UNL     1      -3.679  13.568  22.919  0.00  0.00    +0.000 A 
ATOM      7  C   UNL     1      -2.701  14.115  23.638  0.00  0.00    +0.000 A 
ATOM      8  C   UNL     1      -1.322  13.948  23.173  0.00  0.00    +0.000 A 
ATOM      9  O   UNL     1      -0.415  14.470  23.806  0.00  0.00    +0.000 OA
ATOM     10  N   UNL     1      -1.170  13.218  22.011  0.00  0.00    +0.000 N 
ATOM     11  C   UNL     1       0.154  13.227  21.411  0.00  0.00    +0.000 C 
ATOM     12  C   UNL     1      -2.851  11.886  19.062  0.00  0.00    +0.000 C 
ATOM     13  C   UNL     1      -1.908  11.916  17.829  0.00  0.00    +0.000 C 
ATOM     14  N   UNL     1      -0.945  10.790  17.786  0.00  0.00    +0.000 NA
ATOM     15  H   UNL     1      -0.275  10.947  17.033  0.00  0.00    +0.000 HD
ENDROOT
BRANCH   1  19
ATOM     16  C   UNL     1       2.567   7.377  19.007  0.00  0.00    +0.000 A 
ATOM     17  C   UNL     1       1.868   7.694  20.171  0.00  0.00    +0.000 A 
ATOM     18  C   UNL     1       0.971   8.762  20.191  0.00  0.00    +0.000 A 
ATOM     19  C   UNL     1       0.776   9.548  19.051  0.00  0.00    +0.000 A 
ATOM     20  C   UNL     1       1.503   9.242  17.889  0.00  0.00    +0.000 A 
ATOM     21  C   UNL     1       2.389   8.159  17.867  0.00  0.00    +0.000 A 
BRANCH  16  23
ATOM     22  C   UNL     1       3.484   5.481  17.933  0.00  0.00    +0.000 C 
ATOM     23  O   UNL     1       3.388   6.287  19.103  0.00  0.00    +0.000 OA
ENDBRANCH  16  23
ENDBRANCH   1  19
BRANCH   6  24
ATOM     24  C   UNL     1      -5.063  13.791  23.378  0.00  0.00    +0.000 A 
ATOM     25  C   UNL     1      -5.600  15.079  23.419  0.00  0.00    +0.000 A 
ATOM     26  C   UNL     1      -6.918  15.231  23.823  0.00  0.00    +0.000 A 
ATOM     27  N   UNL     1      -7.714  14.207  24.199  0.00  0.00    +0.000 NA
ATOM     28  C   UNL     1      -7.167  12.973  24.172  0.00  0.00    +0.000 A 
ATOM     29  C   UNL     1      -5.861  12.718  23.780  0.00  0.00    +0.000 A 
ENDBRANCH   6  24
TORSDOF 3
ENDMDL
MODEL 2
REMARK VINA RESULT:      -7.2      5.312      9.495
REMARK  Name = 
REMARK  5 active torsions:
REMARK  status: ('A' for Active; 'I' for Inactive)
REMARK    1  A    between atoms: C_1  and  O_2
REMARK    2  A    between atoms: O_2  and  C_3
REMARK    3  A    between atoms: C_6  and  C_7
REMARK    4  A    between atoms: C_12  and  C_13
REMARK    5  A    between atoms: N_22  and  C_23
REMARK                            x       y       z     vdW  Elec       q    Type
REMARK                         _______ _______ _______ _____ _____    ______ ____
ROOT
ATOM      1  C   UNL     1       6.418   5.315  15.975  0.00  0.00    +0.000 C 
ATOM      2  C   UNL     1       5.003   5.923  16.216  0.00  0.00    +0.000 C 
ATOM      3  N   UNL     1       4.973   6.501  17.567  0.00  0.00    +0.000 N 
ATOM      4  C   UNL     1       3.929   6.296  18.445  0.00  0.00    +0.000 A 
ATOM      5  N   UNL     1       3.265   7.310  18.925  0.00  0.00    +0.000 NA
ATOM      6  C   UNL     1       2.222   7.060  19.782  0.00  0.00    +0.000 A 
ATOM      7  C   UNL     1       1.818   5.843  20.140  0.00  0.00    +0.000 A 
ATOM      8  C   UNL     1       2.567   4.689  19.638  0.00  0.00    +0.000 A 
ATOM      9  O   UNL     1       2.227   3.566  19.981  0.00  0.00    +0.000 OA
ATOM     10  N   UNL     1       3.639   4.986  18.820  0.00  0.00    +0.000 N 
ATOM     11  C   UNL     1       4.527   3.882  18.493  0.00  0.00    +0.000 C 
ATOM     12  C   UNL     1       5.942   7.588  17.716  0.00  0.00    +0.000 C 
ATOM     13  C   UNL     1       7.356   7.000  17.455  0.00  0.00    +0.000 C 
ATOM     14  N   UNL     1       7.490   6.328  16.140  0.00  0.00    +0.000 NA
ATOM     15  H   UNL     1       8.390   5.851  16.095  0.00  0.00    +0.000 HD
ENDROOT
BRANCH   1  19
ATOM     16  C   UNL     1       6.705   3.388  12.107  0.00  0.00    +0.000 A 
ATOM     17  C   UNL     1       5.757   2.966  13.038  0.00  0.00    +0.000 A 
ATOM     18  C   UNL     1       5.656   3.589  14.282  0.00  0.00    +0.000 A 
ATOM     19  C   UNL     1       6.521   4.632  14.626  0.00  0.00    +0.000 A 
ATOM     20  C   UNL     1       7.493   5.036  13.696  0.00  0.00    +0.000 A 
ATOM     21  C   UNL     1       7.581   4.421  12.443  0.00  0.00    +0.000 A 
BRANCH  16  23
ATOM     22  C   UNL     1       6.465   1.318  10.992  0.00  0.00    +0.000 C 
ATOM     23  O   UNL     1       6.680   2.724  10.912  0.00  0.00    +0.000 OA
ENDBRANCH  16  23
ENDBRANCH   1  19
BRANCH   6  24
ATOM     24  C   UNL     1       1.483   8.209  20.339  0.00  0.00    +0.000 A 
ATOM     25  C   UNL     1       1.133   8.242  21.690  0.00  0.00    +0.000 A 
ATOM     26  C   UNL     1       0.472   9.361  22.173  0.00  0.00    +0.000 A 
ATOM     27  N   UNL     1       0.128  10.421  21.410  0.00  0.00    +0.000 NA
ATOM     28  C   UNL     1       0.458  10.358  20.102  0.00  0.00    +0.000 A 
ATOM     29  C   UNL     1       1.121   9.285  19.526  0.00  0.00    +0.000 A 
ENDBRANCH   6  24
TORSDOF 3
ENDMDL
MODEL 3
REMARK VINA RESULT:      -7.2      5.255      9.444
REMARK  Name = 
REMARK  5 active torsions:
REMARK  status: ('A' for Active; 'I' for Inactive)
REMARK    1  A    between atoms: C_1  and  O_2
REMARK    2  A    between atoms: O_2  and  C_3
REMARK    3  A    between atoms: C_6  and  C_7
REMARK    4  A    between atoms: C_12  and  C_13
REMARK    5  A    between atoms: N_22  and  C_23
REMARK                            x       y       z     vdW  Elec       q    Type
REMARK                         _______ _______ _______ _____ _____    ______ ____
ROOT
ATOM      1  C   UNL     1       6.376   5.358  15.983  0.00  0.00    +0.000 C 
ATOM      2  C   UNL     1       4.966   5.978  16.223  0.00  0.00    +0.000 C 
ATOM      3  N   UNL     1       4.935   6.546  17.578  0.00  0.00    +0.000 N 
ATOM      4  C   UNL     1       3.886   6.345  18.449  0.00  0.00    +0.000 A 
ATOM      5  N   UNL     1       3.229   7.361  18.933  0.00  0.00    +0.000 NA
ATOM      6  C   UNL     1       2.180   7.116  19.784  0.00  0.00    +0.000 A 
ATOM      7  C   UNL     1       1.762   5.900  20.132  0.00  0.00    +0.000 A 
ATOM      8  C   UNL     1       2.503   4.742  19.625  0.00  0.00    +0.000 A 
ATOM      9  O   UNL     1       2.151   3.620  19.958  0.00  0.00    +0.000 OA
ATOM     10  N   UNL     1       3.581   5.035  18.813  0.00  0.00    +0.000 N 
ATOM     11  C   UNL     1       4.460   3.925  18.483  0.00  0.00    +0.000 C 
ATOM     12  C   UNL     1       5.914   7.622  17.739  0.00  0.00    +0.000 C 
ATOM     13  C   UNL     1       7.323   7.023  17.480  0.00  0.00    +0.000 C 
ATOM     14  N   UNL     1       7.456   6.359  16.161  0.00  0.00    +0.000 NA
ATOM     15  H   UNL     1       8.353   5.875  16.116  0.00  0.00    +0.000 HD
ENDROOT
BRANCH   1  19
ATOM     16  C   UNL     1       6.676   3.407  12.129  0.00  0.00    +0.000 A 
ATOM     17  C   UNL     1       7.589   4.396  12.493  0.00  0.00    +0.000 A 
ATOM     18  C   UNL     1       7.500   5.021  13.737  0.00  0.00    +0.000 A 
ATOM     19  C   UNL     1       6.479   4.684  14.630  0.00  0.00    +0.000 A 
ATOM     20  C   UNL     1       5.545   3.707  14.248  0.00  0.00    +0.000 A 
ATOM     21  C   UNL     1       5.647   3.069  13.007  0.00  0.00    +0.000 A 
BRANCH  16  23
ATOM     22  C   UNL     1       6.815   1.422  10.852  0.00  0.00    +0.000 C 
ATOM     23  O   UNL     1       6.891   2.844  10.902  0.00  0.00    +0.000 OA
ENDBRANCH  16  23
ENDBRANCH   1  19
BRANCH   6  24
ATOM     24  C   UNL     1       1.449   8.268  20.346  0.00  0.00    +0.000 A 
ATOM     25  C   UNL     1       1.077   9.339  19.532  0.00  0.00    +0.000 A 
ATOM     26  C   UNL     1       0.359  10.380  20.101  0.00  0.00    +0.000 A 
ATOM     27  N   UNL     1       0.010  10.432  21.405  0.00  0.00    +0.000 NA
ATOM     28  C   UNL     1       0.399   9.395  22.177  0.00  0.00    +0.000 A 
ATOM     29  C   UNL     1       1.116   8.307  21.702  0.00  0.00    +0.000 A 
ENDBRANCH   6  24
TORSDOF 3
ENDMDL
MODEL 4
REMARK VINA RESULT:      -7.1      0.585      1.059
REMARK  Name = 
REMARK  5 active torsions:
REMARK  status: ('A' for Active; 'I' for Inactive)
REMARK    1  A    between atoms: C_1  and  O_2
REMARK    2  A    between atoms: O_2  and  C_3
REMARK    3  A    between atoms: C_6  and  C_7
REMARK    4  A    between atoms: C_12  and  C_13
REMARK    5  A    between atoms: N_22  and  C_23
REMARK                            x       y       z     vdW  Elec       q    Type
REMARK                         _______ _______ _______ _____ _____    ______ ____
ROOT
ATOM      1  C   UNL     1      -0.023  10.575  18.916  0.00  0.00    +0.000 C 
ATOM      2  C   UNL     1      -0.931  10.649  20.181  0.00  0.00    +0.000 C 
ATOM      3  N   UNL     1      -1.781  11.843  20.071  0.00  0.00    +0.000 N 
ATOM      4  C   UNL     1      -1.976  12.721  21.116  0.00  0.00    +0.000 A 
ATOM      5  N   UNL     1      -3.178  12.957  21.561  0.00  0.00    +0.000 NA
ATOM      6  C   UNL     1      -3.326  13.824  22.614  0.00  0.00    +0.000 A 
ATOM      7  C   UNL     1      -2.316  14.426  23.240  0.00  0.00    +0.000 A 
ATOM      8  C   UNL     1      -0.958  14.201  22.739  0.00  0.00    +0.000 A 
ATOM      9  O   UNL     1      -0.023  14.769  23.284  0.00  0.00    +0.000 OA
ATOM     10  N   UNL     1      -0.858  13.362  21.647  0.00  0.00    +0.000 N 
ATOM     11  C   UNL     1       0.441  13.300  20.997  0.00  0.00    +0.000 C 
ATOM     12  C   UNL     1      -2.665  11.776  18.906  0.00  0.00    +0.000 C 
ATOM     13  C   UNL     1      -1.772  11.680  17.639  0.00  0.00    +0.000 C 
ATOM     14  N   UNL     1      -0.820  10.543  17.665  0.00  0.00    +0.000 NA
ATOM     15  H   UNL     1      -0.180  10.621  16.875  0.00  0.00    +0.000 HD
ENDROOT
BRANCH   1  19
ATOM     16  C   UNL     1       2.714   7.223  19.064  0.00  0.00    +0.000 A 
ATOM     17  C   UNL     1       2.000   7.601  20.200  0.00  0.00    +0.000 A 
ATOM     18  C   UNL     1       1.111   8.676  20.154  0.00  0.00    +0.000 A 
ATOM     19  C   UNL     1       0.941   9.408  18.974  0.00  0.00    +0.000 A 
ATOM     20  C   UNL     1       1.684   9.040  17.841  0.00  0.00    +0.000 A 
ATOM     21  C   UNL     1       2.561   7.951  17.885  0.00  0.00    +0.000 A 
BRANCH  16  23
ATOM     22  C   UNL     1       2.904   4.983  19.795  0.00  0.00    +0.000 C 
ATOM     23  O   UNL     1       3.524   6.133  19.227  0.00  0.00    +0.000 OA
ENDBRANCH  16  23
ENDBRANCH   1  19
BRANCH   6  24
ATOM     24  C   UNL     1      -4.689  14.105  23.105  0.00  0.00    +0.000 A 
ATOM     25  C   UNL     1      -5.580  13.061  23.364  0.00  0.00    +0.000 A 
ATOM     26  C   UNL     1      -6.836  13.376  23.859  0.00  0.00    +0.000 A 
ATOM     27  N   UNL     1      -7.261  14.636  24.092  0.00  0.00    +0.000 NA
ATOM     28  C   UNL     1      -6.390  15.629  23.814  0.00  0.00    +0.000 A 
ATOM     29  C   UNL     1      -5.112  15.417  23.320  0.00  0.00    +0.000 A 
ENDBRANCH   6  24
TORSDOF 3
ENDMDL
MODEL 5
REMARK VINA RESULT:      -7.1      0.335      1.305
REMARK  Name = 
REMARK  5 active torsions:
REMARK  status: ('A' for Active; 'I' for Inactive)
REMARK    1  A    between atoms: C_1  and  O_2
REMARK    2  A    between atoms: O_2  and  C_3
REMARK    3  A    between atoms: C_6  and  C_7
REMARK    4  A    between atoms: C_12  and  C_13
REMARK    5  A    between atoms: N_22  and  C_23
REMARK                            x       y       z     vdW  Elec       q    Type
REMARK                         _______ _______ _______ _____ _____    ______ ____
ROOT
ATOM      1  C   UNL     1      -0.123  10.643  19.060  0.00  0.00    +0.000 C 
ATOM      2  C   UNL     1      -1.144  10.598  20.237  0.00  0.00    +0.000 C 
ATOM      3  N   UNL     1      -1.973  11.811  20.177  0.00  0.00    +0.000 N 
ATOM      4  C   UNL     1      -2.257  12.577  21.287  0.00  0.00    +0.000 A 
ATOM      5  N   UNL     1      -3.494  12.784  21.643  0.00  0.00    +0.000 NA
ATOM      6  C   UNL     1      -3.733  13.539  22.764  0.00  0.00    +0.000 A 
ATOM      7  C   UNL     1      -2.782  14.056  23.539  0.00  0.00    +0.000 A 
ATOM      8  C   UNL     1      -1.385  13.863  23.143  0.00  0.00    +0.000 A 
ATOM      9  O   UNL     1      -0.501  14.357  23.828  0.00  0.00    +0.000 OA
ATOM     10  N   UNL     1      -1.190  13.141  21.982  0.00  0.00    +0.000 N 
ATOM     11  C   UNL     1       0.163  13.127  21.451  0.00  0.00    +0.000 C 
ATOM     12  C   UNL     1      -2.746  11.880  18.936  0.00  0.00    +0.000 C 
ATOM     13  C   UNL     1      -1.740  11.902  17.753  0.00  0.00    +0.000 C 
ATOM     14  N   UNL     1      -0.802  10.754  17.745  0.00  0.00    +0.000 NA
ATOM     15  H   UNL     1      -0.091  10.904  17.029  0.00  0.00    +0.000 HD
ENDROOT
BRANCH   1  19
ATOM     16  C   UNL     1       2.601   7.277  19.142  0.00  0.00    +0.000 A 
ATOM     17  C   UNL     1       2.410   8.002  17.967  0.00  0.00    +0.000 A 
ATOM     18  C   UNL     1       1.539   9.092  17.939  0.00  0.00    +0.000 A 
ATOM     19  C   UNL     1       0.824   9.460  19.082  0.00  0.00    +0.000 A 
ATOM     20  C   UNL     1       0.998   8.710  20.256  0.00  0.00    +0.000 A 
ATOM     21  C   UNL     1       1.885   7.628  20.287  0.00  0.00    +0.000 A 
BRANCH  16  23
ATOM     22  C   UNL     1       2.964   4.942  19.117  0.00  0.00    +0.000 C 
ATOM     23  O   UNL     1       3.507   6.257  19.052  0.00  0.00    +0.000 OA
ENDBRANCH  16  23
ENDBRANCH   1  19
BRANCH   6  24
ATOM     24  C   UNL     1      -5.134  13.788  23.156  0.00  0.00    +0.000 A 
ATOM     25  C   UNL     1      -5.872  12.806  23.820  0.00  0.00    +0.000 A 
ATOM     26  C   UNL     1      -7.172  13.103  24.200  0.00  0.00    +0.000 A 
ATOM     27  N   UNL     1      -7.779  14.283  23.950  0.00  0.00    +0.000 NA
ATOM     28  C   UNL     1      -7.054  15.209  23.288  0.00  0.00    +0.000 A 
ATOM     29  C   UNL     1      -5.747  15.009  22.870  0.00  0.00    +0.000 A 
ENDBRANCH   6  24
TORSDOF 3
ENDMDL
MODEL 6
REMARK VINA RESULT:      -7.1      5.610     12.486
REMARK  Name = 
REMARK  5 active torsions:
REMARK  status: ('A' for Active; 'I' for Inactive)
REMARK    1  A    between atoms: C_1  and  O_2
REMARK    2  A    between atoms: O_2  and  C_3
REMARK    3  A    between atoms: C_6  and  C_7
REMARK    4  A    between atoms: C_12  and  C_13
REMARK    5  A    between atoms: N_22  and  C_23
REMARK                            x       y       z     vdW  Elec       q    Type
REMARK                         _______ _______ _______ _____ _____    ______ ____
ROOT
ATOM      1  C   UNL     1       2.611   6.154  19.325  0.00  0.00    +0.000 C 
ATOM      2  C   UNL     1       2.886   6.253  17.794  0.00  0.00    +0.000 C 
ATOM      3  N   UNL     1       3.608   5.043  17.375  0.00  0.00    +0.000 N 
ATOM      4  C   UNL     1       4.716   5.080  16.556  0.00  0.00    +0.000 A 
ATOM      5  N   UNL     1       4.717   4.437  15.422  0.00  0.00    +0.000 NA
ATOM      6  C   UNL     1       5.835   4.514  14.629  0.00  0.00    +0.000 A 
ATOM      7  C   UNL     1       6.918   5.231  14.923  0.00  0.00    +0.000 A 
ATOM      8  C   UNL     1       6.953   5.938  16.205  0.00  0.00    +0.000 A 
ATOM      9  O   UNL     1       7.952   6.576  16.503  0.00  0.00    +0.000 OA
ATOM     10  N   UNL     1       5.830   5.793  16.995  0.00  0.00    +0.000 N 
ATOM     11  C   UNL     1       5.929   6.296  18.356  0.00  0.00    +0.000 C 
ATOM     12  C   UNL     1       2.815   3.833  17.595  0.00  0.00    +0.000 C 
ATOM     13  C   UNL     1       2.514   3.734  19.116  0.00  0.00    +0.000 C 
ATOM     14  N   UNL     1       1.841   4.933  19.670  0.00  0.00    +0.000 NA
ATOM     15  H   UNL     1       1.799   4.857  20.686  0.00  0.00    +0.000 HD
ENDROOT
BRANCH   1  19
ATOM     16  C   UNL     1       0.681   9.716  20.856  0.00  0.00    +0.000 A 
ATOM     17  C   UNL     1       0.826   8.589  21.664  0.00  0.00    +0.000 A 
ATOM     18  C   UNL     1       1.454   7.442  21.176  0.00  0.00    +0.000 A 
ATOM     19  C   UNL     1       1.927   7.395  19.861  0.00  0.00    +0.000 A 
ATOM     20  C   UNL     1       1.754   8.523  19.043  0.00  0.00    +0.000 A 
ATOM     21  C   UNL     1       1.139   9.678  19.540  0.00  0.00    +0.000 A 
BRANCH  16  23
ATOM     22  C   UNL     1      -0.560  10.517  22.701  0.00  0.00    +0.000 C 
ATOM     23  O   UNL     1       0.084  10.787  21.460  0.00  0.00    +0.000 OA
ENDBRANCH  16  23
ENDBRANCH   1  19
BRANCH   6  24
ATOM     24  C   UNL     1       5.842   3.770  13.355  0.00  0.00    +0.000 A 
ATOM     25  C   UNL     1       7.046   3.375  12.769  0.00  0.00    +0.000 A 
ATOM     26  C   UNL     1       6.998   2.645  11.591  0.00  0.00    +0.000 A 
ATOM     27  N   UNL     1       5.853   2.305  10.961  0.00  0.00    +0.000 NA
ATOM     28  C   UNL     1       4.702   2.715  11.535  0.00  0.00    +0.000 A 
ATOM     29  C   UNL     1       4.646   3.446  12.712  0.00  0.00    +0.000 A 
ENDBRANCH   6  24
TORSDOF 3
ENDMDL
MODEL 7
REMARK VINA RESULT:      -7.1      2.338      2.781
REMARK  Name = 
REMARK  5 active torsions:
REMARK  status: ('A' for Active; 'I' for Inactive)
REMARK    1  A    between atoms: C_1  and  O_2
REMARK    2  A    between atoms: O_2  and  C_3
REMARK    3  A    between atoms: C_6  and  C_7
REMARK    4  A    between atoms: C_12  and  C_13
REMARK    5  A    between atoms: N_22  and  C_23
REMARK                            x       y       z     vdW  Elec       q    Type
REMARK                         _______ _______ _______ _____ _____    ______ ____
ROOT
ATOM      1  C   UNL     1       0.764  10.601  19.482  0.00  0.00    +0.000 C 
ATOM      2  C   UNL     1      -0.794  10.574  19.444  0.00  0.00    +0.000 C 
ATOM      3  N   UNL     1      -1.284  11.955  19.564  0.00  0.00    +0.000 N 
ATOM      4  C   UNL     1      -2.313  12.312  20.408  0.00  0.00    +0.000 A 
ATOM      5  N   UNL     1      -3.385  12.882  19.933  0.00  0.00    +0.000 NA
ATOM      6  C   UNL     1      -4.394  13.206  20.806  0.00  0.00    +0.000 A 
ATOM      7  C   UNL     1      -4.368  12.951  22.113  0.00  0.00    +0.000 A 
ATOM      8  C   UNL     1      -3.163  12.339  22.675  0.00  0.00    +0.000 A 
ATOM      9  O   UNL     1      -3.111  12.125  23.878  0.00  0.00    +0.000 OA
ATOM     10  N   UNL     1      -2.152  12.075  21.772  0.00  0.00    +0.000 N 
ATOM     11  C   UNL     1      -0.871  11.679  22.334  0.00  0.00    +0.000 C 
ATOM     12  C   UNL     1      -0.838  12.789  18.447  0.00  0.00    +0.000 C 
ATOM     13  C   UNL     1       0.715  12.806  18.459  0.00  0.00    +0.000 C 
ATOM     14  N   UNL     1       1.327  11.456  18.408  0.00  0.00    +0.000 NA
ATOM     15  H   UNL     1       2.333  11.536  18.556  0.00  0.00    +0.000 HD
ENDROOT
BRANCH   1  19
ATOM     16  C   UNL     1       2.484   6.629  19.361  0.00  0.00    +0.000 A 
ATOM     17  C   UNL     1       2.493   7.437  18.225  0.00  0.00    +0.000 A 
ATOM     18  C   UNL     1       1.947   8.720  18.262  0.00  0.00    +0.000 A 
ATOM     19  C   UNL     1       1.359   9.208  19.433  0.00  0.00    +0.000 A 
ATOM     20  C   UNL     1       1.327   8.380  20.567  0.00  0.00    +0.000 A 
ATOM     21  C   UNL     1       1.892   7.100  20.532  0.00  0.00    +0.000 A 
BRANCH  16  23
ATOM     22  C   UNL     1       4.507   5.419  19.175  0.00  0.00    +0.000 C 
ATOM     23  O   UNL     1       3.083   5.409  19.208  0.00  0.00    +0.000 OA
ENDBRANCH  16  23
ENDBRANCH   1  19
BRANCH   6  24
ATOM     24  C   UNL     1      -5.598  13.868  20.270  0.00  0.00    +0.000 A 
ATOM     25  C   UNL     1      -6.571  13.132  19.590  0.00  0.00    +0.000 A 
ATOM     26  C   UNL     1      -7.703  13.794  19.138  0.00  0.00    +0.000 A 
ATOM     27  N   UNL     1      -7.916  15.118  19.300  0.00  0.00    +0.000 NA
ATOM     28  C   UNL     1      -6.953  15.812  19.941  0.00  0.00    +0.000 A 
ATOM     29  C   UNL     1      -5.789  15.241  20.432  0.00  0.00    +0.000 A 
ENDBRANCH   6  24
TORSDOF 3
ENDMDL
MODEL 8
REMARK VINA RESULT:      -7.0      2.254      2.485
REMARK  Name = 
REMARK  5 active torsions:
REMARK  status: ('A' for Active; 'I' for Inactive)
REMARK    1  A    between atoms: C_1  and  O_2
REMARK    2  A    between atoms: O_2  and  C_3
REMARK    3  A    between atoms: C_6  and  C_7
REMARK    4  A    between atoms: C_12  and  C_13
REMARK    5  A    between atoms: N_22  and  C_23
REMARK                            x       y       z     vdW  Elec       q    Type
REMARK                         _______ _______ _______ _____ _____    ______ ____
ROOT
ATOM      1  C   UNL     1       0.819  10.672  19.405  0.00  0.00    +0.000 C 
ATOM      2  C   UNL     1      -0.739  10.640  19.376  0.00  0.00    +0.000 C 
ATOM      3  N   UNL     1      -1.232  12.014  19.550  0.00  0.00    +0.000 N 
ATOM      4  C   UNL     1      -2.258  12.336  20.412  0.00  0.00    +0.000 A 
ATOM      5  N   UNL     1      -3.335  12.919  19.965  0.00  0.00    +0.000 NA
ATOM      6  C   UNL     1      -4.340  13.207  20.855  0.00  0.00    +0.000 A 
ATOM      7  C   UNL     1      -4.306  12.903  22.151  0.00  0.00    +0.000 A 
ATOM      8  C   UNL     1      -3.095  12.275  22.683  0.00  0.00    +0.000 A 
ATOM      9  O   UNL     1      -3.036  12.017  23.877  0.00  0.00    +0.000 OA
ATOM     10  N   UNL     1      -2.088  12.049  21.765  0.00  0.00    +0.000 N 
ATOM     11  C   UNL     1      -0.803  11.637  22.305  0.00  0.00    +0.000 C 
ATOM     12  C   UNL     1      -0.796  12.891  18.462  0.00  0.00    +0.000 C 
ATOM     13  C   UNL     1       0.757  12.913  18.466  0.00  0.00    +0.000 C 
ATOM     14  N   UNL     1       1.373  11.568  18.361  0.00  0.00    +0.000 NA
ATOM     15  H   UNL     1       2.380  11.646  18.507  0.00  0.00    +0.000 HD
ENDROOT
BRANCH   1  19
ATOM     16  C   UNL     1       2.512   6.698  19.089  0.00  0.00    +0.000 A 
ATOM     17  C   UNL     1       1.947   7.131  20.288  0.00  0.00    +0.000 A 
ATOM     18  C   UNL     1       1.394   8.408  20.391  0.00  0.00    +0.000 A 
ATOM     19  C   UNL     1       1.419   9.284  19.301  0.00  0.00    +0.000 A 
ATOM     20  C   UNL     1       2.013   8.853  18.104  0.00  0.00    +0.000 A 
ATOM     21  C   UNL     1       2.551   7.566  17.998  0.00  0.00    +0.000 A 
BRANCH  16  23
ATOM     22  C   UNL     1       3.177   4.814  17.826  0.00  0.00    +0.000 C 
ATOM     23  O   UNL     1       2.986   5.415  19.102  0.00  0.00    +0.000 OA
ENDBRANCH  16  23
ENDBRANCH   1  19
BRANCH   6  24
ATOM     24  C   UNL     1      -5.549  13.884  20.350  0.00  0.00    +0.000 A 
ATOM     25  C   UNL     1      -6.112  14.952  21.052  0.00  0.00    +0.000 A 
ATOM     26  C   UNL     1      -7.227  15.578  20.517  0.00  0.00    +0.000 A 
ATOM     27  N   UNL     1      -7.817  15.208  19.360  0.00  0.00    +0.000 NA
ATOM     28  C   UNL     1      -7.269  14.160  18.710  0.00  0.00    +0.000 A 
ATOM     29  C   UNL     1      -6.154  13.470  19.161  0.00  0.00    +0.000 A 
ENDBRANCH   6  24
TORSDOF 3
ENDMDL
MODEL 9
REMARK VINA RESULT:      -6.8      0.986      1.084
REMARK  Name = 
REMARK  5 active torsions:
REMARK  status: ('A' for Active; 'I' for Inactive)
REMARK    1  A    between atoms: C_1  and  O_2
REMARK    2  A    between atoms: O_2  and  C_3
REMARK    3  A    between atoms: C_6  and  C_7
REMARK    4  A    between atoms: C_12  and  C_13
REMARK    5  A    between atoms: N_22  and  C_23
REMARK                            x       y       z     vdW  Elec       q    Type
REMARK                         _______ _______ _______ _____ _____    ______ ____
ROOT
ATOM      1  C   UNL     1       0.348  10.228  18.785  0.00  0.00    +0.000 C 
ATOM      2  C   UNL     1      -0.480  10.400  20.095  0.00  0.00    +0.000 C 
ATOM      3  N   UNL     1      -1.311  11.604  19.961  0.00  0.00    +0.000 N 
ATOM      4  C   UNL     1      -1.424  12.549  20.959  0.00  0.00    +0.000 A 
ATOM      5  N   UNL     1      -2.592  12.839  21.459  0.00  0.00    +0.000 NA
ATOM      6  C   UNL     1      -2.658  13.773  22.463  0.00  0.00    +0.000 A 
ATOM      7  C   UNL     1      -1.600  14.389  22.988  0.00  0.00    +0.000 A 
ATOM      8  C   UNL     1      -0.281  14.102  22.422  0.00  0.00    +0.000 A 
ATOM      9  O   UNL     1       0.697  14.682  22.872  0.00  0.00    +0.000 OA
ATOM     10  N   UNL     1      -0.264  13.196  21.381  0.00  0.00    +0.000 N 
ATOM     11  C   UNL     1       0.991  13.064  20.659  0.00  0.00    +0.000 C 
ATOM     12  C   UNL     1      -2.266  11.487  18.858  0.00  0.00    +0.000 C 
ATOM     13  C   UNL     1      -1.455  11.291  17.548  0.00  0.00    +0.000 C 
ATOM     14  N   UNL     1      -0.525  10.137  17.588  0.00  0.00    +0.000 NA
ATOM     15  H   UNL     1       0.067  10.151  16.758  0.00  0.00    +0.000 HD
ENDROOT
BRANCH   1  19
ATOM     16  C   UNL     1       3.027   6.831  18.975  0.00  0.00    +0.000 A 
ATOM     17  C   UNL     1       2.213   7.149  20.061  0.00  0.00    +0.000 A 
ATOM     18  C   UNL     1       1.343   8.238  20.000  0.00  0.00    +0.000 A 
ATOM     19  C   UNL     1       1.290   9.044  18.859  0.00  0.00    +0.000 A 
ATOM     20  C   UNL     1       2.132   8.735  17.778  0.00  0.00    +0.000 A 
ATOM     21  C   UNL     1       2.991   7.632  17.834  0.00  0.00    +0.000 A 
BRANCH  16  23
ATOM     22  C   UNL     1       3.230   4.671  19.913  0.00  0.00    +0.000 C 
ATOM     23  O   UNL     1       3.807   5.720  19.142  0.00  0.00    +0.000 OA
ENDBRANCH  16  23
ENDBRANCH   1  19
BRANCH   6  24
ATOM     24  C   UNL     1      -3.983  14.115  23.016  0.00  0.00    +0.000 A 
ATOM     25  C   UNL     1      -4.311  15.440  23.308  0.00  0.00    +0.000 A 
ATOM     26  C   UNL     1      -5.582  15.714  23.791  0.00  0.00    +0.000 A 
ATOM     27  N   UNL     1      -6.522  14.771  24.014  0.00  0.00    +0.000 NA
ATOM     28  C   UNL     1      -6.175  13.494  23.745  0.00  0.00    +0.000 A 
ATOM     29  C   UNL     1      -4.933  13.120  23.257  0.00  0.00    +0.000 A 
ENDBRANCH   6  24
TORSDOF 3
ENDMDL
