MODEL 1
REMARK VINA RESULT:      -7.6      0.000      0.000
REMARK  Name = 
REMARK  4 active torsions:
REMARK  status: ('A' for Active; 'I' for Inactive)
REMARK    1  A    between atoms: C_1  and  O_2
REMARK    2  A    between atoms: O_2  and  C_3
REMARK    3  A    between atoms: C_12  and  C_13
REMARK    4  A    between atoms: C_18  and  C_19
REMARK                            x       y       z     vdW  Elec       q    Type
REMARK                         _______ _______ _______ _____ _____    ______ ____
ROOT
ATOM      1  C   UNL     1       5.539   6.097  16.659  0.00  0.00    +0.000 C 
ATOM      2  C   UNL     1       6.020   5.854  15.214  0.00  0.00    +0.000 C 
ATOM      3  C   UNL     1       5.522   4.777  14.565  0.00  0.00    +0.000 C 
ATOM      4  C   UNL     1       5.669   3.451  15.276  0.00  0.00    +0.000 C 
ATOM      5  C   UNL     1       5.119   3.561  16.711  0.00  0.00    +0.000 C 
ATOM      6  O   UNL     1       3.681   3.665  16.607  0.00  0.00    +0.000 OA
ATOM      7  C   UNL     1       3.089   3.636  17.839  0.00  0.00    +0.000 A 
ATOM      8  C   UNL     1       1.792   3.137  17.906  0.00  0.00    +0.000 A 
ATOM      9  C   UNL     1       1.212   2.885  19.147  0.00  0.00    +0.000 A 
ATOM     10  C   UNL     1       1.926   3.126  20.329  0.00  0.00    +0.000 A 
ATOM     11  C   UNL     1       1.367   2.659  21.645  0.00  0.00    +0.000 C 
ATOM     12  C   UNL     1       3.190   3.734  20.251  0.00  0.00    +0.000 A 
ATOM     13  C   UNL     1       3.744   4.037  18.999  0.00  0.00    +0.000 A 
ATOM     14  C   UNL     1       5.037   4.761  18.860  0.00  0.00    +0.000 C 
ATOM     15  O   UNL     1       5.545   5.273  19.854  0.00  0.00    +0.000 OA
ATOM     16  C   UNL     1       5.697   4.769  17.478  0.00  0.00    +0.000 C 
ENDROOT
BRANCH   1  18
ATOM     17  C   UNL     1       3.953   7.646  17.574  0.00  0.00    +0.000 C 
ATOM     18  O   UNL     1       4.193   6.597  16.626  0.00  0.00    +0.000 OA
ENDBRANCH   1  18
BRANCH  16  19
ATOM     19  C   UNL     1       7.147   4.536  17.697  0.00  0.00    +0.000 C 
ATOM     20  N   UNL     1       8.278   4.297  17.817  0.00  0.00    +0.000 NA
ENDBRANCH  16  19
TORSDOF 2
ENDMDL
MODEL 2
REMARK VINA RESULT:      -7.0      2.460      5.507
REMARK  Name = 
REMARK  4 active torsions:
REMARK  status: ('A' for Active; 'I' for Inactive)
REMARK    1  A    between atoms: C_1  and  O_2
REMARK    2  A    between atoms: O_2  and  C_3
REMARK    3  A    between atoms: C_12  and  C_13
REMARK    4  A    between atoms: C_18  and  C_19
REMARK                            x       y       z     vdW  Elec       q    Type
REMARK                         _______ _______ _______ _____ _____    ______ ____
ROOT
ATOM      1  C   UNL     1       1.678   4.732  19.670  0.00  0.00    +0.000 C 
ATOM      2  C   UNL     1       1.478   4.254  21.124  0.00  0.00    +0.000 C 
ATOM      3  C   UNL     1       2.532   3.669  21.737  0.00  0.00    +0.000 C 
ATOM      4  C   UNL     1       3.160   2.505  21.004  0.00  0.00    +0.000 C 
ATOM      5  C   UNL     1       3.494   2.915  19.557  0.00  0.00    +0.000 C 
ATOM      6  O   UNL     1       4.605   3.837  19.622  0.00  0.00    +0.000 OA
ATOM      7  C   UNL     1       5.061   4.158  18.374  0.00  0.00    +0.000 A 
ATOM      8  C   UNL     1       6.403   4.507  18.261  0.00  0.00    +0.000 A 
ATOM      9  C   UNL     1       6.979   4.640  17.000  0.00  0.00    +0.000 A 
ATOM     10  C   UNL     1       6.218   4.420  15.843  0.00  0.00    +0.000 A 
ATOM     11  C   UNL     1       6.899   4.366  14.503  0.00  0.00    +0.000 C 
ATOM     12  C   UNL     1       4.839   4.178  15.969  0.00  0.00    +0.000 A 
ATOM     13  C   UNL     1       4.256   4.101  17.241  0.00  0.00    +0.000 A 
ATOM     14  C   UNL     1       2.789   3.937  17.431  0.00  0.00    +0.000 C 
ATOM     15  O   UNL     1       2.044   4.058  16.461  0.00  0.00    +0.000 OA
ATOM     16  C   UNL     1       2.295   3.560  18.830  0.00  0.00    +0.000 C 
ENDROOT
BRANCH   1  18
ATOM     17  C   UNL     1       1.824   7.050  20.268  0.00  0.00    +0.000 C 
ATOM     18  O   UNL     1       2.482   5.922  19.676  0.00  0.00    +0.000 OA
ENDBRANCH   1  18
BRANCH  16  19
ATOM     19  C   UNL     1       1.245   2.526  18.648  0.00  0.00    +0.000 C 
ATOM     20  N   UNL     1       0.374   1.774  18.485  0.00  0.00    +0.000 NA
ENDBRANCH  16  19
TORSDOF 2
ENDMDL
MODEL 3
REMARK VINA RESULT:      -6.5      2.919      4.377
REMARK  Name = 
REMARK  4 active torsions:
REMARK  status: ('A' for Active; 'I' for Inactive)
REMARK    1  A    between atoms: C_1  and  O_2
REMARK    2  A    between atoms: O_2  and  C_3
REMARK    3  A    between atoms: C_12  and  C_13
REMARK    4  A    between atoms: C_18  and  C_19
REMARK                            x       y       z     vdW  Elec       q    Type
REMARK                         _______ _______ _______ _____ _____    ______ ____
ROOT
ATOM      1  C   UNL     1       4.708   4.247  19.279  0.00  0.00    +0.000 C 
ATOM      2  C   UNL     1       5.144   3.495  18.005  0.00  0.00    +0.000 C 
ATOM      3  C   UNL     1       4.651   3.933  16.824  0.00  0.00    +0.000 C 
ATOM      4  C   UNL     1       3.146   4.049  16.739  0.00  0.00    +0.000 C 
ATOM      5  C   UNL     1       2.615   4.878  17.924  0.00  0.00    +0.000 C 
ATOM      6  O   UNL     1       3.015   6.248  17.697  0.00  0.00    +0.000 OA
ATOM      7  C   UNL     1       2.477   7.086  18.634  0.00  0.00    +0.000 A 
ATOM      8  C   UNL     1       2.256   8.405  18.250  0.00  0.00    +0.000 A 
ATOM      9  C   UNL     1       1.523   9.253  19.077  0.00  0.00    +0.000 A 
ATOM     10  C   UNL     1       1.002   8.786  20.292  0.00  0.00    +0.000 A 
ATOM     11  C   UNL     1       0.046   9.646  21.072  0.00  0.00    +0.000 C 
ATOM     12  C   UNL     1       1.326   7.487  20.719  0.00  0.00    +0.000 A 
ATOM     13  C   UNL     1       2.112   6.659  19.907  0.00  0.00    +0.000 A 
ATOM     14  C   UNL     1       2.561   5.310  20.348  0.00  0.00    +0.000 C 
ATOM     15  O   UNL     1       2.401   4.982  21.521  0.00  0.00    +0.000 OA
ATOM     16  C   UNL     1       3.145   4.376  19.284  0.00  0.00    +0.000 C 
ENDROOT
BRANCH   1  18
ATOM     17  C   UNL     1       6.817   5.388  19.270  0.00  0.00    +0.000 C 
ATOM     18  O   UNL     1       5.390   5.510  19.333  0.00  0.00    +0.000 OA
ENDBRANCH   1  18
BRANCH  16  19
ATOM     19  C   UNL     1       2.576   3.029  19.541  0.00  0.00    +0.000 C 
ATOM     20  N   UNL     1       2.074   1.992  19.693  0.00  0.00    +0.000 NA
ENDBRANCH  16  19
TORSDOF 2
ENDMDL
MODEL 4
REMARK VINA RESULT:      -6.5      1.701      2.929
REMARK  Name = 
REMARK  4 active torsions:
REMARK  status: ('A' for Active; 'I' for Inactive)
REMARK    1  A    between atoms: C_1  and  O_2
REMARK    2  A    between atoms: O_2  and  C_3
REMARK    3  A    between atoms: C_12  and  C_13
REMARK    4  A    between atoms: C_18  and  C_19
REMARK                            x       y       z     vdW  Elec       q    Type
REMARK                         _______ _______ _______ _____ _____    ______ ____
ROOT
ATOM      1  C   UNL     1       6.735   4.857  17.588  0.00  0.00    +0.000 C 
ATOM      2  C   UNL     1       7.388   6.153  17.065  0.00  0.00    +0.000 C 
ATOM      3  C   UNL     1       6.670   7.295  17.162  0.00  0.00    +0.000 C 
ATOM      4  C   UNL     1       5.285   7.258  16.555  0.00  0.00    +0.000 C 
ATOM      5  C   UNL     1       4.507   6.043  17.096  0.00  0.00    +0.000 C 
ATOM      6  O   UNL     1       4.198   6.320  18.481  0.00  0.00    +0.000 OA
ATOM      7  C   UNL     1       3.392   5.353  19.014  0.00  0.00    +0.000 A 
ATOM      8  C   UNL     1       2.551   5.734  20.054  0.00  0.00    +0.000 A 
ATOM      9  C   UNL     1       1.562   4.860  20.500  0.00  0.00    +0.000 A 
ATOM     10  C   UNL     1       1.404   3.601  19.904  0.00  0.00    +0.000 A 
ATOM     11  C   UNL     1       0.210   2.756  20.253  0.00  0.00    +0.000 C 
ATOM     12  C   UNL     1       2.330   3.185  18.932  0.00  0.00    +0.000 A 
ATOM     13  C   UNL     1       3.358   4.049  18.530  0.00  0.00    +0.000 A 
ATOM     14  C   UNL     1       4.417   3.629  17.572  0.00  0.00    +0.000 C 
ATOM     15  O   UNL     1       4.508   2.443  17.266  0.00  0.00    +0.000 OA
ATOM     16  C   UNL     1       5.300   4.725  16.969  0.00  0.00    +0.000 C 
ENDROOT
BRANCH   1  18
ATOM     17  C   UNL     1       7.885   5.544  19.577  0.00  0.00    +0.000 C 
ATOM     18  O   UNL     1       6.743   4.875  19.024  0.00  0.00    +0.000 OA
ENDBRANCH   1  18
BRANCH  16  19
ATOM     19  C   UNL     1       5.451   4.405  15.527  0.00  0.00    +0.000 C 
ATOM     20  N   UNL     1       5.645   4.172  14.405  0.00  0.00    +0.000 NA
ENDBRANCH  16  19
TORSDOF 2
ENDMDL
MODEL 5
REMARK VINA RESULT:      -6.4      5.949      8.056
REMARK  Name = 
REMARK  4 active torsions:
REMARK  status: ('A' for Active; 'I' for Inactive)
REMARK    1  A    between atoms: C_1  and  O_2
REMARK    2  A    between atoms: O_2  and  C_3
REMARK    3  A    between atoms: C_12  and  C_13
REMARK    4  A    between atoms: C_18  and  C_19
REMARK                            x       y       z     vdW  Elec       q    Type
REMARK                         _______ _______ _______ _____ _____    ______ ____
ROOT
ATOM      1  C   UNL     1      -1.446  11.051  19.550  0.00  0.00    +0.000 C 
ATOM      2  C   UNL     1      -1.482  12.512  19.056  0.00  0.00    +0.000 C 
ATOM      3  C   UNL     1      -0.399  12.971  18.390  0.00  0.00    +0.000 C 
ATOM      4  C   UNL     1       0.929  12.807  19.095  0.00  0.00    +0.000 C 
ATOM      5  C   UNL     1       1.109  11.344  19.544  0.00  0.00    +0.000 C 
ATOM      6  O   UNL     1       1.327  10.558  18.350  0.00  0.00    +0.000 OA
ATOM      7  C   UNL     1       1.628   9.260  18.657  0.00  0.00    +0.000 A 
ATOM      8  C   UNL     1       2.416   8.562  17.747  0.00  0.00    +0.000 A 
ATOM      9  C   UNL     1       2.931   7.315  18.093  0.00  0.00    +0.000 A 
ATOM     10  C   UNL     1       2.666   6.760  19.352  0.00  0.00    +0.000 A 
ATOM     11  C   UNL     1       3.392   5.516  19.786  0.00  0.00    +0.000 C 
ATOM     12  C   UNL     1       1.779   7.423  20.218  0.00  0.00    +0.000 A 
ATOM     13  C   UNL     1       1.219   8.651  19.839  0.00  0.00    +0.000 A 
ATOM     14  C   UNL     1       0.206   9.352  20.674  0.00  0.00    +0.000 C 
ATOM     15  O   UNL     1      -0.295   8.759  21.627  0.00  0.00    +0.000 OA
ATOM     16  C   UNL     1      -0.107  10.811  20.331  0.00  0.00    +0.000 C 
ENDROOT
BRANCH   1  18
ATOM     17  C   UNL     1      -2.930  10.255  17.843  0.00  0.00    +0.000 C 
ATOM     18  O   UNL     1      -1.623  10.173  18.427  0.00  0.00    +0.000 OA
ENDBRANCH   1  18
BRANCH  16  19
ATOM     19  C   UNL     1      -0.191  11.544  21.619  0.00  0.00    +0.000 C 
ATOM     20  N   UNL     1      -0.329  12.136  22.609  0.00  0.00    +0.000 NA
ENDBRANCH  16  19
TORSDOF 2
ENDMDL
MODEL 6
REMARK VINA RESULT:      -6.3      2.378      3.737
REMARK  Name = 
REMARK  4 active torsions:
REMARK  status: ('A' for Active; 'I' for Inactive)
REMARK    1  A    between atoms: C_1  and  O_2
REMARK    2  A    between atoms: O_2  and  C_3
REMARK    3  A    between atoms: C_12  and  C_13
REMARK    4  A    between atoms: C_18  and  C_19
REMARK                            x       y       z     vdW  Elec       q    Type
REMARK                         _______ _______ _______ _____ _____    ______ ____
ROOT
ATOM      1  C   UNL     1       5.900   4.558  18.578  0.00  0.00    +0.000 C 
ATOM      2  C   UNL     1       6.531   4.049  17.266  0.00  0.00    +0.000 C 
ATOM      3  C   UNL     1       6.048   4.552  16.107  0.00  0.00    +0.000 C 
ATOM      4  C   UNL     1       4.552   4.447  15.913  0.00  0.00    +0.000 C 
ATOM      5  C   UNL     1       3.822   5.027  17.140  0.00  0.00    +0.000 C 
ATOM      6  O   UNL     1       4.008   6.460  17.105  0.00  0.00    +0.000 OA
ATOM      7  C   UNL     1       3.284   7.080  18.085  0.00  0.00    +0.000 A 
ATOM      8  C   UNL     1       2.876   8.387  17.839  0.00  0.00    +0.000 A 
ATOM      9  C   UNL     1       1.966   9.001  18.696  0.00  0.00    +0.000 A 
ATOM     10  C   UNL     1       1.453   8.310  19.802  0.00  0.00    +0.000 A 
ATOM     11  C   UNL     1       0.323   8.907  20.596  0.00  0.00    +0.000 C 
ATOM     12  C   UNL     1       1.956   7.032  20.102  0.00  0.00    +0.000 A 
ATOM     13  C   UNL     1       2.915   6.444  19.266  0.00  0.00    +0.000 A 
ATOM     14  C   UNL     1       3.548   5.135  19.584  0.00  0.00    +0.000 C 
ATOM     15  O   UNL     1       3.370   4.640  20.694  0.00  0.00    +0.000 OA
ATOM     16  C   UNL     1       4.340   4.444  18.471  0.00  0.00    +0.000 C 
ENDROOT
BRANCH   1  18
ATOM     17  C   UNL     1       7.786   5.979  19.000  0.00  0.00    +0.000 C 
ATOM     18  O   UNL     1       6.364   5.893  18.833  0.00  0.00    +0.000 OA
ENDBRANCH   1  18
BRANCH  16  19
ATOM     19  C   UNL     1       3.982   3.004  18.524  0.00  0.00    +0.000 C 
ATOM     20  N   UNL     1       3.729   1.870  18.493  0.00  0.00    +0.000 NA
ENDBRANCH  16  19
TORSDOF 2
ENDMDL
MODEL 7
REMARK VINA RESULT:      -6.1      2.110      5.290
REMARK  Name = 
REMARK  4 active torsions:
REMARK  status: ('A' for Active; 'I' for Inactive)
REMARK    1  A    between atoms: C_1  and  O_2
REMARK    2  A    between atoms: O_2  and  C_3
REMARK    3  A    between atoms: C_12  and  C_13
REMARK    4  A    between atoms: C_18  and  C_19
REMARK                            x       y       z     vdW  Elec       q    Type
REMARK                         _______ _______ _______ _____ _____    ______ ____
ROOT
ATOM      1  C   UNL     1       3.057   3.151  20.180  0.00  0.00    +0.000 C 
ATOM      2  C   UNL     1       1.601   2.644  20.232  0.00  0.00    +0.000 C 
ATOM      3  C   UNL     1       0.949   2.501  19.056  0.00  0.00    +0.000 C 
ATOM      4  C   UNL     1       0.929   3.720  18.160  0.00  0.00    +0.000 C 
ATOM      5  C   UNL     1       2.362   4.249  17.961  0.00  0.00    +0.000 C 
ATOM      6  O   UNL     1       3.054   3.296  17.122  0.00  0.00    +0.000 OA
ATOM      7  C   UNL     1       4.300   3.745  16.781  0.00  0.00    +0.000 A 
ATOM      8  C   UNL     1       4.825   3.293  15.575  0.00  0.00    +0.000 A 
ATOM      9  C   UNL     1       5.988   3.868  15.068  0.00  0.00    +0.000 A 
ATOM     10  C   UNL     1       6.630   4.903  15.762  0.00  0.00    +0.000 A 
ATOM     11  C   UNL     1       7.760   5.650  15.108  0.00  0.00    +0.000 C 
ATOM     12  C   UNL     1       6.152   5.274  17.031  0.00  0.00    +0.000 A 
ATOM     13  C   UNL     1       5.014   4.650  17.559  0.00  0.00    +0.000 A 
ATOM     14  C   UNL     1       4.518   4.937  18.933  0.00  0.00    +0.000 C 
ATOM     15  O   UNL     1       5.221   5.595  19.695  0.00  0.00    +0.000 OA
ATOM     16  C   UNL     1       3.114   4.444  19.295  0.00  0.00    +0.000 C 
ENDROOT
BRANCH   1  18
ATOM     17  C   UNL     1       4.901   1.695  20.660  0.00  0.00    +0.000 C 
ATOM     18  O   UNL     1       3.905   2.092  19.708  0.00  0.00    +0.000 OA
ENDBRANCH   1  18
BRANCH  16  19
ATOM     19  C   UNL     1       2.457   5.543  20.047  0.00  0.00    +0.000 C 
ATOM     20  N   UNL     1       1.875   6.372  20.617  0.00  0.00    +0.000 NA
ENDBRANCH  16  19
TORSDOF 2
ENDMDL
MODEL 8
REMARK VINA RESULT:      -6.1      2.516      5.285
REMARK  Name = 
REMARK  4 active torsions:
REMARK  status: ('A' for Active; 'I' for Inactive)
REMARK    1  A    between atoms: C_1  and  O_2
REMARK    2  A    between atoms: O_2  and  C_3
REMARK    3  A    between atoms: C_12  and  C_13
REMARK    4  A    between atoms: C_18  and  C_19
REMARK                            x       y       z     vdW  Elec       q    Type
REMARK                         _______ _______ _______ _____ _____    ______ ____
ROOT
ATOM      1  C   UNL     1       2.404   2.048  18.854  0.00  0.00    +0.000 C 
ATOM      2  C   UNL     1       0.866   2.063  18.971  0.00  0.00    +0.000 C 
ATOM      3  C   UNL     1       0.242   3.255  18.833  0.00  0.00    +0.000 C 
ATOM      4  C   UNL     1       0.734   4.366  19.734  0.00  0.00    +0.000 C 
ATOM      5  C   UNL     1       2.264   4.501  19.613  0.00  0.00    +0.000 C 
ATOM      6  O   UNL     1       2.539   5.057  18.307  0.00  0.00    +0.000 OA
ATOM      7  C   UNL     1       3.868   5.337  18.154  0.00  0.00    +0.000 A 
ATOM      8  C   UNL     1       4.201   6.366  17.279  0.00  0.00    +0.000 A 
ATOM      9  C   UNL     1       5.510   6.841  17.235  0.00  0.00    +0.000 A 
ATOM     10  C   UNL     1       6.494   6.292  18.069  0.00  0.00    +0.000 A 
ATOM     11  C   UNL     1       7.845   6.948  18.158  0.00  0.00    +0.000 C 
ATOM     12  C   UNL     1       6.171   5.181  18.866  0.00  0.00    +0.000 A 
ATOM     13  C   UNL     1       4.864   4.673  18.862  0.00  0.00    +0.000 A 
ATOM     14  C   UNL     1       4.489   3.445  19.616  0.00  0.00    +0.000 C 
ATOM     15  O   UNL     1       5.376   2.750  20.103  0.00  0.00    +0.000 OA
ATOM     16  C   UNL     1       2.996   3.154  19.794  0.00  0.00    +0.000 C 
ENDROOT
BRANCH   1  18
ATOM     17  C   UNL     1       3.979   1.524  17.123  0.00  0.00    +0.000 C 
ATOM     18  O   UNL     1       2.769   2.209  17.474  0.00  0.00    +0.000 OA
ENDBRANCH   1  18
BRANCH  16  19
ATOM     19  C   UNL     1       2.814   2.707  21.198  0.00  0.00    +0.000 C 
ATOM     20  N   UNL     1       2.596   2.371  22.289  0.00  0.00    +0.000 NA
ENDBRANCH  16  19
TORSDOF 2
ENDMDL
MODEL 9
REMARK VINA RESULT:      -5.9      2.059      5.290
REMARK  Name = 
REMARK  4 active torsions:
REMARK  status: ('A' for Active; 'I' for Inactive)
REMARK    1  A    between atoms: C_1  and  O_2
REMARK    2  A    between atoms: O_2  and  C_3
REMARK    3  A    between atoms: C_12  and  C_13
REMARK    4  A    between atoms: C_18  and  C_19
REMARK                            x       y       z     vdW  Elec       q    Type
REMARK                         _______ _______ _______ _____ _____    ______ ____
ROOT
ATOM      1  C   UNL     1       4.391   5.520  19.433  0.00  0.00    +0.000 C 
ATOM      2  C   UNL     1       3.177   4.880  20.138  0.00  0.00    +0.000 C 
ATOM      3  C   UNL     1       2.491   3.933  19.459  0.00  0.00    +0.000 C 
ATOM      4  C   UNL     1       2.006   4.328  18.082  0.00  0.00    +0.000 C 
ATOM      5  C   UNL     1       3.177   4.892  17.255  0.00  0.00    +0.000 C 
ATOM      6  O   UNL     1       4.046   3.781  16.938  0.00  0.00    +0.000 OA
ATOM      7  C   UNL     1       5.051   4.160  16.092  0.00  0.00    +0.000 A 
ATOM      8  C   UNL     1       5.572   3.181  15.251  0.00  0.00    +0.000 A 
ATOM      9  C   UNL     1       6.443   3.543  14.226  0.00  0.00    +0.000 A 
ATOM     10  C   UNL     1       6.796   4.886  14.032  0.00  0.00    +0.000 A 
ATOM     11  C   UNL     1       7.568   5.283  12.804  0.00  0.00    +0.000 C 
ATOM     12  C   UNL     1       6.352   5.848  14.955  0.00  0.00    +0.000 A 
ATOM     13  C   UNL     1       5.521   5.467  16.018  0.00  0.00    +0.000 A 
ATOM     14  C   UNL     1       5.095   6.425  17.074  0.00  0.00    +0.000 C 
ATOM     15  O   UNL     1       5.630   7.530  17.128  0.00  0.00    +0.000 OA
ATOM     16  C   UNL     1       3.956   5.994  18.003  0.00  0.00    +0.000 C 
ENDROOT
BRANCH   1  18
ATOM     17  C   UNL     1       6.765   5.197  19.531  0.00  0.00    +0.000 C 
ATOM     18  O   UNL     1       5.476   4.579  19.423  0.00  0.00    +0.000 OA
ENDBRANCH   1  18
BRANCH  16  19
ATOM     19  C   UNL     1       3.067   7.172  18.162  0.00  0.00    +0.000 C 
ATOM     20  N   UNL     1       2.358   8.092  18.210  0.00  0.00    +0.000 NA
ENDBRANCH  16  19
TORSDOF 2
ENDMDL
