MODEL 1
REMARK VINA RESULT:      -7.3      0.000      0.000
REMARK  Name = 
REMARK  9 active torsions:
REMARK  status: ('A' for Active; 'I' for Inactive)
REMARK    1  A    between atoms: C_1  and  C_2
REMARK    2  A    between atoms: C_5  and  CA_6
REMARK    3  A    between atoms: CA_6  and  N_7
REMARK    4  A    between atoms: CA_6  and  C_19
REMARK    5  A    between atoms: C_8  and  C_10
REMARK    6  A    between atoms: C_10  and  C_11
REMARK    7  A    between atoms: C_11  and  C_12
REMARK    8  A    between atoms: C_12  and  N_13
REMARK    9  A    between atoms: C_19  and  OXT_21
REMARK                            x       y       z     vdW  Elec       q    Type
REMARK                         _______ _______ _______ _____ _____    ______ ____
ROOT
ATOM      1  N   UNL     1       5.321   5.601  18.049  0.00  0.00    +0.000 N 
ATOM      2  C   UNL     1       4.321   6.475  17.712  0.00  0.00    +0.000 C 
ATOM      3  O   UNL     1       4.475   7.301  16.815  0.00  0.00    +0.000 OA
ATOM      4  H   UNL     1       5.192   4.951  18.817  0.00  0.00    +0.000 HD
ENDROOT
BRANCH   1   5
ATOM      5  CA  UNL     1       6.618   5.606  17.373  0.00  0.00    +0.000 C 
BRANCH   5  10
ATOM      6  C   UNL     1       5.913   3.213  12.099  0.00  0.00    +0.000 C 
ATOM      7  C   UNL     1       6.128   3.810  13.458  0.00  0.00    +0.000 A 
ATOM      8  C   UNL     1       5.336   3.422  14.539  0.00  0.00    +0.000 A 
ATOM      9  C   UNL     1       5.523   4.009  15.791  0.00  0.00    +0.000 A 
ATOM     10  C   UNL     1       6.494   5.007  15.989  0.00  0.00    +0.000 A 
ATOM     11  C   UNL     1       7.307   5.368  14.909  0.00  0.00    +0.000 A 
ATOM     12  C   UNL     1       7.114   4.785  13.651  0.00  0.00    +0.000 A 
ENDBRANCH   5  10
BRANCH   5  13
ATOM     13  C   UNL     1       7.700   5.031  18.314  0.00  0.00    +0.000 C 
ATOM     14  O   UNL     1       7.935   5.376  19.466  0.00  0.00    +0.000 OA
BRANCH  13  15
ATOM     15  OXT UNL     1       8.385   4.001  17.737  0.00  0.00    +0.000 OA
ATOM     16  HXT UNL     1       8.385   3.199  18.306  0.00  0.00    +0.000 HD
ENDBRANCH  13  15
ENDBRANCH   5  13
ENDBRANCH   1   5
BRANCH   2  17
ATOM     17  C   UNL     1       3.085   6.428  18.583  0.00  0.00    +0.000 C 
BRANCH  17  18
ATOM     18  C   UNL     1       1.967   5.616  17.929  0.00  0.00    +0.000 C 
BRANCH  18  19
ATOM     19  C   UNL     1       2.315   4.135  17.689  0.00  0.00    +0.000 C 
BRANCH  19  20
ATOM     20  N   UNL     1       2.232   3.276  18.882  0.00  0.00    +0.000 NA
ATOM     21  C   UNL     1       3.524   3.187  19.581  0.00  0.00    +0.000 C 
ATOM     22  C   UNL     1       3.441   2.291  20.817  0.00  0.00    +0.000 C 
ATOM     23  C   UNL     1       2.356   2.761  21.775  0.00  0.00    +0.000 C 
ATOM     24  C   UNL     1       1.033   2.910  21.035  0.00  0.00    +0.000 C 
ATOM     25  C   UNL     1       1.189   3.790  19.793  0.00  0.00    +0.000 C 
ENDBRANCH  19  20
ENDBRANCH  18  19
ENDBRANCH  17  18
ENDBRANCH   2  17
TORSDOF 8
ENDMDL
MODEL 2
REMARK VINA RESULT:      -7.3      1.090      1.673
REMARK  Name = 
REMARK  9 active torsions:
REMARK  status: ('A' for Active; 'I' for Inactive)
REMARK    1  A    between atoms: C_1  and  C_2
REMARK    2  A    between atoms: C_5  and  CA_6
REMARK    3  A    between atoms: CA_6  and  N_7
REMARK    4  A    between atoms: CA_6  and  C_19
REMARK    5  A    between atoms: C_8  and  C_10
REMARK    6  A    between atoms: C_10  and  C_11
REMARK    7  A    between atoms: C_11  and  C_12
REMARK    8  A    between atoms: C_12  and  N_13
REMARK    9  A    between atoms: C_19  and  OXT_21
REMARK                            x       y       z     vdW  Elec       q    Type
REMARK                         _______ _______ _______ _____ _____    ______ ____
ROOT
ATOM      1  N   UNL     1       4.505   5.770  17.744  0.00  0.00    +0.000 N 
ATOM      2  C   UNL     1       3.805   6.947  17.757  0.00  0.00    +0.000 C 
ATOM      3  O   UNL     1       4.343   8.010  17.458  0.00  0.00    +0.000 OA
ATOM      4  H   UNL     1       4.056   4.906  18.029  0.00  0.00    +0.000 HD
ENDROOT
BRANCH   1   5
ATOM      5  CA  UNL     1       5.923   5.713  17.384  0.00  0.00    +0.000 C 
BRANCH   5  10
ATOM      6  C   UNL     1       6.340   3.341  12.071  0.00  0.00    +0.000 C 
ATOM      7  C   UNL     1       6.263   3.929  13.448  0.00  0.00    +0.000 A 
ATOM      8  C   UNL     1       5.198   3.623  14.295  0.00  0.00    +0.000 A 
ATOM      9  C   UNL     1       5.119   4.203  15.561  0.00  0.00    +0.000 A 
ATOM     10  C   UNL     1       6.093   5.114  16.006  0.00  0.00    +0.000 A 
ATOM     11  C   UNL     1       7.177   5.393  15.164  0.00  0.00    +0.000 A 
ATOM     12  C   UNL     1       7.251   4.817  13.891  0.00  0.00    +0.000 A 
ENDBRANCH   5  10
BRANCH   5  13
ATOM     13  C   UNL     1       6.732   5.094  18.546  0.00  0.00    +0.000 C 
ATOM     14  O   UNL     1       7.850   4.598  18.485  0.00  0.00    +0.000 OA
BRANCH  13  15
ATOM     15  OXT UNL     1       6.078   5.202  19.738  0.00  0.00    +0.000 OA
ATOM     16  HXT UNL     1       6.661   4.973  20.497  0.00  0.00    +0.000 HD
ENDBRANCH  13  15
ENDBRANCH   5  13
ENDBRANCH   1   5
BRANCH   2  17
ATOM     17  C   UNL     1       2.383   6.860  18.268  0.00  0.00    +0.000 C 
BRANCH  17  18
ATOM     18  C   UNL     1       2.343   6.552  19.765  0.00  0.00    +0.000 C 
BRANCH  18  19
ATOM     19  C   UNL     1       2.002   5.089  20.103  0.00  0.00    +0.000 C 
BRANCH  19  20
ATOM     20  N   UNL     1       2.805   4.083  19.390  0.00  0.00    +0.000 NA
ATOM     21  C   UNL     1       3.435   3.129  20.318  0.00  0.00    +0.000 C 
ATOM     22  C   UNL     1       4.273   2.086  19.578  0.00  0.00    +0.000 C 
ATOM     23  C   UNL     1       3.449   1.342  18.537  0.00  0.00    +0.000 C 
ATOM     24  C   UNL     1       2.751   2.334  17.616  0.00  0.00    +0.000 C 
ATOM     25  C   UNL     1       1.956   3.368  18.415  0.00  0.00    +0.000 C 
ENDBRANCH  19  20
ENDBRANCH  18  19
ENDBRANCH  17  18
ENDBRANCH   2  17
TORSDOF 8
ENDMDL
MODEL 3
REMARK VINA RESULT:      -7.3      4.303      7.872
REMARK  Name = 
REMARK  9 active torsions:
REMARK  status: ('A' for Active; 'I' for Inactive)
REMARK    1  A    between atoms: C_1  and  C_2
REMARK    2  A    between atoms: C_5  and  CA_6
REMARK    3  A    between atoms: CA_6  and  N_7
REMARK    4  A    between atoms: CA_6  and  C_19
REMARK    5  A    between atoms: C_8  and  C_10
REMARK    6  A    between atoms: C_10  and  C_11
REMARK    7  A    between atoms: C_11  and  C_12
REMARK    8  A    between atoms: C_12  and  N_13
REMARK    9  A    between atoms: C_19  and  OXT_21
REMARK                            x       y       z     vdW  Elec       q    Type
REMARK                         _______ _______ _______ _____ _____    ______ ____
ROOT
ATOM      1  N   UNL     1       5.957   5.844  17.746  0.00  0.00    +0.000 N 
ATOM      2  C   UNL     1       6.611   6.972  17.326  0.00  0.00    +0.000 C 
ATOM      3  O   UNL     1       6.274   7.557  16.300  0.00  0.00    +0.000 OA
ATOM      4  H   UNL     1       6.271   5.351  18.575  0.00  0.00    +0.000 HD
ENDROOT
BRANCH   1   5
ATOM      5  CA  UNL     1       4.835   5.273  16.999  0.00  0.00    +0.000 C 
BRANCH   5  10
ATOM      6  C   UNL     1       0.989   3.153  20.840  0.00  0.00    +0.000 C 
ATOM      7  C   UNL     1       1.988   3.662  19.844  0.00  0.00    +0.000 A 
ATOM      8  C   UNL     1       3.129   4.346  20.266  0.00  0.00    +0.000 A 
ATOM      9  C   UNL     1       4.034   4.845  19.329  0.00  0.00    +0.000 A 
ATOM     10  C   UNL     1       3.815   4.685  17.949  0.00  0.00    +0.000 A 
ATOM     11  C   UNL     1       2.686   3.969  17.533  0.00  0.00    +0.000 A 
ATOM     12  C   UNL     1       1.774   3.477  18.473  0.00  0.00    +0.000 A 
ENDBRANCH   5  10
BRANCH   5  13
ATOM     13  C   UNL     1       5.368   4.372  15.863  0.00  0.00    +0.000 C 
ATOM     14  O   UNL     1       5.405   4.636  14.668  0.00  0.00    +0.000 OA
BRANCH  13  15
ATOM     15  OXT UNL     1       5.879   3.199  16.337  0.00  0.00    +0.000 OA
ATOM     16  HXT UNL     1       6.523   2.801  15.710  0.00  0.00    +0.000 HD
ENDBRANCH  13  15
ENDBRANCH   5  13
ENDBRANCH   1   5
BRANCH   2  17
ATOM     17  C   UNL     1       7.825   7.368  18.138  0.00  0.00    +0.000 C 
BRANCH  17  18
ATOM     18  C   UNL     1       8.188   8.838  17.924  0.00  0.00    +0.000 C 
BRANCH  18  19
ATOM     19  C   UNL     1       8.817   9.521  19.152  0.00  0.00    +0.000 C 
BRANCH  19  20
ATOM     20  N   UNL     1       9.836  10.537  18.845  0.00  0.00    +0.000 NA
ATOM     21  C   UNL     1       9.313  11.581  17.947  0.00  0.00    +0.000 C 
ATOM     22  C   UNL     1      10.372  12.634  17.623  0.00  0.00    +0.000 C 
ATOM     23  C   UNL     1      10.940  13.264  18.886  0.00  0.00    +0.000 C 
ATOM     24  C   UNL     1      11.425  12.179  19.839  0.00  0.00    +0.000 C 
ATOM     25  C   UNL     1      10.333  11.140  20.099  0.00  0.00    +0.000 C 
ENDBRANCH  19  20
ENDBRANCH  18  19
ENDBRANCH  17  18
ENDBRANCH   2  17
TORSDOF 8
ENDMDL
MODEL 4
REMARK VINA RESULT:      -7.2      4.281      7.789
REMARK  Name = 
REMARK  9 active torsions:
REMARK  status: ('A' for Active; 'I' for Inactive)
REMARK    1  A    between atoms: C_1  and  C_2
REMARK    2  A    between atoms: C_5  and  CA_6
REMARK    3  A    between atoms: CA_6  and  N_7
REMARK    4  A    between atoms: CA_6  and  C_19
REMARK    5  A    between atoms: C_8  and  C_10
REMARK    6  A    between atoms: C_10  and  C_11
REMARK    7  A    between atoms: C_11  and  C_12
REMARK    8  A    between atoms: C_12  and  N_13
REMARK    9  A    between atoms: C_19  and  OXT_21
REMARK                            x       y       z     vdW  Elec       q    Type
REMARK                         _______ _______ _______ _____ _____    ______ ____
ROOT
ATOM      1  N   UNL     1       5.959   5.735  17.707  0.00  0.00    +0.000 N 
ATOM      2  C   UNL     1       6.530   6.902  17.272  0.00  0.00    +0.000 C 
ATOM      3  O   UNL     1       6.070   7.515  16.312  0.00  0.00    +0.000 OA
ATOM      4  H   UNL     1       6.372   5.221  18.478  0.00  0.00    +0.000 HD
ENDROOT
BRANCH   1   5
ATOM      5  CA  UNL     1       4.784   5.155  17.056  0.00  0.00    +0.000 C 
BRANCH   5  10
ATOM      6  C   UNL     1       1.065   2.744  20.849  0.00  0.00    +0.000 C 
ATOM      7  C   UNL     1       2.030   3.389  19.901  0.00  0.00    +0.000 A 
ATOM      8  C   UNL     1       1.572   4.085  18.782  0.00  0.00    +0.000 A 
ATOM      9  C   UNL     1       2.480   4.652  17.888  0.00  0.00    +0.000 A 
ATOM     10  C   UNL     1       3.868   4.527  18.083  0.00  0.00    +0.000 A 
ATOM     11  C   UNL     1       4.321   3.856  19.225  0.00  0.00    +0.000 A 
ATOM     12  C   UNL     1       3.409   3.280  20.116  0.00  0.00    +0.000 A 
ENDBRANCH   5  10
BRANCH   5  13
ATOM     13  C   UNL     1       5.226   4.288  15.856  0.00  0.00    +0.000 C 
ATOM     14  O   UNL     1       5.161   4.582  14.669  0.00  0.00    +0.000 OA
BRANCH  13  15
ATOM     15  OXT UNL     1       5.783   3.108  16.256  0.00  0.00    +0.000 OA
ATOM     16  HXT UNL     1       6.533   3.250  16.877  0.00  0.00    +0.000 HD
ENDBRANCH  13  15
ENDBRANCH   5  13
ENDBRANCH   1   5
BRANCH   2  17
ATOM     17  C   UNL     1       7.809   7.307  17.971  0.00  0.00    +0.000 C 
BRANCH  17  18
ATOM     18  C   UNL     1       8.042   8.816  17.885  0.00  0.00    +0.000 C 
BRANCH  18  19
ATOM     19  C   UNL     1       8.963   9.380  18.982  0.00  0.00    +0.000 C 
BRANCH  19  20
ATOM     20  N   UNL     1       9.144  10.840  18.952  0.00  0.00    +0.000 NA
ATOM     21  C   UNL     1       9.564  11.366  20.261  0.00  0.00    +0.000 C 
ATOM     22  C   UNL     1       9.747  12.884  20.233  0.00  0.00    +0.000 C 
ATOM     23  C   UNL     1      10.735  13.307  19.155  0.00  0.00    +0.000 C 
ATOM     24  C   UNL     1      10.331  12.712  17.813  0.00  0.00    +0.000 C 
ATOM     25  C   UNL     1      10.132  11.198  17.914  0.00  0.00    +0.000 C 
ENDBRANCH  19  20
ENDBRANCH  18  19
ENDBRANCH  17  18
ENDBRANCH   2  17
TORSDOF 8
ENDMDL
MODEL 5
REMARK VINA RESULT:      -7.2      4.607      7.884
REMARK  Name = 
REMARK  9 active torsions:
REMARK  status: ('A' for Active; 'I' for Inactive)
REMARK    1  A    between atoms: C_1  and  C_2
REMARK    2  A    between atoms: C_5  and  CA_6
REMARK    3  A    between atoms: CA_6  and  N_7
REMARK    4  A    between atoms: CA_6  and  C_19
REMARK    5  A    between atoms: C_8  and  C_10
REMARK    6  A    between atoms: C_10  and  C_11
REMARK    7  A    between atoms: C_11  and  C_12
REMARK    8  A    between atoms: C_12  and  N_13
REMARK    9  A    between atoms: C_19  and  OXT_21
REMARK                            x       y       z     vdW  Elec       q    Type
REMARK                         _______ _______ _______ _____ _____    ______ ____
ROOT
ATOM      1  N   UNL     1       6.774   6.064  17.275  0.00  0.00    +0.000 N 
ATOM      2  C   UNL     1       6.958   7.414  17.412  0.00  0.00    +0.000 C 
ATOM      3  O   UNL     1       6.272   8.215  16.782  0.00  0.00    +0.000 OA
ATOM      4  H   UNL     1       7.374   5.414  17.774  0.00  0.00    +0.000 HD
ENDROOT
BRANCH   1   5
ATOM      5  CA  UNL     1       5.766   5.503  16.376  0.00  0.00    +0.000 C 
BRANCH   5  10
ATOM      6  C   UNL     1       1.186   3.491  19.377  0.00  0.00    +0.000 C 
ATOM      7  C   UNL     1       2.385   4.002  18.636  0.00  0.00    +0.000 A 
ATOM      8  C   UNL     1       2.498   5.354  18.310  0.00  0.00    +0.000 A 
ATOM      9  C   UNL     1       3.602   5.811  17.591  0.00  0.00    +0.000 A 
ATOM     10  C   UNL     1       4.612   4.929  17.168  0.00  0.00    +0.000 A 
ATOM     11  C   UNL     1       4.509   3.580  17.527  0.00  0.00    +0.000 A 
ATOM     12  C   UNL     1       3.397   3.120  18.241  0.00  0.00    +0.000 A 
ENDBRANCH   5  10
BRANCH   5  13
ATOM     13  C   UNL     1       6.447   4.594  15.328  0.00  0.00    +0.000 C 
ATOM     14  O   UNL     1       5.896   3.857  14.521  0.00  0.00    +0.000 OA
BRANCH  13  15
ATOM     15  OXT UNL     1       7.804   4.729  15.341  0.00  0.00    +0.000 OA
ATOM     16  HXT UNL     1       8.147   5.064  14.482  0.00  0.00    +0.000 HD
ENDBRANCH  13  15
ENDBRANCH   5  13
ENDBRANCH   1   5
BRANCH   2  17
ATOM     17  C   UNL     1       8.119   7.834  18.286  0.00  0.00    +0.000 C 
BRANCH  17  18
ATOM     18  C   UNL     1       8.461   9.312  18.094  0.00  0.00    +0.000 C 
BRANCH  18  19
ATOM     19  C   UNL     1       9.099   9.982  19.325  0.00  0.00    +0.000 C 
BRANCH  19  20
ATOM     20  N   UNL     1      10.276  10.817  19.038  0.00  0.00    +0.000 NA
ATOM     21  C   UNL     1      10.089  11.627  17.822  0.00  0.00    +0.000 C 
ATOM     22  C   UNL     1      11.313  12.490  17.520  0.00  0.00    +0.000 C 
ATOM     23  C   UNL     1      11.671  13.385  18.698  0.00  0.00    +0.000 C 
ATOM     24  C   UNL     1      11.805  12.552  19.966  0.00  0.00    +0.000 C 
ATOM     25  C   UNL     1      10.564  11.687  20.196  0.00  0.00    +0.000 C 
ENDBRANCH  19  20
ENDBRANCH  18  19
ENDBRANCH  17  18
ENDBRANCH   2  17
TORSDOF 8
ENDMDL
MODEL 6
REMARK VINA RESULT:      -7.1      4.687      7.924
REMARK  Name = 
REMARK  9 active torsions:
REMARK  status: ('A' for Active; 'I' for Inactive)
REMARK    1  A    between atoms: C_1  and  C_2
REMARK    2  A    between atoms: C_5  and  CA_6
REMARK    3  A    between atoms: CA_6  and  N_7
REMARK    4  A    between atoms: CA_6  and  C_19
REMARK    5  A    between atoms: C_8  and  C_10
REMARK    6  A    between atoms: C_10  and  C_11
REMARK    7  A    between atoms: C_11  and  C_12
REMARK    8  A    between atoms: C_12  and  N_13
REMARK    9  A    between atoms: C_19  and  OXT_21
REMARK                            x       y       z     vdW  Elec       q    Type
REMARK                         _______ _______ _______ _____ _____    ______ ____
ROOT
ATOM      1  N   UNL     1       7.155   5.965  17.310  0.00  0.00    +0.000 N 
ATOM      2  C   UNL     1       7.101   7.310  17.561  0.00  0.00    +0.000 C 
ATOM      3  O   UNL     1       6.198   8.006  17.103  0.00  0.00    +0.000 OA
ATOM      4  H   UNL     1       7.928   5.411  17.664  0.00  0.00    +0.000 HD
ENDROOT
BRANCH   1   5
ATOM      5  CA  UNL     1       6.155   5.287  16.484  0.00  0.00    +0.000 C 
BRANCH   5  10
ATOM      6  C   UNL     1       2.083   2.560  19.650  0.00  0.00    +0.000 C 
ATOM      7  C   UNL     1       3.129   3.290  18.862  0.00  0.00    +0.000 A 
ATOM      8  C   UNL     1       2.829   3.838  17.614  0.00  0.00    +0.000 A 
ATOM      9  C   UNL     1       3.819   4.485  16.875  0.00  0.00    +0.000 A 
ATOM     10  C   UNL     1       5.137   4.587  17.357  0.00  0.00    +0.000 A 
ATOM     11  C   UNL     1       5.424   4.064  18.623  0.00  0.00    +0.000 A 
ATOM     12  C   UNL     1       4.432   3.408  19.360  0.00  0.00    +0.000 A 
ENDBRANCH   5  10
BRANCH   5  13
ATOM     13  C   UNL     1       6.858   4.458  15.387  0.00  0.00    +0.000 C 
ATOM     14  O   UNL     1       7.783   4.817  14.669  0.00  0.00    +0.000 OA
BRANCH  13  15
ATOM     15  OXT UNL     1       6.365   3.188  15.312  0.00  0.00    +0.000 OA
ATOM     16  HXT UNL     1       6.613   2.749  14.467  0.00  0.00    +0.000 HD
ENDBRANCH  13  15
ENDBRANCH   5  13
ENDBRANCH   1   5
BRANCH   2  17
ATOM     17  C   UNL     1       8.273   7.883  18.328  0.00  0.00    +0.000 C 
BRANCH  17  18
ATOM     18  C   UNL     1       8.411   9.389  18.099  0.00  0.00    +0.000 C 
BRANCH  18  19
ATOM     19  C   UNL     1       9.205  10.127  19.193  0.00  0.00    +0.000 C 
BRANCH  19  20
ATOM     20  N   UNL     1      10.261  11.024  18.697  0.00  0.00    +0.000 NA
ATOM     21  C   UNL     1       9.711  12.101  17.857  0.00  0.00    +0.000 C 
ATOM     22  C   UNL     1      10.807  13.031  17.336  0.00  0.00    +0.000 C 
ATOM     23  C   UNL     1      11.628  13.619  18.475  0.00  0.00    +0.000 C 
ATOM     24  C   UNL     1      12.145  12.506  19.376  0.00  0.00    +0.000 C 
ATOM     25  C   UNL     1      11.008  11.592  19.838  0.00  0.00    +0.000 C 
ENDBRANCH  19  20
ENDBRANCH  18  19
ENDBRANCH  17  18
ENDBRANCH   2  17
TORSDOF 8
ENDMDL
MODEL 7
REMARK VINA RESULT:      -7.1      1.352      2.059
REMARK  Name = 
REMARK  9 active torsions:
REMARK  status: ('A' for Active; 'I' for Inactive)
REMARK    1  A    between atoms: C_1  and  C_2
REMARK    2  A    between atoms: C_5  and  CA_6
REMARK    3  A    between atoms: CA_6  and  N_7
REMARK    4  A    between atoms: CA_6  and  C_19
REMARK    5  A    between atoms: C_8  and  C_10
REMARK    6  A    between atoms: C_10  and  C_11
REMARK    7  A    between atoms: C_11  and  C_12
REMARK    8  A    between atoms: C_12  and  N_13
REMARK    9  A    between atoms: C_19  and  OXT_21
REMARK                            x       y       z     vdW  Elec       q    Type
REMARK                         _______ _______ _______ _____ _____    ______ ____
ROOT
ATOM      1  N   UNL     1       4.300   5.932  18.496  0.00  0.00    +0.000 N 
ATOM      2  C   UNL     1       3.313   6.872  18.359  0.00  0.00    +0.000 C 
ATOM      3  O   UNL     1       3.510   7.915  17.740  0.00  0.00    +0.000 OA
ATOM      4  H   UNL     1       4.133   5.094  19.042  0.00  0.00    +0.000 HD
ENDROOT
BRANCH   1   5
ATOM      5  CA  UNL     1       5.634   6.117  17.925  0.00  0.00    +0.000 C 
BRANCH   5  10
ATOM      6  C   UNL     1       5.954   3.431  12.756  0.00  0.00    +0.000 C 
ATOM      7  C   UNL     1       5.902   4.143  14.074  0.00  0.00    +0.000 A 
ATOM      8  C   UNL     1       6.253   3.486  15.254  0.00  0.00    +0.000 A 
ATOM      9  C   UNL     1       6.167   4.149  16.478  0.00  0.00    +0.000 A 
ATOM     10  C   UNL     1       5.716   5.479  16.556  0.00  0.00    +0.000 A 
ATOM     11  C   UNL     1       5.396   6.143  15.366  0.00  0.00    +0.000 A 
ATOM     12  C   UNL     1       5.474   5.475  14.139  0.00  0.00    +0.000 A 
ENDBRANCH   5  10
BRANCH   5  13
ATOM     13  C   UNL     1       6.707   5.731  18.967  0.00  0.00    +0.000 C 
ATOM     14  O   UNL     1       6.588   4.933  19.888  0.00  0.00    +0.000 OA
BRANCH  13  15
ATOM     15  OXT UNL     1       7.897   6.355  18.731  0.00  0.00    +0.000 OA
ATOM     16  HXT UNL     1       7.907   7.272  19.088  0.00  0.00    +0.000 HD
ENDBRANCH  13  15
ENDBRANCH   5  13
ENDBRANCH   1   5
BRANCH   2  17
ATOM     17  C   UNL     1       2.029   6.591  19.108  0.00  0.00    +0.000 C 
BRANCH  17  18
ATOM     18  C   UNL     1       2.290   5.802  20.392  0.00  0.00    +0.000 C 
BRANCH  18  19
ATOM     19  C   UNL     1       1.427   4.537  20.547  0.00  0.00    +0.000 C 
BRANCH  19  20
ATOM     20  N   UNL     1       1.960   3.336  19.883  0.00  0.00    +0.000 NA
ATOM     21  C   UNL     1       1.694   3.348  18.435  0.00  0.00    +0.000 C 
ATOM     22  C   UNL     1       2.243   2.099  17.746  0.00  0.00    +0.000 C 
ATOM     23  C   UNL     1       3.732   1.926  18.006  0.00  0.00    +0.000 C 
ATOM     24  C   UNL     1       4.012   1.974  19.502  0.00  0.00    +0.000 C 
ATOM     25  C   UNL     1       3.411   3.229  20.139  0.00  0.00    +0.000 C 
ENDBRANCH  19  20
ENDBRANCH  18  19
ENDBRANCH  17  18
ENDBRANCH   2  17
TORSDOF 8
ENDMDL
MODEL 8
REMARK VINA RESULT:      -7.1      5.031      7.946
REMARK  Name = 
REMARK  9 active torsions:
REMARK  status: ('A' for Active; 'I' for Inactive)
REMARK    1  A    between atoms: C_1  and  C_2
REMARK    2  A    between atoms: C_5  and  CA_6
REMARK    3  A    between atoms: CA_6  and  N_7
REMARK    4  A    between atoms: CA_6  and  C_19
REMARK    5  A    between atoms: C_8  and  C_10
REMARK    6  A    between atoms: C_10  and  C_11
REMARK    7  A    between atoms: C_11  and  C_12
REMARK    8  A    between atoms: C_12  and  N_13
REMARK    9  A    between atoms: C_19  and  OXT_21
REMARK                            x       y       z     vdW  Elec       q    Type
REMARK                         _______ _______ _______ _____ _____    ______ ____
ROOT
ATOM      1  N   UNL     1       1.376   9.956  18.022  0.00  0.00    +0.000 N 
ATOM      2  C   UNL     1       1.751   8.806  18.665  0.00  0.00    +0.000 C 
ATOM      3  O   UNL     1       1.503   8.635  19.856  0.00  0.00    +0.000 OA
ATOM      4  H   UNL     1       1.622  10.098  17.047  0.00  0.00    +0.000 HD
ENDROOT
BRANCH   1   5
ATOM      5  CA  UNL     1       0.673  11.039  18.710  0.00  0.00    +0.000 C 
BRANCH   5  10
ATOM      6  C   UNL     1      -5.066  11.040  17.663  0.00  0.00    +0.000 C 
ATOM      7  C   UNL     1      -3.594  11.004  17.946  0.00  0.00    +0.000 A 
ATOM      8  C   UNL     1      -3.041  11.805  18.946  0.00  0.00    +0.000 A 
ATOM      9  C   UNL     1      -1.666  11.789  19.177  0.00  0.00    +0.000 A 
ATOM     10  C   UNL     1      -0.808  10.983  18.407  0.00  0.00    +0.000 A 
ATOM     11  C   UNL     1      -1.372  10.157  17.429  0.00  0.00    +0.000 A 
ATOM     12  C   UNL     1      -2.751  10.180  17.191  0.00  0.00    +0.000 A 
ENDBRANCH   5  10
BRANCH   5  13
ATOM     13  C   UNL     1       1.410  12.375  18.471  0.00  0.00    +0.000 C 
ATOM     14  O   UNL     1       1.188  13.449  19.018  0.00  0.00    +0.000 OA
BRANCH  13  15
ATOM     15  OXT UNL     1       2.433  12.242  17.578  0.00  0.00    +0.000 OA
ATOM     16  HXT UNL     1       3.174  11.711  17.948  0.00  0.00    +0.000 HD
ENDBRANCH  13  15
ENDBRANCH   5  13
ENDBRANCH   1   5
BRANCH   2  17
ATOM     17  C   UNL     1       2.576   7.835  17.850  0.00  0.00    +0.000 C 
BRANCH  17  18
ATOM     18  C   UNL     1       3.005   6.626  18.681  0.00  0.00    +0.000 C 
BRANCH  18  19
ATOM     19  C   UNL     1       2.822   5.271  17.972  0.00  0.00    +0.000 C 
BRANCH  19  20
ATOM     20  N   UNL     1       2.553   4.133  18.866  0.00  0.00    +0.000 NA
ATOM     21  C   UNL     1       3.763   3.709  19.590  0.00  0.00    +0.000 C 
ATOM     22  C   UNL     1       3.485   2.523  20.514  0.00  0.00    +0.000 C 
ATOM     23  C   UNL     1       2.366   2.832  21.497  0.00  0.00    +0.000 C 
ATOM     24  C   UNL     1       1.135   3.328  20.750  0.00  0.00    +0.000 C 
ATOM     25  C   UNL     1       1.483   4.491  19.819  0.00  0.00    +0.000 C 
ENDBRANCH  19  20
ENDBRANCH  18  19
ENDBRANCH  17  18
ENDBRANCH   2  17
TORSDOF 8
ENDMDL
MODEL 9
REMARK VINA RESULT:      -7.0      4.804      8.071
REMARK  Name = 
REMARK  9 active torsions:
REMARK  status: ('A' for Active; 'I' for Inactive)
REMARK    1  A    between atoms: C_1  and  C_2
REMARK    2  A    between atoms: C_5  and  CA_6
REMARK    3  A    between atoms: CA_6  and  N_7
REMARK    4  A    between atoms: CA_6  and  C_19
REMARK    5  A    between atoms: C_8  and  C_10
REMARK    6  A    between atoms: C_10  and  C_11
REMARK    7  A    between atoms: C_11  and  C_12
REMARK    8  A    between atoms: C_12  and  N_13
REMARK    9  A    between atoms: C_19  and  OXT_21
REMARK                            x       y       z     vdW  Elec       q    Type
REMARK                         _______ _______ _______ _____ _____    ______ ____
ROOT
ATOM      1  N   UNL     1       7.121   6.230  17.445  0.00  0.00    +0.000 N 
ATOM      2  C   UNL     1       7.241   7.589  17.568  0.00  0.00    +0.000 C 
ATOM      3  O   UNL     1       6.485   8.350  16.969  0.00  0.00    +0.000 OA
ATOM      4  H   UNL     1       7.777   5.616  17.916  0.00  0.00    +0.000 HD
ENDROOT
BRANCH   1   5
ATOM      5  CA  UNL     1       6.102   5.613  16.597  0.00  0.00    +0.000 C 
BRANCH   5  10
ATOM      6  C   UNL     1       1.894   3.534  20.062  0.00  0.00    +0.000 C 
ATOM      7  C   UNL     1       2.980   4.033  19.157  0.00  0.00    +0.000 A 
ATOM      8  C   UNL     1       4.210   4.439  19.676  0.00  0.00    +0.000 A 
ATOM      9  C   UNL     1       5.200   4.934  18.828  0.00  0.00    +0.000 A 
ATOM     10  C   UNL     1       4.982   5.048  17.443  0.00  0.00    +0.000 A 
ATOM     11  C   UNL     1       3.759   4.608  16.924  0.00  0.00    +0.000 A 
ATOM     12  C   UNL     1       2.763   4.120  17.777  0.00  0.00    +0.000 A 
ENDBRANCH   5  10
BRANCH   5  13
ATOM     13  C   UNL     1       6.774   4.675  15.569  0.00  0.00    +0.000 C 
ATOM     14  O   UNL     1       6.488   3.507  15.338  0.00  0.00    +0.000 OA
BRANCH  13  15
ATOM     15  OXT UNL     1       7.744   5.314  14.853  0.00  0.00    +0.000 OA
ATOM     16  HXT UNL     1       7.371   6.023  14.283  0.00  0.00    +0.000 HD
ENDBRANCH  13  15
ENDBRANCH   5  13
ENDBRANCH   1   5
BRANCH   2  17
ATOM     17  C   UNL     1       8.419   8.074  18.383  0.00  0.00    +0.000 C 
BRANCH  17  18
ATOM     18  C   UNL     1       8.562   9.595  18.313  0.00  0.00    +0.000 C 
BRANCH  18  19
ATOM     19  C   UNL     1       9.423  10.204  19.435  0.00  0.00    +0.000 C 
BRANCH  19  20
ATOM     20  N   UNL     1       9.971  11.539  19.144  0.00  0.00    +0.000 NA
ATOM     21  C   UNL     1      10.966  11.952  20.147  0.00  0.00    +0.000 C 
ATOM     22  C   UNL     1      11.531  13.340  19.848  0.00  0.00    +0.000 C 
ATOM     23  C   UNL     1      12.132  13.410  18.452  0.00  0.00    +0.000 C 
ATOM     24  C   UNL     1      11.121  12.925  17.422  0.00  0.00    +0.000 C 
ATOM     25  C   UNL     1      10.569  11.547  17.793  0.00  0.00    +0.000 C 
ENDBRANCH  19  20
ENDBRANCH  18  19
ENDBRANCH  17  18
ENDBRANCH   2  17
TORSDOF 8
ENDMDL
