MODEL 1
REMARK VINA RESULT:      -6.7      0.000      0.000
REMARK  Name = 
REMARK  4 active torsions:
REMARK  status: ('A' for Active; 'I' for Inactive)
REMARK    1  A    between atoms: C_4  and  C_5
REMARK    2  A    between atoms: C_5  and  N_6
REMARK    3  A    between atoms: N_6  and  C_7
REMARK    4  A    between atoms: C_7  and  C_8
REMARK                            x       y       z     vdW  Elec       q    Type
REMARK                         _______ _______ _______ _____ _____    ______ ____
ROOT
ATOM      1  N   UNL     1       5.421   3.340  16.581  0.00  0.00    +0.000 NA
ATOM      2  H   UNL     1       5.906   2.809  17.343  0.00  0.00    +0.000 HD
ENDROOT
BRANCH   1   3
ATOM      3  C   UNL     1       6.377   4.259  15.953  0.00  0.00    +0.000 C 
BRANCH   3   7
ATOM      4 BR   UNL     1       8.137   9.061  17.956  0.00  0.00    +0.000 Br
ATOM      5  C   UNL     1       7.738   7.199  17.848  0.00  0.00    +0.000 A 
ATOM      6  C   UNL     1       7.150   6.558  16.770  0.00  0.00    +0.000 A 
ATOM      7  C   UNL     1       6.979   5.180  16.977  0.00  0.00    +0.000 A 
ATOM      8  C   UNL     1       7.434   4.747  18.221  0.00  0.00    +0.000 A 
ATOM      9  S   UNL     1       8.050   6.072  19.052  0.00  0.00    +0.000 S 
ENDBRANCH   3   7
ENDBRANCH   1   3
BRANCH   1  10
ATOM     10  C   UNL     1       4.309   4.083  17.181  0.00  0.00    +0.000 C 
BRANCH  10  11
ATOM     11  C   UNL     1       3.980   3.503  18.518  0.00  0.00    +0.000 A 
ATOM     12  N   UNL     1       4.833   2.793  19.297  0.00  0.00    +0.000 NA
ATOM     13  N   UNL     1       4.151   2.390  20.374  0.00  0.00    +0.000 NA
ATOM     14  C   UNL     1       2.917   2.905  20.230  0.00  0.00    +0.000 A 
ATOM     15  N   UNL     1       2.786   3.576  19.113  0.00  0.00    +0.000 N 
ATOM     16  C   UNL     1       1.439   4.033  18.875  0.00  0.00    +0.000 C 
ATOM     17  C   UNL     1       0.821   3.850  20.281  0.00  0.00    +0.000 C 
ATOM     18  C   UNL     1       1.651   2.738  20.975  0.00  0.00    +0.000 C 
ENDBRANCH  10  11
ENDBRANCH   1  10
TORSDOF 4
ENDMDL
MODEL 2
REMARK VINA RESULT:      -6.5      2.933      3.463
REMARK  Name = 
REMARK  4 active torsions:
REMARK  status: ('A' for Active; 'I' for Inactive)
REMARK    1  A    between atoms: C_4  and  C_5
REMARK    2  A    between atoms: C_5  and  N_6
REMARK    3  A    between atoms: N_6  and  C_7
REMARK    4  A    between atoms: C_7  and  C_8
REMARK                            x       y       z     vdW  Elec       q    Type
REMARK                         _______ _______ _______ _____ _____    ______ ____
ROOT
ATOM      1  N   UNL     1       4.788   5.511  18.189  0.00  0.00    +0.000 NA
ATOM      2  H   UNL     1       5.379   6.310  17.861  0.00  0.00    +0.000 HD
ENDROOT
BRANCH   1   3
ATOM      3  C   UNL     1       5.365   4.254  17.699  0.00  0.00    +0.000 C 
BRANCH   3   7
ATOM      4 BR   UNL     1       5.738   3.246  12.313  0.00  0.00    +0.000 Br
ATOM      5  C   UNL     1       6.085   4.014  14.023  0.00  0.00    +0.000 A 
ATOM      6  C   UNL     1       5.432   3.695  15.202  0.00  0.00    +0.000 A 
ATOM      7  C   UNL     1       5.902   4.425  16.306  0.00  0.00    +0.000 A 
ATOM      8  C   UNL     1       6.925   5.315  15.985  0.00  0.00    +0.000 A 
ATOM      9  S   UNL     1       7.243   5.187  14.339  0.00  0.00    +0.000 S 
ENDBRANCH   3   7
ENDBRANCH   1   3
BRANCH   1  10
ATOM     10  C   UNL     1       3.434   5.698  17.659  0.00  0.00    +0.000 C 
BRANCH  10  11
ATOM     11  C   UNL     1       2.552   4.587  18.129  0.00  0.00    +0.000 A 
ATOM     12  N   UNL     1       1.845   3.753  17.325  0.00  0.00    +0.000 NA
ATOM     13  N   UNL     1       1.131   2.946  18.116  0.00  0.00    +0.000 NA
ATOM     14  C   UNL     1       1.460   3.291  19.373  0.00  0.00    +0.000 A 
ATOM     15  N   UNL     1       2.313   4.285  19.408  0.00  0.00    +0.000 N 
ATOM     16  C   UNL     1       2.588   4.757  20.743  0.00  0.00    +0.000 C 
ATOM     17  C   UNL     1       2.030   3.583  21.582  0.00  0.00    +0.000 C 
ATOM     18  C   UNL     1       0.948   2.902  20.704  0.00  0.00    +0.000 C 
ENDBRANCH  10  11
ENDBRANCH   1  10
TORSDOF 4
ENDMDL
MODEL 3
REMARK VINA RESULT:      -6.4      3.746      6.554
REMARK  Name = 
REMARK  4 active torsions:
REMARK  status: ('A' for Active; 'I' for Inactive)
REMARK    1  A    between atoms: C_4  and  C_5
REMARK    2  A    between atoms: C_5  and  N_6
REMARK    3  A    between atoms: N_6  and  C_7
REMARK    4  A    between atoms: C_7  and  C_8
REMARK                            x       y       z     vdW  Elec       q    Type
REMARK                         _______ _______ _______ _____ _____    ______ ____
ROOT
ATOM      1  N   UNL     1       5.334   3.880  17.120  0.00  0.00    +0.000 NA
ATOM      2  H   UNL     1       4.437   3.339  17.088  0.00  0.00    +0.000 HD
ENDROOT
BRANCH   1   3
ATOM      3  C   UNL     1       5.612   4.267  18.508  0.00  0.00    +0.000 C 
BRANCH   3   7
ATOM      4 BR   UNL     1       1.407   2.612  21.630  0.00  0.00    +0.000 Br
ATOM      5  C   UNL     1       2.537   3.749  20.597  0.00  0.00    +0.000 A 
ATOM      6  C   UNL     1       3.712   3.369  19.970  0.00  0.00    +0.000 A 
ATOM      7  C   UNL     1       4.333   4.425  19.281  0.00  0.00    +0.000 A 
ATOM      8  C   UNL     1       3.638   5.628  19.372  0.00  0.00    +0.000 A 
ATOM      9  S   UNL     1       2.259   5.377  20.301  0.00  0.00    +0.000 S 
ENDBRANCH   3   7
ENDBRANCH   1   3
BRANCH   1  10
ATOM     10  C   UNL     1       5.179   5.067  16.274  0.00  0.00    +0.000 C 
BRANCH  10  11
ATOM     11  C   UNL     1       6.224   5.064  15.207  0.00  0.00    +0.000 A 
ATOM     12  N   UNL     1       7.408   5.724  15.265  0.00  0.00    +0.000 NA
ATOM     13  N   UNL     1       8.030   5.532  14.098  0.00  0.00    +0.000 NA
ATOM     14  C   UNL     1       7.220   4.729  13.386  0.00  0.00    +0.000 A 
ATOM     15  N   UNL     1       6.119   4.437  14.032  0.00  0.00    +0.000 N 
ATOM     16  C   UNL     1       5.178   3.679  13.244  0.00  0.00    +0.000 C 
ATOM     17  C   UNL     1       6.088   3.208  12.086  0.00  0.00    +0.000 C 
ATOM     18  C   UNL     1       7.235   4.247  11.989  0.00  0.00    +0.000 C 
ENDBRANCH  10  11
ENDBRANCH   1  10
TORSDOF 4
ENDMDL
MODEL 4
REMARK VINA RESULT:      -6.4      1.172      1.655
REMARK  Name = 
REMARK  4 active torsions:
REMARK  status: ('A' for Active; 'I' for Inactive)
REMARK    1  A    between atoms: C_4  and  C_5
REMARK    2  A    between atoms: C_5  and  N_6
REMARK    3  A    between atoms: N_6  and  C_7
REMARK    4  A    between atoms: C_7  and  C_8
REMARK                            x       y       z     vdW  Elec       q    Type
REMARK                         _______ _______ _______ _____ _____    ______ ____
ROOT
ATOM      1  N   UNL     1       4.775   4.440  15.931  0.00  0.00    +0.000 NA
ATOM      2  H   UNL     1       4.442   4.221  14.962  0.00  0.00    +0.000 HD
ENDROOT
BRANCH   1   3
ATOM      3  C   UNL     1       6.228   4.243  15.995  0.00  0.00    +0.000 C 
BRANCH   3   7
ATOM      4 BR   UNL     1       8.137   9.028  17.900  0.00  0.00    +0.000 Br
ATOM      5  C   UNL     1       7.665   7.182  17.836  0.00  0.00    +0.000 A 
ATOM      6  C   UNL     1       7.076   6.533  16.763  0.00  0.00    +0.000 A 
ATOM      7  C   UNL     1       6.844   5.169  17.006  0.00  0.00    +0.000 A 
ATOM      8  C   UNL     1       7.252   4.756  18.272  0.00  0.00    +0.000 A 
ATOM      9  S   UNL     1       7.903   6.079  19.079  0.00  0.00    +0.000 S 
ENDBRANCH   3   7
ENDBRANCH   1   3
BRANCH   1  10
ATOM     10  C   UNL     1       4.091   3.537  16.862  0.00  0.00    +0.000 C 
BRANCH  10  11
ATOM     11  C   UNL     1       3.303   4.336  17.848  0.00  0.00    +0.000 A 
ATOM     12  N   UNL     1       3.321   5.688  17.956  0.00  0.00    +0.000 NA
ATOM     13  N   UNL     1       2.544   6.016  18.994  0.00  0.00    +0.000 NA
ATOM     14  C   UNL     1       2.050   4.854  19.455  0.00  0.00    +0.000 A 
ATOM     15  N   UNL     1       2.499   3.823  18.783  0.00  0.00    +0.000 N 
ATOM     16  C   UNL     1       2.083   2.556  19.334  0.00  0.00    +0.000 C 
ATOM     17  C   UNL     1       0.940   3.013  20.271  0.00  0.00    +0.000 C 
ATOM     18  C   UNL     1       1.250   4.487  20.642  0.00  0.00    +0.000 C 
ENDBRANCH  10  11
ENDBRANCH   1  10
TORSDOF 4
ENDMDL
MODEL 5
REMARK VINA RESULT:      -6.3      2.711      3.224
REMARK  Name = 
REMARK  4 active torsions:
REMARK  status: ('A' for Active; 'I' for Inactive)
REMARK    1  A    between atoms: C_4  and  C_5
REMARK    2  A    between atoms: C_5  and  N_6
REMARK    3  A    between atoms: N_6  and  C_7
REMARK    4  A    between atoms: C_7  and  C_8
REMARK                            x       y       z     vdW  Elec       q    Type
REMARK                         _______ _______ _______ _____ _____    ______ ____
ROOT
ATOM      1  N   UNL     1       3.435   6.620  18.474  0.00  0.00    +0.000 NA
ATOM      2  H   UNL     1       3.195   7.315  19.219  0.00  0.00    +0.000 HD
ENDROOT
BRANCH   1   3
ATOM      3  C   UNL     1       4.322   7.255  17.492  0.00  0.00    +0.000 C 
BRANCH   3   7
ATOM      4 BR   UNL     1       6.363   3.956  13.604  0.00  0.00    +0.000 Br
ATOM      5  C   UNL     1       6.155   4.838  15.282  0.00  0.00    +0.000 A 
ATOM      6  C   UNL     1       5.177   5.769  15.592  0.00  0.00    +0.000 A 
ATOM      7  C   UNL     1       5.274   6.248  16.909  0.00  0.00    +0.000 A 
ATOM      8  C   UNL     1       6.329   5.689  17.625  0.00  0.00    +0.000 A 
ATOM      9  S   UNL     1       7.132   4.601  16.625  0.00  0.00    +0.000 S 
ENDBRANCH   3   7
ENDBRANCH   1   3
BRANCH   1  10
ATOM     10  C   UNL     1       2.188   6.185  17.838  0.00  0.00    +0.000 C 
BRANCH  10  11
ATOM     11  C   UNL     1       1.849   4.802  18.288  0.00  0.00    +0.000 A 
ATOM     12  N   UNL     1       1.414   3.800  17.485  0.00  0.00    +0.000 NA
ATOM     13  N   UNL     1       1.154   2.746  18.265  0.00  0.00    +0.000 NA
ATOM     14  C   UNL     1       1.478   3.133  19.512  0.00  0.00    +0.000 A 
ATOM     15  N   UNL     1       1.895   4.374  19.553  0.00  0.00    +0.000 N 
ATOM     16  C   UNL     1       2.131   4.854  20.893  0.00  0.00    +0.000 C 
ATOM     17  C   UNL     1       2.157   3.519  21.675  0.00  0.00    +0.000 C 
ATOM     18  C   UNL     1       1.312   2.518  20.845  0.00  0.00    +0.000 C 
ENDBRANCH  10  11
ENDBRANCH   1  10
TORSDOF 4
ENDMDL
MODEL 6
REMARK VINA RESULT:      -6.3      3.380      6.211
REMARK  Name = 
REMARK  4 active torsions:
REMARK  status: ('A' for Active; 'I' for Inactive)
REMARK    1  A    between atoms: C_4  and  C_5
REMARK    2  A    between atoms: C_5  and  N_6
REMARK    3  A    between atoms: N_6  and  C_7
REMARK    4  A    between atoms: C_7  and  C_8
REMARK                            x       y       z     vdW  Elec       q    Type
REMARK                         _______ _______ _______ _____ _____    ______ ____
ROOT
ATOM      1  N   UNL     1       5.162   3.572  17.301  0.00  0.00    +0.000 NA
ATOM      2  H   UNL     1       4.362   2.898  17.353  0.00  0.00    +0.000 HD
ENDROOT
BRANCH   1   3
ATOM      3  C   UNL     1       5.380   4.163  18.627  0.00  0.00    +0.000 C 
BRANCH   3   7
ATOM      4 BR   UNL     1       1.492   7.482  20.635  0.00  0.00    +0.000 Br
ATOM      5  C   UNL     1       2.408   5.885  20.141  0.00  0.00    +0.000 A 
ATOM      6  C   UNL     1       3.644   5.819  19.519  0.00  0.00    +0.000 A 
ATOM      7  C   UNL     1       4.068   4.501  19.277  0.00  0.00    +0.000 A 
ATOM      8  C   UNL     1       3.160   3.540  19.713  0.00  0.00    +0.000 A 
ATOM      9  S   UNL     1       1.841   4.326  20.399  0.00  0.00    +0.000 S 
ENDBRANCH   3   7
ENDBRANCH   1   3
BRANCH   1  10
ATOM     10  C   UNL     1       4.820   4.609  16.323  0.00  0.00    +0.000 C 
BRANCH  10  11
ATOM     11  C   UNL     1       5.965   4.814  15.386  0.00  0.00    +0.000 A 
ATOM     12  N   UNL     1       7.082   5.533  15.658  0.00  0.00    +0.000 NA
ATOM     13  N   UNL     1       7.833   5.539  14.552  0.00  0.00    +0.000 NA
ATOM     14  C   UNL     1       7.163   4.789  13.659  0.00  0.00    +0.000 A 
ATOM     15  N   UNL     1       6.028   4.344  14.137  0.00  0.00    +0.000 N 
ATOM     16  C   UNL     1       5.232   3.641  13.161  0.00  0.00    +0.000 C 
ATOM     17  C   UNL     1       6.288   3.387  12.060  0.00  0.00    +0.000 C 
ATOM     18  C   UNL     1       7.356   4.500  12.222  0.00  0.00    +0.000 C 
ENDBRANCH  10  11
ENDBRANCH   1  10
TORSDOF 4
ENDMDL
MODEL 7
REMARK VINA RESULT:      -6.3      3.188      3.727
REMARK  Name = 
REMARK  4 active torsions:
REMARK  status: ('A' for Active; 'I' for Inactive)
REMARK    1  A    between atoms: C_4  and  C_5
REMARK    2  A    between atoms: C_5  and  N_6
REMARK    3  A    between atoms: N_6  and  C_7
REMARK    4  A    between atoms: C_7  and  C_8
REMARK                            x       y       z     vdW  Elec       q    Type
REMARK                         _______ _______ _______ _____ _____    ______ ____
ROOT
ATOM      1  N   UNL     1       5.470   3.749  16.755  0.00  0.00    +0.000 NA
ATOM      2  H   UNL     1       5.855   2.918  17.264  0.00  0.00    +0.000 HD
ENDROOT
BRANCH   1   3
ATOM      3  C   UNL     1       6.576   4.485  16.130  0.00  0.00    +0.000 C 
BRANCH   3   7
ATOM      4 BR   UNL     1       4.363   3.080  11.304  0.00  0.00    +0.000 Br
ATOM      5  C   UNL     1       5.606   3.767  12.576  0.00  0.00    +0.000 A 
ATOM      6  C   UNL     1       5.430   3.789  13.950  0.00  0.00    +0.000 A 
ATOM      7  C   UNL     1       6.517   4.358  14.634  0.00  0.00    +0.000 A 
ATOM      8  C   UNL     1       7.541   4.781  13.790  0.00  0.00    +0.000 A 
ATOM      9  S   UNL     1       7.096   4.443  12.204  0.00  0.00    +0.000 S 
ENDBRANCH   3   7
ENDBRANCH   1   3
BRANCH   1  10
ATOM     10  C   UNL     1       4.772   4.595  17.728  0.00  0.00    +0.000 C 
BRANCH  10  11
ATOM     11  C   UNL     1       4.361   3.773  18.906  0.00  0.00    +0.000 A 
ATOM     12  N   UNL     1       5.163   2.909  19.578  0.00  0.00    +0.000 NA
ATOM     13  N   UNL     1       4.416   2.319  20.516  0.00  0.00    +0.000 NA
ATOM     14  C   UNL     1       3.197   2.875  20.408  0.00  0.00    +0.000 A 
ATOM     15  N   UNL     1       3.136   3.753  19.438  0.00  0.00    +0.000 N 
ATOM     16  C   UNL     1       1.808   4.273  19.219  0.00  0.00    +0.000 C 
ATOM     17  C   UNL     1       1.109   3.832  20.527  0.00  0.00    +0.000 C 
ATOM     18  C   UNL     1       1.888   2.591  21.035  0.00  0.00    +0.000 C 
ENDBRANCH  10  11
ENDBRANCH   1  10
TORSDOF 4
ENDMDL
MODEL 8
REMARK VINA RESULT:      -6.3      3.215      5.796
REMARK  Name = 
REMARK  4 active torsions:
REMARK  status: ('A' for Active; 'I' for Inactive)
REMARK    1  A    between atoms: C_4  and  C_5
REMARK    2  A    between atoms: C_5  and  N_6
REMARK    3  A    between atoms: N_6  and  C_7
REMARK    4  A    between atoms: C_7  and  C_8
REMARK                            x       y       z     vdW  Elec       q    Type
REMARK                         _______ _______ _______ _____ _____    ______ ____
ROOT
ATOM      1  N   UNL     1       5.021   3.166  16.635  0.00  0.00    +0.000 NA
ATOM      2  H   UNL     1       5.059   2.160  16.345  0.00  0.00    +0.000 HD
ENDROOT
BRANCH   1   3
ATOM      3  C   UNL     1       3.621   3.606  16.660  0.00  0.00    +0.000 C 
BRANCH   3   7
ATOM      4 BR   UNL     1       1.708   2.701  21.728  0.00  0.00    +0.000 Br
ATOM      5  C   UNL     1       2.394   3.623  20.207  0.00  0.00    +0.000 A 
ATOM      6  C   UNL     1       2.725   3.048  18.992  0.00  0.00    +0.000 A 
ATOM      7  C   UNL     1       3.207   3.978  18.056  0.00  0.00    +0.000 A 
ATOM      8  C   UNL     1       3.252   5.282  18.546  0.00  0.00    +0.000 A 
ATOM      9  S   UNL     1       2.689   5.274  20.130  0.00  0.00    +0.000 S 
ENDBRANCH   3   7
ENDBRANCH   1   3
BRANCH   1  10
ATOM     10  C   UNL     1       5.791   3.949  15.665  0.00  0.00    +0.000 C 
BRANCH  10  11
ATOM     11  C   UNL     1       6.153   5.271  16.259  0.00  0.00    +0.000 A 
ATOM     12  N   UNL     1       5.760   6.479  15.785  0.00  0.00    +0.000 NA
ATOM     13  N   UNL     1       6.342   7.415  16.541  0.00  0.00    +0.000 NA
ATOM     14  C   UNL     1       7.037   6.741  17.474  0.00  0.00    +0.000 A 
ATOM     15  N   UNL     1       6.944   5.444  17.321  0.00  0.00    +0.000 N 
ATOM     16  C   UNL     1       7.780   4.699  18.232  0.00  0.00    +0.000 C 
ATOM     17  C   UNL     1       8.123   5.797  19.267  0.00  0.00    +0.000 C 
ATOM     18  C   UNL     1       8.000   7.149  18.519  0.00  0.00    +0.000 C 
ENDBRANCH  10  11
ENDBRANCH   1  10
TORSDOF 4
ENDMDL
MODEL 9
REMARK VINA RESULT:      -6.2      3.322      3.940
REMARK  Name = 
REMARK  4 active torsions:
REMARK  status: ('A' for Active; 'I' for Inactive)
REMARK    1  A    between atoms: C_4  and  C_5
REMARK    2  A    between atoms: C_5  and  N_6
REMARK    3  A    between atoms: N_6  and  C_7
REMARK    4  A    between atoms: C_7  and  C_8
REMARK                            x       y       z     vdW  Elec       q    Type
REMARK                         _______ _______ _______ _____ _____    ______ ____
ROOT
ATOM      1  N   UNL     1       5.848   3.937  16.811  0.00  0.00    +0.000 NA
ATOM      2  H   UNL     1       6.402   3.328  17.458  0.00  0.00    +0.000 HD
ENDROOT
BRANCH   1   3
ATOM      3  C   UNL     1       6.767   4.809  16.068  0.00  0.00    +0.000 C 
BRANCH   3   7
ATOM      4 BR   UNL     1       4.376   3.009  11.463  0.00  0.00    +0.000 Br
ATOM      5  C   UNL     1       5.658   3.810  12.624  0.00  0.00    +0.000 A 
ATOM      6  C   UNL     1       5.542   3.932  13.999  0.00  0.00    +0.000 A 
ATOM      7  C   UNL     1       6.646   4.568  14.590  0.00  0.00    +0.000 A 
ATOM      8  C   UNL     1       7.625   4.942  13.671  0.00  0.00    +0.000 A 
ATOM      9  S   UNL     1       7.119   4.478  12.137  0.00  0.00    +0.000 S 
ENDBRANCH   3   7
ENDBRANCH   1   3
BRANCH   1  10
ATOM     10  C   UNL     1       4.919   4.734  17.617  0.00  0.00    +0.000 C 
BRANCH  10  11
ATOM     11  C   UNL     1       3.696   3.931  17.917  0.00  0.00    +0.000 A 
ATOM     12  N   UNL     1       3.184   2.956  17.125  0.00  0.00    +0.000 NA
ATOM     13  N   UNL     1       2.056   2.526  17.698  0.00  0.00    +0.000 NA
ATOM     14  C   UNL     1       1.943   3.228  18.840  0.00  0.00    +0.000 A 
ATOM     15  N   UNL     1       2.919   4.088  18.992  0.00  0.00    +0.000 N 
ATOM     16  C   UNL     1       2.757   4.939  20.145  0.00  0.00    +0.000 C 
ATOM     17  C   UNL     1       1.665   4.165  20.921  0.00  0.00    +0.000 C 
ATOM     18  C   UNL     1       0.882   3.346  19.862  0.00  0.00    +0.000 C 
ENDBRANCH  10  11
ENDBRANCH   1  10
TORSDOF 4
ENDMDL
