MODEL 1
REMARK VINA RESULT:      -6.6      0.000      0.000
REMARK  Name = 
REMARK  4 active torsions:
REMARK  status: ('A' for Active; 'I' for Inactive)
REMARK    1  A    between atoms: C_1  and  C_2
REMARK    2  A    between atoms: C_2  and  N_3
REMARK    3  A    between atoms: C_7  and  C_8
REMARK    4  A    between atoms: C_8  and  C_9
REMARK                            x       y       z     vdW  Elec       q    Type
REMARK                         _______ _______ _______ _____ _____    ______ ____
ROOT
ATOM      1  C   UNL     1       4.155   4.888  19.490  0.00  0.00    +0.000 C 
ENDROOT
BRANCH   1   2
ATOM      2  C   UNL     1       3.379   3.558  19.384  0.00  0.00    +0.000 C 
ATOM      3  C   UNL     1       1.874   3.685  19.115  0.00  0.00    +0.000 C 
ATOM      4  C   UNL     1       1.046   3.811  20.389  0.00  0.00    +0.000 C 
ATOM      5  C   UNL     1       1.418   2.749  21.421  0.00  0.00    +0.000 C 
ATOM      6  N   UNL     1       2.851   2.732  21.710  0.00  0.00    +0.000 NA
ATOM      7  C   UNL     1       3.645   2.534  20.502  0.00  0.00    +0.000 C 
ATOM      8  H   UNL     1       3.118   3.620  22.144  0.00  0.00    +0.000 HD
ENDBRANCH   1   2
BRANCH   1  13
ATOM      9  N   UNL     1       5.949   4.630  17.683  0.00  0.00    +0.000 N 
ATOM     10  C   UNL     1       7.312   4.611  17.707  0.00  0.00    +0.000 A 
ATOM     11  N   UNL     1       7.736   4.989  18.884  0.00  0.00    +0.000 NA
ATOM     12  N   UNL     1       6.632   5.221  19.676  0.00  0.00    +0.000 NA
ATOM     13  C   UNL     1       5.551   4.980  18.961  0.00  0.00    +0.000 A 
BRANCH   9  15
ATOM     14  C   UNL     1       5.942   3.996  15.269  0.00  0.00    +0.000 C 
ATOM     15  C   UNL     1       5.146   4.404  16.501  0.00  0.00    +0.000 C 
ENDBRANCH   9  15
ENDBRANCH   1  13
TORSDOF 3
ENDMDL
MODEL 2
REMARK VINA RESULT:      -6.5      2.129      5.226
REMARK  Name = 
REMARK  4 active torsions:
REMARK  status: ('A' for Active; 'I' for Inactive)
REMARK    1  A    between atoms: C_1  and  C_2
REMARK    2  A    between atoms: C_2  and  N_3
REMARK    3  A    between atoms: C_7  and  C_8
REMARK    4  A    between atoms: C_8  and  C_9
REMARK                            x       y       z     vdW  Elec       q    Type
REMARK                         _______ _______ _______ _____ _____    ______ ____
ROOT
ATOM      1  C   UNL     1       2.539   5.709  18.120  0.00  0.00    +0.000 C 
ENDROOT
BRANCH   1   2
ATOM      2  C   UNL     1       4.032   6.095  18.207  0.00  0.00    +0.000 C 
ATOM      3  C   UNL     1       4.671   6.581  16.901  0.00  0.00    +0.000 C 
ATOM      4  C   UNL     1       5.240   5.447  16.054  0.00  0.00    +0.000 C 
ATOM      5  C   UNL     1       6.116   4.503  16.875  0.00  0.00    +0.000 C 
ATOM      6  N   UNL     1       5.426   3.995  18.061  0.00  0.00    +0.000 NA
ATOM      7  C   UNL     1       4.947   5.078  18.913  0.00  0.00    +0.000 C 
ATOM      8  H   UNL     1       4.631   3.422  17.769  0.00  0.00    +0.000 HD
ENDBRANCH   1   2
BRANCH   1  13
ATOM      9  N   UNL     1       1.706   3.530  19.172  0.00  0.00    +0.000 N 
ATOM     10  C   UNL     1       1.715   2.228  18.768  0.00  0.00    +0.000 A 
ATOM     11  N   UNL     1       2.059   2.160  17.508  0.00  0.00    +0.000 NA
ATOM     12  N   UNL     1       2.330   3.441  17.077  0.00  0.00    +0.000 NA
ATOM     13  C   UNL     1       2.143   4.268  18.086  0.00  0.00    +0.000 A 
BRANCH   9  15
ATOM     14  C   UNL     1       1.991   3.394  21.647  0.00  0.00    +0.000 C 
ATOM     15  C   UNL     1       1.239   3.985  20.463  0.00  0.00    +0.000 C 
ENDBRANCH   9  15
ENDBRANCH   1  13
TORSDOF 3
ENDMDL
MODEL 3
REMARK VINA RESULT:      -6.5      1.572      1.645
REMARK  Name = 
REMARK  4 active torsions:
REMARK  status: ('A' for Active; 'I' for Inactive)
REMARK    1  A    between atoms: C_1  and  C_2
REMARK    2  A    between atoms: C_2  and  N_3
REMARK    3  A    between atoms: C_7  and  C_8
REMARK    4  A    between atoms: C_8  and  C_9
REMARK                            x       y       z     vdW  Elec       q    Type
REMARK                         _______ _______ _______ _____ _____    ______ ____
ROOT
ATOM      1  C   UNL     1       4.048   5.094  18.155  0.00  0.00    +0.000 C 
ENDROOT
BRANCH   1   2
ATOM      2  C   UNL     1       3.135   4.025  17.518  0.00  0.00    +0.000 C 
ATOM      3  C   UNL     1       1.632   4.199  17.767  0.00  0.00    +0.000 C 
ATOM      4  C   UNL     1       1.155   3.524  19.050  0.00  0.00    +0.000 C 
ATOM      5  C   UNL     1       1.653   2.085  19.160  0.00  0.00    +0.000 C 
ATOM      6  N   UNL     1       3.104   1.986  19.007  0.00  0.00    +0.000 NA
ATOM      7  C   UNL     1       3.556   2.562  17.744  0.00  0.00    +0.000 C 
ATOM      8  H   UNL     1       3.559   2.477  19.781  0.00  0.00    +0.000 HD
ENDBRANCH   1   2
BRANCH   1  13
ATOM      9  N   UNL     1       6.205   5.017  16.780  0.00  0.00    +0.000 N 
ATOM     10  C   UNL     1       7.486   4.644  17.061  0.00  0.00    +0.000 A 
ATOM     11  N   UNL     1       7.623   4.480  18.351  0.00  0.00    +0.000 NA
ATOM     12  N   UNL     1       6.396   4.703  18.937  0.00  0.00    +0.000 NA
ATOM     13  C   UNL     1       5.531   5.002  17.988  0.00  0.00    +0.000 A 
BRANCH   9  15
ATOM     14  C   UNL     1       5.667   4.285  14.456  0.00  0.00    +0.000 C 
ATOM     15  C   UNL     1       5.735   5.416  15.471  0.00  0.00    +0.000 C 
ENDBRANCH   9  15
ENDBRANCH   1  13
TORSDOF 3
ENDMDL
MODEL 4
REMARK VINA RESULT:      -6.3      1.065      1.102
REMARK  Name = 
REMARK  4 active torsions:
REMARK  status: ('A' for Active; 'I' for Inactive)
REMARK    1  A    between atoms: C_1  and  C_2
REMARK    2  A    between atoms: C_2  and  N_3
REMARK    3  A    between atoms: C_7  and  C_8
REMARK    4  A    between atoms: C_8  and  C_9
REMARK                            x       y       z     vdW  Elec       q    Type
REMARK                         _______ _______ _______ _____ _____    ______ ____
ROOT
ATOM      1  C   UNL     1       3.978   4.301  18.086  0.00  0.00    +0.000 C 
ENDROOT
BRANCH   1   2
ATOM      2  C   UNL     1       3.482   2.894  18.483  0.00  0.00    +0.000 C 
ATOM      3  C   UNL     1       2.022   2.580  18.132  0.00  0.00    +0.000 C 
ATOM      4  C   UNL     1       1.041   2.993  19.224  0.00  0.00    +0.000 C 
ATOM      5  C   UNL     1       1.480   2.507  20.604  0.00  0.00    +0.000 C 
ATOM      6  N   UNL     1       2.847   2.913  20.927  0.00  0.00    +0.000 NA
ATOM      7  C   UNL     1       3.800   2.452  19.923  0.00  0.00    +0.000 C 
ATOM      8  H   UNL     1       2.890   3.934  20.986  0.00  0.00    +0.000 HD
ENDBRANCH   1   2
BRANCH   1  13
ATOM      9  N   UNL     1       6.088   4.661  16.683  0.00  0.00    +0.000 N 
ATOM     10  C   UNL     1       7.422   4.612  16.961  0.00  0.00    +0.000 A 
ATOM     11  N   UNL     1       7.599   4.550  18.255  0.00  0.00    +0.000 NA
ATOM     12  N   UNL     1       6.356   4.509  18.848  0.00  0.00    +0.000 NA
ATOM     13  C   UNL     1       5.441   4.549  17.901  0.00  0.00    +0.000 A 
BRANCH   9  15
ATOM     14  C   UNL     1       6.083   3.943  14.292  0.00  0.00    +0.000 C 
ATOM     15  C   UNL     1       5.532   4.873  15.364  0.00  0.00    +0.000 C 
ENDBRANCH   9  15
ENDBRANCH   1  13
TORSDOF 3
ENDMDL
MODEL 5
REMARK VINA RESULT:      -6.3      1.117      1.562
REMARK  Name = 
REMARK  4 active torsions:
REMARK  status: ('A' for Active; 'I' for Inactive)
REMARK    1  A    between atoms: C_1  and  C_2
REMARK    2  A    between atoms: C_2  and  N_3
REMARK    3  A    between atoms: C_7  and  C_8
REMARK    4  A    between atoms: C_8  and  C_9
REMARK                            x       y       z     vdW  Elec       q    Type
REMARK                         _______ _______ _______ _____ _____    ______ ____
ROOT
ATOM      1  C   UNL     1       4.226   4.963  19.307  0.00  0.00    +0.000 C 
ENDROOT
BRANCH   1   2
ATOM      2  C   UNL     1       3.655   3.598  19.747  0.00  0.00    +0.000 C 
ATOM      3  C   UNL     1       3.636   2.506  18.670  0.00  0.00    +0.000 C 
ATOM      4  C   UNL     1       2.365   2.517  17.828  0.00  0.00    +0.000 C 
ATOM      5  C   UNL     1       1.106   2.577  18.690  0.00  0.00    +0.000 C 
ATOM      6  N   UNL     1       1.135   3.692  19.637  0.00  0.00    +0.000 NA
ATOM      7  C   UNL     1       2.312   3.642  20.498  0.00  0.00    +0.000 C 
ATOM      8  H   UNL     1       1.136   4.575  19.119  0.00  0.00    +0.000 HD
ENDBRANCH   1   2
BRANCH   1  13
ATOM      9  N   UNL     1       6.127   4.861  17.598  0.00  0.00    +0.000 N 
ATOM     10  C   UNL     1       7.485   4.794  17.705  0.00  0.00    +0.000 A 
ATOM     11  N   UNL     1       7.840   5.016  18.943  0.00  0.00    +0.000 NA
ATOM     12  N   UNL     1       6.692   5.189  19.686  0.00  0.00    +0.000 NA
ATOM     13  C   UNL     1       5.655   5.071  18.881  0.00  0.00    +0.000 A 
BRANCH   9  15
ATOM     14  C   UNL     1       5.993   3.854  15.318  0.00  0.00    +0.000 C 
ATOM     15  C   UNL     1       5.398   4.803  16.349  0.00  0.00    +0.000 C 
ENDBRANCH   9  15
ENDBRANCH   1  13
TORSDOF 3
ENDMDL
MODEL 6
REMARK VINA RESULT:      -6.2      2.787      4.744
REMARK  Name = 
REMARK  4 active torsions:
REMARK  status: ('A' for Active; 'I' for Inactive)
REMARK    1  A    between atoms: C_1  and  C_2
REMARK    2  A    between atoms: C_2  and  N_3
REMARK    3  A    between atoms: C_7  and  C_8
REMARK    4  A    between atoms: C_8  and  C_9
REMARK                            x       y       z     vdW  Elec       q    Type
REMARK                         _______ _______ _______ _____ _____    ______ ____
ROOT
ATOM      1  C   UNL     1       6.022   3.717  15.501  0.00  0.00    +0.000 C 
ENDROOT
BRANCH   1   2
ATOM      2  C   UNL     1       4.999   4.437  16.406  0.00  0.00    +0.000 C 
ATOM      3  C   UNL     1       5.324   5.896  16.750  0.00  0.00    +0.000 C 
ATOM      4  C   UNL     1       6.194   6.039  17.994  0.00  0.00    +0.000 C 
ATOM      5  C   UNL     1       5.660   5.217  19.165  0.00  0.00    +0.000 C 
ATOM      6  N   UNL     1       5.454   3.813  18.810  0.00  0.00    +0.000 NA
ATOM      7  C   UNL     1       4.560   3.669  17.666  0.00  0.00    +0.000 C 
ATOM      8  H   UNL     1       6.357   3.387  18.585  0.00  0.00    +0.000 HD
ENDBRANCH   1   2
BRANCH   1  13
ATOM      9  N   UNL     1       6.568   4.195  13.047  0.00  0.00    +0.000 N 
ATOM     10  C   UNL     1       7.539   4.922  12.424  0.00  0.00    +0.000 A 
ATOM     11  N   UNL     1       8.178   5.648  13.304  0.00  0.00    +0.000 NA
ATOM     12  N   UNL     1       7.651   5.364  14.546  0.00  0.00    +0.000 NA
ATOM     13  C   UNL     1       6.697   4.467  14.398  0.00  0.00    +0.000 A 
BRANCH   9  15
ATOM     14  C   UNL     1       6.156   2.206  11.597  0.00  0.00    +0.000 C 
ATOM     15  C   UNL     1       5.581   3.388  12.363  0.00  0.00    +0.000 C 
ENDBRANCH   9  15
ENDBRANCH   1  13
TORSDOF 3
ENDMDL
MODEL 7
REMARK VINA RESULT:      -6.2      1.751      5.060
REMARK  Name = 
REMARK  4 active torsions:
REMARK  status: ('A' for Active; 'I' for Inactive)
REMARK    1  A    between atoms: C_1  and  C_2
REMARK    2  A    between atoms: C_2  and  N_3
REMARK    3  A    between atoms: C_7  and  C_8
REMARK    4  A    between atoms: C_8  and  C_9
REMARK                            x       y       z     vdW  Elec       q    Type
REMARK                         _______ _______ _______ _____ _____    ______ ____
ROOT
ATOM      1  C   UNL     1       5.019   5.469  18.696  0.00  0.00    +0.000 C 
ENDROOT
BRANCH   1   2
ATOM      2  C   UNL     1       4.944   5.787  17.187  0.00  0.00    +0.000 C 
ATOM      3  C   UNL     1       4.746   4.580  16.262  0.00  0.00    +0.000 C 
ATOM      4  C   UNL     1       6.058   3.931  15.834  0.00  0.00    +0.000 C 
ATOM      5  C   UNL     1       7.068   4.959  15.328  0.00  0.00    +0.000 C 
ATOM      6  N   UNL     1       7.290   6.039  16.288  0.00  0.00    +0.000 NA
ATOM      7  C   UNL     1       6.045   6.714  16.641  0.00  0.00    +0.000 C 
ATOM      8  H   UNL     1       7.714   5.655  17.137  0.00  0.00    +0.000 HD
ENDBRANCH   1   2
BRANCH   1  13
ATOM      9  N   UNL     1       3.225   3.847  19.530  0.00  0.00    +0.000 N 
ATOM     10  C   UNL     1       3.269   2.655  20.192  0.00  0.00    +0.000 A 
ATOM     11  N   UNL     1       4.497   2.210  20.214  0.00  0.00    +0.000 NA
ATOM     12  N   UNL     1       5.296   3.147  19.595  0.00  0.00    +0.000 NA
ATOM     13  C   UNL     1       4.535   4.149  19.203  0.00  0.00    +0.000 A 
BRANCH   9  15
ATOM     14  C   UNL     1       1.469   4.259  17.804  0.00  0.00    +0.000 C 
ATOM     15  C   UNL     1       2.008   4.556  19.197  0.00  0.00    +0.000 C 
ENDBRANCH   9  15
ENDBRANCH   1  13
TORSDOF 3
ENDMDL
MODEL 8
REMARK VINA RESULT:      -6.2      1.579      1.834
REMARK  Name = 
REMARK  4 active torsions:
REMARK  status: ('A' for Active; 'I' for Inactive)
REMARK    1  A    between atoms: C_1  and  C_2
REMARK    2  A    between atoms: C_2  and  N_3
REMARK    3  A    between atoms: C_7  and  C_8
REMARK    4  A    between atoms: C_8  and  C_9
REMARK                            x       y       z     vdW  Elec       q    Type
REMARK                         _______ _______ _______ _____ _____    ______ ____
ROOT
ATOM      1  C   UNL     1       3.902   3.537  17.709  0.00  0.00    +0.000 C 
ENDROOT
BRANCH   1   2
ATOM      2  C   UNL     1       2.594   4.338  17.888  0.00  0.00    +0.000 C 
ATOM      3  C   UNL     1       2.682   5.556  18.815  0.00  0.00    +0.000 C 
ATOM      4  C   UNL     1       2.415   5.217  20.278  0.00  0.00    +0.000 C 
ATOM      5  C   UNL     1       1.149   4.379  20.450  0.00  0.00    +0.000 C 
ATOM      6  N   UNL     1       1.158   3.180  19.612  0.00  0.00    +0.000 NA
ATOM      7  C   UNL     1       1.337   3.507  18.201  0.00  0.00    +0.000 C 
ATOM      8  H   UNL     1       1.919   2.565  19.912  0.00  0.00    +0.000 HD
ENDBRANCH   1   2
BRANCH   1  13
ATOM      9  N   UNL     1       5.950   4.813  16.860  0.00  0.00    +0.000 N 
ATOM     10  C   UNL     1       7.184   5.067  17.383  0.00  0.00    +0.000 A 
ATOM     11  N   UNL     1       7.204   4.727  18.645  0.00  0.00    +0.000 NA
ATOM     12  N   UNL     1       5.973   4.193  18.957  0.00  0.00    +0.000 NA
ATOM     13  C   UNL     1       5.222   4.219  17.875  0.00  0.00    +0.000 A 
BRANCH   9  15
ATOM     14  C   UNL     1       5.877   4.181  14.446  0.00  0.00    +0.000 C 
ATOM     15  C   UNL     1       5.530   5.194  15.529  0.00  0.00    +0.000 C 
ENDBRANCH   9  15
ENDBRANCH   1  13
TORSDOF 3
ENDMDL
MODEL 9
REMARK VINA RESULT:      -6.2      1.466      1.729
REMARK  Name = 
REMARK  4 active torsions:
REMARK  status: ('A' for Active; 'I' for Inactive)
REMARK    1  A    between atoms: C_1  and  C_2
REMARK    2  A    between atoms: C_2  and  N_3
REMARK    3  A    between atoms: C_7  and  C_8
REMARK    4  A    between atoms: C_8  and  C_9
REMARK                            x       y       z     vdW  Elec       q    Type
REMARK                         _______ _______ _______ _____ _____    ______ ____
ROOT
ATOM      1  C   UNL     1       3.944   3.138  17.380  0.00  0.00    +0.000 C 
ENDROOT
BRANCH   1   2
ATOM      2  C   UNL     1       2.461   2.983  17.779  0.00  0.00    +0.000 C 
ATOM      3  C   UNL     1       1.667   4.289  17.909  0.00  0.00    +0.000 C 
ATOM      4  C   UNL     1       1.748   4.903  19.303  0.00  0.00    +0.000 C 
ATOM      5  C   UNL     1       1.465   3.878  20.398  0.00  0.00    +0.000 C 
ATOM      6  N   UNL     1       2.314   2.692  20.282  0.00  0.00    +0.000 NA
ATOM      7  C   UNL     1       2.180   2.057  18.976  0.00  0.00    +0.000 C 
ATOM      8  H   UNL     1       3.291   2.962  20.425  0.00  0.00    +0.000 HD
ENDBRANCH   1   2
BRANCH   1  13
ATOM      9  N   UNL     1       5.367   5.251  17.624  0.00  0.00    +0.000 N 
ATOM     10  C   UNL     1       6.298   5.658  18.533  0.00  0.00    +0.000 A 
ATOM     11  N   UNL     1       6.287   4.854  19.564  0.00  0.00    +0.000 NA
ATOM     12  N   UNL     1       5.361   3.864  19.315  0.00  0.00    +0.000 NA
ATOM     13  C   UNL     1       4.822   4.085  18.133  0.00  0.00    +0.000 A 
BRANCH   9  15
ATOM     14  C   UNL     1       5.650   5.456  15.152  0.00  0.00    +0.000 C 
ATOM     15  C   UNL     1       5.011   5.985  16.429  0.00  0.00    +0.000 C 
ENDBRANCH   9  15
ENDBRANCH   1  13
TORSDOF 3
ENDMDL
