MODEL 1
REMARK VINA RESULT:      -8.6      0.000      0.000
REMARK  Name = 
REMARK  9 active torsions:
REMARK  status: ('A' for Active; 'I' for Inactive)
REMARK    1  A    between atoms: C_1  and  O_2
REMARK    2  A    between atoms: O_2  and  C_3
REMARK    3  A    between atoms: C_3  and  C_5
REMARK    4  A    between atoms: C_5  and  C_6
REMARK    5  A    between atoms: C_9  and  C_10
REMARK    6  A    between atoms: C_10  and  C_11
REMARK    7  A    between atoms: C_19  and  C_20
REMARK    8  A    between atoms: C_20  and  C_21
REMARK    9  A    between atoms: N_27  and  C_28
REMARK                            x       y       z     vdW  Elec       q    Type
REMARK                         _______ _______ _______ _____ _____    ______ ____
ROOT
ATOM      1  C   UNL     1       1.973   4.923  18.395  0.00  0.00    +0.000 C 
ATOM      2  C   UNL     1       3.216   4.050  18.074  0.00  0.00    +0.000 C 
ATOM      3  C   UNL     1       3.726   4.119  16.615  0.00  0.00    +0.000 C 
ATOM      4  C   UNL     1       5.062   4.887  16.696  0.00  0.00    +0.000 C 
ATOM      5  C   UNL     1       4.832   5.650  18.006  0.00  0.00    +0.000 C 
ATOM      6  C   UNL     1       3.729   6.735  17.794  0.00  0.00    +0.000 C 
ATOM      7  C   UNL     1       2.361   6.462  18.502  0.00  0.00    +0.000 C 
ATOM      8  N   UNL     1       4.279   4.610  18.911  0.00  0.00    +0.000 NA
ATOM      9  C   UNL     1       5.194   3.557  19.348  0.00  0.00    +0.000 C 
ENDROOT
BRANCH   1  10
ATOM     10  C   UNL     1       1.194   4.313  19.597  0.00  0.00    +0.000 C 
BRANCH  10  11
ATOM     11  C   UNL     1       0.980   2.808  19.407  0.00  0.00    +0.000 C 
ATOM     12  O   UNL     1       0.302   2.311  18.514  0.00  0.00    +0.000 OA
BRANCH  11  14
ATOM     13  C   UNL     1       2.084   2.846  21.488  0.00  0.00    +0.000 C 
ATOM     14  O   UNL     1       1.659   2.088  20.344  0.00  0.00    +0.000 OA
ENDBRANCH  11  14
ENDBRANCH  10  11
ENDBRANCH   1  10
BRANCH   4  15
ATOM     15  C   UNL     1       5.406   5.693  15.427  0.00  0.00    +0.000 C 
BRANCH  15  16
ATOM     16  C   UNL     1       5.981   4.906  14.264  0.00  0.00    +0.000 A 
ATOM     17  C   UNL     1       5.229   3.899  13.639  0.00  0.00    +0.000 A 
ATOM     18  C   UNL     1       5.707   3.255  12.491  0.00  0.00    +0.000 A 
ATOM     19  C   UNL     1       6.948   3.594  11.963  0.00  0.00    +0.000 A 
ATOM     20  C   UNL     1       7.718   4.580  12.586  0.00  0.00    +0.000 A 
ATOM     21  C   UNL     1       7.241   5.222  13.733  0.00  0.00    +0.000 A 
ENDBRANCH  15  16
ENDBRANCH   4  15
BRANCH   7  22
ATOM     22  C   UNL     1       2.314   7.165  19.891  0.00  0.00    +0.000 C 
BRANCH  22  23
ATOM     23  C   UNL     1       1.488   8.454  19.824  0.00  0.00    +0.000 A 
ATOM     24  C   UNL     1       0.755   8.895  20.938  0.00  0.00    +0.000 A 
ATOM     25  C   UNL     1      -0.210   9.899  20.805  0.00  0.00    +0.000 A 
ATOM     26  C   UNL     1      -0.447  10.483  19.562  0.00  0.00    +0.000 A 
ATOM     27  C   UNL     1       0.320  10.103  18.463  0.00  0.00    +0.000 A 
ATOM     28  C   UNL     1       1.297   9.112  18.598  0.00  0.00    +0.000 A 
ENDBRANCH  22  23
ENDBRANCH   7  22
TORSDOF 7
ENDMDL
MODEL 2
REMARK VINA RESULT:      -8.3      2.457      7.130
REMARK  Name = 
REMARK  9 active torsions:
REMARK  status: ('A' for Active; 'I' for Inactive)
REMARK    1  A    between atoms: C_1  and  O_2
REMARK    2  A    between atoms: O_2  and  C_3
REMARK    3  A    between atoms: C_3  and  C_5
REMARK    4  A    between atoms: C_5  and  C_6
REMARK    5  A    between atoms: C_9  and  C_10
REMARK    6  A    between atoms: C_10  and  C_11
REMARK    7  A    between atoms: C_19  and  C_20
REMARK    8  A    between atoms: C_20  and  C_21
REMARK    9  A    between atoms: N_27  and  C_28
REMARK                            x       y       z     vdW  Elec       q    Type
REMARK                         _______ _______ _______ _____ _____    ______ ____
ROOT
ATOM      1  C   UNL     1       4.483   4.483  16.233  0.00  0.00    +0.000 C 
ATOM      2  C   UNL     1       4.959   5.706  17.064  0.00  0.00    +0.000 C 
ATOM      3  C   UNL     1       4.130   7.000  16.891  0.00  0.00    +0.000 C 
ATOM      4  C   UNL     1       3.377   7.173  18.227  0.00  0.00    +0.000 C 
ATOM      5  C   UNL     1       3.387   5.717  18.709  0.00  0.00    +0.000 C 
ATOM      6  C   UNL     1       2.451   4.858  17.801  0.00  0.00    +0.000 C 
ATOM      7  C   UNL     1       3.168   3.839  16.855  0.00  0.00    +0.000 C 
ATOM      8  N   UNL     1       4.786   5.286  18.457  0.00  0.00    +0.000 NA
ATOM      9  C   UNL     1       5.824   5.876  19.300  0.00  0.00    +0.000 C 
ENDROOT
BRANCH   1  10
ATOM     10  C   UNL     1       5.678   3.521  15.974  0.00  0.00    +0.000 C 
BRANCH  10  11
ATOM     11  C   UNL     1       6.919   4.295  15.516  0.00  0.00    +0.000 C 
ATOM     12  O   UNL     1       7.927   4.456  16.195  0.00  0.00    +0.000 OA
BRANCH  11  14
ATOM     13  C   UNL     1       6.421   3.764  13.274  0.00  0.00    +0.000 C 
ATOM     14  O   UNL     1       6.769   4.764  14.244  0.00  0.00    +0.000 OA
ENDBRANCH  11  14
ENDBRANCH  10  11
ENDBRANCH   1  10
BRANCH   4  15
ATOM     15  C   UNL     1       2.022   7.896  18.100  0.00  0.00    +0.000 C 
BRANCH  15  16
ATOM     16  C   UNL     1       1.526   8.622  19.337  0.00  0.00    +0.000 A 
ATOM     17  C   UNL     1       1.578   8.007  20.598  0.00  0.00    +0.000 A 
ATOM     18  C   UNL     1       1.236   8.716  21.755  0.00  0.00    +0.000 A 
ATOM     19  C   UNL     1       0.821  10.041  21.669  0.00  0.00    +0.000 A 
ATOM     20  C   UNL     1       0.744  10.661  20.419  0.00  0.00    +0.000 A 
ATOM     21  C   UNL     1       1.085   9.952  19.262  0.00  0.00    +0.000 A 
ENDBRANCH  15  16
ENDBRANCH   4  15
BRANCH   7  22
ATOM     22  C   UNL     1       3.252   2.435  17.525  0.00  0.00    +0.000 C 
BRANCH  22  23
ATOM     23  C   UNL     1       2.551   2.437  18.888  0.00  0.00    +0.000 A 
ATOM     24  C   UNL     1       1.160   2.608  18.979  0.00  0.00    +0.000 A 
ATOM     25  C   UNL     1       0.556   2.889  20.209  0.00  0.00    +0.000 A 
ATOM     26  C   UNL     1       1.330   2.991  21.363  0.00  0.00    +0.000 A 
ATOM     27  C   UNL     1       2.701   2.756  21.299  0.00  0.00    +0.000 A 
ATOM     28  C   UNL     1       3.305   2.459  20.073  0.00  0.00    +0.000 A 
ENDBRANCH  22  23
ENDBRANCH   7  22
TORSDOF 7
ENDMDL
MODEL 3
REMARK VINA RESULT:      -8.2      2.458      7.222
REMARK  Name = 
REMARK  9 active torsions:
REMARK  status: ('A' for Active; 'I' for Inactive)
REMARK    1  A    between atoms: C_1  and  O_2
REMARK    2  A    between atoms: O_2  and  C_3
REMARK    3  A    between atoms: C_3  and  C_5
REMARK    4  A    between atoms: C_5  and  C_6
REMARK    5  A    between atoms: C_9  and  C_10
REMARK    6  A    between atoms: C_10  and  C_11
REMARK    7  A    between atoms: C_19  and  C_20
REMARK    8  A    between atoms: C_20  and  C_21
REMARK    9  A    between atoms: N_27  and  C_28
REMARK                            x       y       z     vdW  Elec       q    Type
REMARK                         _______ _______ _______ _____ _____    ______ ____
ROOT
ATOM      1  C   UNL     1       4.613   4.494  16.159  0.00  0.00    +0.000 C 
ATOM      2  C   UNL     1       5.082   5.747  16.948  0.00  0.00    +0.000 C 
ATOM      3  C   UNL     1       4.206   7.011  16.782  0.00  0.00    +0.000 C 
ATOM      4  C   UNL     1       3.499   7.188  18.144  0.00  0.00    +0.000 C 
ATOM      5  C   UNL     1       3.574   5.742  18.652  0.00  0.00    +0.000 C 
ATOM      6  C   UNL     1       2.631   4.837  17.797  0.00  0.00    +0.000 C 
ATOM      7  C   UNL     1       3.344   3.822  16.843  0.00  0.00    +0.000 C 
ATOM      8  N   UNL     1       4.975   5.351  18.354  0.00  0.00    +0.000 NA
ATOM      9  C   UNL     1       6.025   5.989  19.146  0.00  0.00    +0.000 C 
ENDROOT
BRANCH   1  10
ATOM     10  C   UNL     1       5.828   3.564  15.872  0.00  0.00    +0.000 C 
BRANCH  10  11
ATOM     11  C   UNL     1       6.618   4.050  14.653  0.00  0.00    +0.000 C 
ATOM     12  O   UNL     1       7.570   4.821  14.704  0.00  0.00    +0.000 OA
BRANCH  11  14
ATOM     13  C   UNL     1       6.824   3.915  12.309  0.00  0.00    +0.000 C 
ATOM     14  O   UNL     1       6.141   3.498  13.501  0.00  0.00    +0.000 OA
ENDBRANCH  11  14
ENDBRANCH  10  11
ENDBRANCH   1  10
BRANCH   4  15
ATOM     15  C   UNL     1       2.118   7.866  18.055  0.00  0.00    +0.000 C 
BRANCH  15  16
ATOM     16  C   UNL     1       1.654   8.615  19.290  0.00  0.00    +0.000 A 
ATOM     17  C   UNL     1       1.140   9.917  19.187  0.00  0.00    +0.000 A 
ATOM     18  C   UNL     1       0.599  10.565  20.304  0.00  0.00    +0.000 A 
ATOM     19  C   UNL     1       0.582   9.931  21.541  0.00  0.00    +0.000 A 
ATOM     20  C   UNL     1       1.108   8.643  21.665  0.00  0.00    +0.000 A 
ATOM     21  C   UNL     1       1.649   7.995  20.548  0.00  0.00    +0.000 A 
ENDBRANCH  15  16
ENDBRANCH   4  15
BRANCH   7  22
ATOM     22  C   UNL     1       3.497   2.435  17.535  0.00  0.00    +0.000 C 
BRANCH  22  23
ATOM     23  C   UNL     1       2.732   2.399  18.863  0.00  0.00    +0.000 A 
ATOM     24  C   UNL     1       1.330   2.459  18.884  0.00  0.00    +0.000 A 
ATOM     25  C   UNL     1       0.645   2.707  20.079  0.00  0.00    +0.000 A 
ATOM     26  C   UNL     1       1.351   2.887  21.267  0.00  0.00    +0.000 A 
ATOM     27  C   UNL     1       2.738   2.763  21.272  0.00  0.00    +0.000 A 
ATOM     28  C   UNL     1       3.423   2.498  20.082  0.00  0.00    +0.000 A 
ENDBRANCH  22  23
ENDBRANCH   7  22
TORSDOF 7
ENDMDL
MODEL 4
REMARK VINA RESULT:      -8.0      0.320      1.324
REMARK  Name = 
REMARK  9 active torsions:
REMARK  status: ('A' for Active; 'I' for Inactive)
REMARK    1  A    between atoms: C_1  and  O_2
REMARK    2  A    between atoms: O_2  and  C_3
REMARK    3  A    between atoms: C_3  and  C_5
REMARK    4  A    between atoms: C_5  and  C_6
REMARK    5  A    between atoms: C_9  and  C_10
REMARK    6  A    between atoms: C_10  and  C_11
REMARK    7  A    between atoms: C_19  and  C_20
REMARK    8  A    between atoms: C_20  and  C_21
REMARK    9  A    between atoms: N_27  and  C_28
REMARK                            x       y       z     vdW  Elec       q    Type
REMARK                         _______ _______ _______ _____ _____    ______ ____
ROOT
ATOM      1  C   UNL     1       1.989   4.903  18.341  0.00  0.00    +0.000 C 
ATOM      2  C   UNL     1       3.219   4.010  18.022  0.00  0.00    +0.000 C 
ATOM      3  C   UNL     1       3.787   4.137  16.589  0.00  0.00    +0.000 C 
ATOM      4  C   UNL     1       5.141   4.859  16.760  0.00  0.00    +0.000 C 
ATOM      5  C   UNL     1       4.881   5.561  18.098  0.00  0.00    +0.000 C 
ATOM      6  C   UNL     1       3.818   6.689  17.901  0.00  0.00    +0.000 C 
ATOM      7  C   UNL     1       2.416   6.422  18.541  0.00  0.00    +0.000 C 
ATOM      8  N   UNL     1       4.263   4.494  18.926  0.00  0.00    +0.000 NA
ATOM      9  C   UNL     1       5.130   3.392  19.343  0.00  0.00    +0.000 C 
ENDROOT
BRANCH   1  10
ATOM     10  C   UNL     1       1.146   4.258  19.479  0.00  0.00    +0.000 C 
BRANCH  10  11
ATOM     11  C   UNL     1       1.004   2.747  19.269  0.00  0.00    +0.000 C 
ATOM     12  O   UNL     1       0.351   2.229  18.370  0.00  0.00    +0.000 OA
BRANCH  11  14
ATOM     13  C   UNL     1       1.863   2.711  21.464  0.00  0.00    +0.000 C 
ATOM     14  O   UNL     1       1.718   2.048  20.198  0.00  0.00    +0.000 OA
ENDBRANCH  11  14
ENDBRANCH  10  11
ENDBRANCH   1  10
BRANCH   4  15
ATOM     15  C   UNL     1       5.557   5.716  15.548  0.00  0.00    +0.000 C 
BRANCH  15  16
ATOM     16  C   UNL     1       5.929   4.963  14.285  0.00  0.00    +0.000 A 
ATOM     17  C   UNL     1       7.201   5.114  13.709  0.00  0.00    +0.000 A 
ATOM     18  C   UNL     1       7.590   4.331  12.616  0.00  0.00    +0.000 A 
ATOM     19  C   UNL     1       6.711   3.401  12.071  0.00  0.00    +0.000 A 
ATOM     20  C   UNL     1       5.434   3.253  12.620  0.00  0.00    +0.000 A 
ATOM     21  C   UNL     1       5.045   4.037  13.713  0.00  0.00    +0.000 A 
ENDBRANCH  15  16
ENDBRANCH   4  15
BRANCH   7  22
ATOM     22  C   UNL     1       2.335   7.055  19.962  0.00  0.00    +0.000 C 
BRANCH  22  23
ATOM     23  C   UNL     1       1.457   8.312  19.952  0.00  0.00    +0.000 A 
ATOM     24  C   UNL     1       1.401   9.138  18.819  0.00  0.00    +0.000 A 
ATOM     25  C   UNL     1       0.835  10.416  18.896  0.00  0.00    +0.000 A 
ATOM     26  C   UNL     1       0.307  10.877  20.101  0.00  0.00    +0.000 A 
ATOM     27  C   UNL     1       0.294  10.041  21.215  0.00  0.00    +0.000 A 
ATOM     28  C   UNL     1       0.845   8.759  21.135  0.00  0.00    +0.000 A 
ENDBRANCH  22  23
ENDBRANCH   7  22
TORSDOF 7
ENDMDL
MODEL 5
REMARK VINA RESULT:      -7.8      2.395      7.139
REMARK  Name = 
REMARK  9 active torsions:
REMARK  status: ('A' for Active; 'I' for Inactive)
REMARK    1  A    between atoms: C_1  and  O_2
REMARK    2  A    between atoms: O_2  and  C_3
REMARK    3  A    between atoms: C_3  and  C_5
REMARK    4  A    between atoms: C_5  and  C_6
REMARK    5  A    between atoms: C_9  and  C_10
REMARK    6  A    between atoms: C_10  and  C_11
REMARK    7  A    between atoms: C_19  and  C_20
REMARK    8  A    between atoms: C_20  and  C_21
REMARK    9  A    between atoms: N_27  and  C_28
REMARK                            x       y       z     vdW  Elec       q    Type
REMARK                         _______ _______ _______ _____ _____    ______ ____
ROOT
ATOM      1  C   UNL     1       4.400   4.593  16.271  0.00  0.00    +0.000 C 
ATOM      2  C   UNL     1       4.939   5.821  17.055  0.00  0.00    +0.000 C 
ATOM      3  C   UNL     1       4.184   7.150  16.820  0.00  0.00    +0.000 C 
ATOM      4  C   UNL     1       3.434   7.421  18.142  0.00  0.00    +0.000 C 
ATOM      5  C   UNL     1       3.360   5.988  18.685  0.00  0.00    +0.000 C 
ATOM      6  C   UNL     1       2.383   5.145  17.806  0.00  0.00    +0.000 C 
ATOM      7  C   UNL     1       3.048   4.049  16.909  0.00  0.00    +0.000 C 
ATOM      8  N   UNL     1       4.734   5.471  18.462  0.00  0.00    +0.000 NA
ATOM      9  C   UNL     1       5.799   6.038  19.289  0.00  0.00    +0.000 C 
ENDROOT
BRANCH   1  10
ATOM     10  C   UNL     1       5.542   3.555  16.063  0.00  0.00    +0.000 C 
BRANCH  10  11
ATOM     11  C   UNL     1       6.844   4.247  15.647  0.00  0.00    +0.000 C 
ATOM     12  O   UNL     1       7.851   4.308  16.344  0.00  0.00    +0.000 OA
BRANCH  11  14
ATOM     13  C   UNL     1       6.420   3.812  13.370  0.00  0.00    +0.000 C 
ATOM     14  O   UNL     1       6.749   4.768  14.391  0.00  0.00    +0.000 OA
ENDBRANCH  11  14
ENDBRANCH  10  11
ENDBRANCH   1  10
BRANCH   4  15
ATOM     15  C   UNL     1       2.121   8.212  17.974  0.00  0.00    +0.000 C 
BRANCH  15  16
ATOM     16  C   UNL     1       1.571   8.878  19.221  0.00  0.00    +0.000 A 
ATOM     17  C   UNL     1       0.999  10.159  19.156  0.00  0.00    +0.000 A 
ATOM     18  C   UNL     1       0.382  10.725  20.277  0.00  0.00    +0.000 A 
ATOM     19  C   UNL     1       0.343  10.031  21.482  0.00  0.00    +0.000 A 
ATOM     20  C   UNL     1       0.925   8.764  21.568  0.00  0.00    +0.000 A 
ATOM     21  C   UNL     1       1.542   8.198  20.448  0.00  0.00    +0.000 A 
ENDBRANCH  15  16
ENDBRANCH   4  15
BRANCH   7  22
ATOM     22  C   UNL     1       3.049   2.672  17.638  0.00  0.00    +0.000 C 
BRANCH  22  23
ATOM     23  C   UNL     1       2.560   2.818  19.083  0.00  0.00    +0.000 A 
ATOM     24  C   UNL     1       3.438   2.622  20.161  0.00  0.00    +0.000 A 
ATOM     25  C   UNL     1       2.947   2.477  21.463  0.00  0.00    +0.000 A 
ATOM     26  C   UNL     1       1.576   2.536  21.706  0.00  0.00    +0.000 A 
ATOM     27  C   UNL     1       0.699   2.799  20.656  0.00  0.00    +0.000 A 
ATOM     28  C   UNL     1       1.189   2.961  19.357  0.00  0.00    +0.000 A 
ENDBRANCH  22  23
ENDBRANCH   7  22
TORSDOF 7
ENDMDL
MODEL 6
REMARK VINA RESULT:      -7.6      2.728      5.835
REMARK  Name = 
REMARK  9 active torsions:
REMARK  status: ('A' for Active; 'I' for Inactive)
REMARK    1  A    between atoms: C_1  and  O_2
REMARK    2  A    between atoms: O_2  and  C_3
REMARK    3  A    between atoms: C_3  and  C_5
REMARK    4  A    between atoms: C_5  and  C_6
REMARK    5  A    between atoms: C_9  and  C_10
REMARK    6  A    between atoms: C_10  and  C_11
REMARK    7  A    between atoms: C_19  and  C_20
REMARK    8  A    between atoms: C_20  and  C_21
REMARK    9  A    between atoms: N_27  and  C_28
REMARK                            x       y       z     vdW  Elec       q    Type
REMARK                         _______ _______ _______ _____ _____    ______ ____
ROOT
ATOM      1  C   UNL     1       5.491   5.672  18.195  0.00  0.00    +0.000 C 
ATOM      2  C   UNL     1       5.672   4.443  17.263  0.00  0.00    +0.000 C 
ATOM      3  C   UNL     1       5.167   3.094  17.826  0.00  0.00    +0.000 C 
ATOM      4  C   UNL     1       3.913   2.758  16.989  0.00  0.00    +0.000 C 
ATOM      5  C   UNL     1       3.537   4.172  16.527  0.00  0.00    +0.000 C 
ATOM      6  C   UNL     1       3.025   5.003  17.746  0.00  0.00    +0.000 C 
ATOM      7  C   UNL     1       3.974   6.148  18.234  0.00  0.00    +0.000 C 
ATOM      8  N   UNL     1       4.838   4.745  16.098  0.00  0.00    +0.000 NA
ATOM      9  C   UNL     1       5.438   4.195  14.884  0.00  0.00    +0.000 C 
ENDROOT
BRANCH   1  10
ATOM     10  C   UNL     1       6.555   6.756  17.854  0.00  0.00    +0.000 C 
BRANCH  10  11
ATOM     11  C   UNL     1       7.805   6.593  18.725  0.00  0.00    +0.000 C 
ATOM     12  O   UNL     1       8.093   5.574  19.343  0.00  0.00    +0.000 OA
BRANCH  11  14
ATOM     13  C   UNL     1       8.066   8.776  17.875  0.00  0.00    +0.000 C 
ATOM     14  O   UNL     1       8.571   7.721  18.708  0.00  0.00    +0.000 OA
ENDBRANCH  11  14
ENDBRANCH  10  11
ENDBRANCH   1  10
BRANCH   4  15
ATOM     15  C   UNL     1       2.856   1.925  17.741  0.00  0.00    +0.000 C 
BRANCH  15  16
ATOM     16  C   UNL     1       2.433   2.442  19.103  0.00  0.00    +0.000 A 
ATOM     17  C   UNL     1       1.158   2.997  19.294  0.00  0.00    +0.000 A 
ATOM     18  C   UNL     1       0.720   3.364  20.572  0.00  0.00    +0.000 A 
ATOM     19  C   UNL     1       1.554   3.199  21.673  0.00  0.00    +0.000 A 
ATOM     20  C   UNL     1       2.834   2.667  21.497  0.00  0.00    +0.000 A 
ATOM     21  C   UNL     1       3.272   2.301  20.219  0.00  0.00    +0.000 A 
ENDBRANCH  15  16
ENDBRANCH   4  15
BRANCH   7  22
ATOM     22  C   UNL     1       3.582   7.502  17.572  0.00  0.00    +0.000 C 
BRANCH  22  23
ATOM     23  C   UNL     1       2.408   8.154  18.312  0.00  0.00    +0.000 A 
ATOM     24  C   UNL     1       1.739   9.259  17.762  0.00  0.00    +0.000 A 
ATOM     25  C   UNL     1       0.866  10.024  18.543  0.00  0.00    +0.000 A 
ATOM     26  C   UNL     1       0.642   9.689  19.877  0.00  0.00    +0.000 A 
ATOM     27  C   UNL     1       1.247   8.555  20.416  0.00  0.00    +0.000 A 
ATOM     28  C   UNL     1       2.106   7.780  19.632  0.00  0.00    +0.000 A 
ENDBRANCH  22  23
ENDBRANCH   7  22
TORSDOF 7
ENDMDL
MODEL 7
REMARK VINA RESULT:      -7.6      1.484      2.597
REMARK  Name = 
REMARK  9 active torsions:
REMARK  status: ('A' for Active; 'I' for Inactive)
REMARK    1  A    between atoms: C_1  and  O_2
REMARK    2  A    between atoms: O_2  and  C_3
REMARK    3  A    between atoms: C_3  and  C_5
REMARK    4  A    between atoms: C_5  and  C_6
REMARK    5  A    between atoms: C_9  and  C_10
REMARK    6  A    between atoms: C_10  and  C_11
REMARK    7  A    between atoms: C_19  and  C_20
REMARK    8  A    between atoms: C_20  and  C_21
REMARK    9  A    between atoms: N_27  and  C_28
REMARK                            x       y       z     vdW  Elec       q    Type
REMARK                         _______ _______ _______ _____ _____    ______ ____
ROOT
ATOM      1  C   UNL     1       4.187   4.696  17.473  0.00  0.00    +0.000 C 
ATOM      2  C   UNL     1       5.509   4.014  17.027  0.00  0.00    +0.000 C 
ATOM      3  C   UNL     1       5.602   3.648  15.527  0.00  0.00    +0.000 C 
ATOM      4  C   UNL     1       6.641   4.629  14.941  0.00  0.00    +0.000 C 
ATOM      5  C   UNL     1       6.531   5.754  15.977  0.00  0.00    +0.000 C 
ATOM      6  C   UNL     1       5.148   6.464  15.836  0.00  0.00    +0.000 C 
ATOM      7  C   UNL     1       4.133   6.214  16.999  0.00  0.00    +0.000 C 
ATOM      8  N   UNL     1       6.539   5.026  17.271  0.00  0.00    +0.000 NA
ATOM      9  C   UNL     1       7.795   4.390  17.668  0.00  0.00    +0.000 C 
ENDROOT
BRANCH   1  10
ATOM     10  C   UNL     1       3.935   4.426  18.984  0.00  0.00    +0.000 C 
BRANCH  10  11
ATOM     11  C   UNL     1       2.677   3.575  19.189  0.00  0.00    +0.000 C 
ATOM     12  O   UNL     1       1.534   3.964  18.979  0.00  0.00    +0.000 OA
BRANCH  11  14
ATOM     13  C   UNL     1       4.318   2.183  20.151  0.00  0.00    +0.000 C 
ATOM     14  O   UNL     1       2.993   2.318  19.614  0.00  0.00    +0.000 OA
ENDBRANCH  11  14
ENDBRANCH  10  11
ENDBRANCH   1  10
BRANCH   4  15
ATOM     15  C   UNL     1       6.418   4.973  13.455  0.00  0.00    +0.000 C 
BRANCH  15  16
ATOM     16  C   UNL     1       6.320   3.799  12.499  0.00  0.00    +0.000 A 
ATOM     17  C   UNL     1       7.479   3.168  12.019  0.00  0.00    +0.000 A 
ATOM     18  C   UNL     1       7.393   2.012  11.235  0.00  0.00    +0.000 A 
ATOM     19  C   UNL     1       6.151   1.481  10.903  0.00  0.00    +0.000 A 
ATOM     20  C   UNL     1       4.988   2.109  11.356  0.00  0.00    +0.000 A 
ATOM     21  C   UNL     1       5.074   3.265  12.139  0.00  0.00    +0.000 A 
ENDBRANCH  15  16
ENDBRANCH   4  15
BRANCH   7  22
ATOM     22  C   UNL     1       4.230   7.348  18.063  0.00  0.00    +0.000 C 
BRANCH  22  23
ATOM     23  C   UNL     1       2.840   7.888  18.416  0.00  0.00    +0.000 A 
ATOM     24  C   UNL     1       2.197   8.813  17.578  0.00  0.00    +0.000 A 
ATOM     25  C   UNL     1       1.071   9.516  18.023  0.00  0.00    +0.000 A 
ATOM     26  C   UNL     1       0.569   9.295  19.304  0.00  0.00    +0.000 A 
ATOM     27  C   UNL     1       1.156   8.331  20.120  0.00  0.00    +0.000 A 
ATOM     28  C   UNL     1       2.270   7.616  19.671  0.00  0.00    +0.000 A 
ENDBRANCH  22  23
ENDBRANCH   7  22
TORSDOF 7
ENDMDL
MODEL 8
REMARK VINA RESULT:      -7.6      2.620      7.061
REMARK  Name = 
REMARK  9 active torsions:
REMARK  status: ('A' for Active; 'I' for Inactive)
REMARK    1  A    between atoms: C_1  and  O_2
REMARK    2  A    between atoms: O_2  and  C_3
REMARK    3  A    between atoms: C_3  and  C_5
REMARK    4  A    between atoms: C_5  and  C_6
REMARK    5  A    between atoms: C_9  and  C_10
REMARK    6  A    between atoms: C_10  and  C_11
REMARK    7  A    between atoms: C_19  and  C_20
REMARK    8  A    between atoms: C_20  and  C_21
REMARK    9  A    between atoms: N_27  and  C_28
REMARK                            x       y       z     vdW  Elec       q    Type
REMARK                         _______ _______ _______ _____ _____    ______ ____
ROOT
ATOM      1  C   UNL     1       4.458   4.550  16.295  0.00  0.00    +0.000 C 
ATOM      2  C   UNL     1       4.901   5.766  17.154  0.00  0.00    +0.000 C 
ATOM      3  C   UNL     1       4.058   7.051  16.983  0.00  0.00    +0.000 C 
ATOM      4  C   UNL     1       3.277   7.194  18.308  0.00  0.00    +0.000 C 
ATOM      5  C   UNL     1       3.298   5.731  18.767  0.00  0.00    +0.000 C 
ATOM      6  C   UNL     1       2.391   4.874  17.829  0.00  0.00    +0.000 C 
ATOM      7  C   UNL     1       3.140   3.879  16.882  0.00  0.00    +0.000 C 
ATOM      8  N   UNL     1       4.707   5.323  18.536  0.00  0.00    +0.000 NA
ATOM      9  C   UNL     1       5.721   5.914  19.409  0.00  0.00    +0.000 C 
ENDROOT
BRANCH   1  10
ATOM     10  C   UNL     1       5.671   3.608  16.046  0.00  0.00    +0.000 C 
BRANCH  10  11
ATOM     11  C   UNL     1       6.677   4.249  15.085  0.00  0.00    +0.000 C 
ATOM     12  O   UNL     1       6.481   4.420  13.887  0.00  0.00    +0.000 OA
BRANCH  11  14
ATOM     13  C   UNL     1       7.812   4.357  17.147  0.00  0.00    +0.000 C 
ATOM     14  O   UNL     1       7.814   4.626  15.737  0.00  0.00    +0.000 OA
ENDBRANCH  11  14
ENDBRANCH  10  11
ENDBRANCH   1  10
BRANCH   4  15
ATOM     15  C   UNL     1       1.915   7.901  18.165  0.00  0.00    +0.000 C 
BRANCH  15  16
ATOM     16  C   UNL     1       1.421   8.666  19.379  0.00  0.00    +0.000 A 
ATOM     17  C   UNL     1       1.466   8.087  20.657  0.00  0.00    +0.000 A 
ATOM     18  C   UNL     1       1.126   8.831  21.793  0.00  0.00    +0.000 A 
ATOM     19  C   UNL     1       0.719  10.155  21.668  0.00  0.00    +0.000 A 
ATOM     20  C   UNL     1       0.650  10.739  20.401  0.00  0.00    +0.000 A 
ATOM     21  C   UNL     1       0.989   9.995  19.265  0.00  0.00    +0.000 A 
ENDBRANCH  15  16
ENDBRANCH   4  15
BRANCH   7  22
ATOM     22  C   UNL     1       3.229   2.467  17.532  0.00  0.00    +0.000 C 
BRANCH  22  23
ATOM     23  C   UNL     1       2.544   2.451  18.903  0.00  0.00    +0.000 A 
ATOM     24  C   UNL     1       1.153   2.609  19.011  0.00  0.00    +0.000 A 
ATOM     25  C   UNL     1       0.561   2.875  20.251  0.00  0.00    +0.000 A 
ATOM     26  C   UNL     1       1.347   2.975  21.397  0.00  0.00    +0.000 A 
ATOM     27  C   UNL     1       2.720   2.752  21.315  0.00  0.00    +0.000 A 
ATOM     28  C   UNL     1       3.312   2.470  20.080  0.00  0.00    +0.000 A 
ENDBRANCH  22  23
ENDBRANCH   7  22
TORSDOF 7
ENDMDL
MODEL 9
REMARK VINA RESULT:      -7.5      1.402      2.367
REMARK  Name = 
REMARK  9 active torsions:
REMARK  status: ('A' for Active; 'I' for Inactive)
REMARK    1  A    between atoms: C_1  and  O_2
REMARK    2  A    between atoms: O_2  and  C_3
REMARK    3  A    between atoms: C_3  and  C_5
REMARK    4  A    between atoms: C_5  and  C_6
REMARK    5  A    between atoms: C_9  and  C_10
REMARK    6  A    between atoms: C_10  and  C_11
REMARK    7  A    between atoms: C_19  and  C_20
REMARK    8  A    between atoms: C_20  and  C_21
REMARK    9  A    between atoms: N_27  and  C_28
REMARK                            x       y       z     vdW  Elec       q    Type
REMARK                         _______ _______ _______ _____ _____    ______ ____
ROOT
ATOM      1  C   UNL     1       4.107   4.386  17.957  0.00  0.00    +0.000 C 
ATOM      2  C   UNL     1       5.455   3.888  17.367  0.00  0.00    +0.000 C 
ATOM      3  C   UNL     1       5.462   3.617  15.845  0.00  0.00    +0.000 C 
ATOM      4  C   UNL     1       6.330   4.743  15.243  0.00  0.00    +0.000 C 
ATOM      5  C   UNL     1       6.183   5.790  16.354  0.00  0.00    +0.000 C 
ATOM      6  C   UNL     1       4.721   6.340  16.365  0.00  0.00    +0.000 C 
ATOM      7  C   UNL     1       3.843   5.910  17.586  0.00  0.00    +0.000 C 
ATOM      8  N   UNL     1       6.382   4.999  17.595  0.00  0.00    +0.000 NA
ATOM      9  C   UNL     1       7.730   4.494  17.851  0.00  0.00    +0.000 C 
ENDROOT
BRANCH   1  10
ATOM     10  C   UNL     1       4.015   4.006  19.463  0.00  0.00    +0.000 C 
BRANCH  10  11
ATOM     11  C   UNL     1       3.050   2.836  19.678  0.00  0.00    +0.000 C 
ATOM     12  O   UNL     1       3.016   1.827  18.983  0.00  0.00    +0.000 OA
BRANCH  11  14
ATOM     13  C   UNL     1       1.441   4.236  20.680  0.00  0.00    +0.000 C 
ATOM     14  O   UNL     1       2.246   3.049  20.758  0.00  0.00    +0.000 OA
ENDBRANCH  11  14
ENDBRANCH  10  11
ENDBRANCH   1  10
BRANCH   4  15
ATOM     15  C   UNL     1       5.945   5.138  13.804  0.00  0.00    +0.000 C 
BRANCH  15  16
ATOM     16  C   UNL     1       5.990   4.032  12.766  0.00  0.00    +0.000 A 
ATOM     17  C   UNL     1       7.217   3.511  12.327  0.00  0.00    +0.000 A 
ATOM     18  C   UNL     1       7.260   2.411  11.462  0.00  0.00    +0.000 A 
ATOM     19  C   UNL     1       6.082   1.828  11.010  0.00  0.00    +0.000 A 
ATOM     20  C   UNL     1       4.852   2.348  11.422  0.00  0.00    +0.000 A 
ATOM     21  C   UNL     1       4.808   3.448  12.286  0.00  0.00    +0.000 A 
ENDBRANCH  15  16
ENDBRANCH   4  15
BRANCH   7  22
ATOM     22  C   UNL     1       3.901   6.988  18.709  0.00  0.00    +0.000 C 
BRANCH  22  23
ATOM     23  C   UNL     1       2.584   7.768  18.789  0.00  0.00    +0.000 A 
ATOM     24  C   UNL     1       2.137   8.531  17.699  0.00  0.00    +0.000 A 
ATOM     25  C   UNL     1       1.099   9.457  17.856  0.00  0.00    +0.000 A 
ATOM     26  C   UNL     1       0.489   9.622  19.098  0.00  0.00    +0.000 A 
ATOM     27  C   UNL     1       0.877   8.822  20.170  0.00  0.00    +0.000 A 
ATOM     28  C   UNL     1       1.902   7.885  20.011  0.00  0.00    +0.000 A 
ENDBRANCH  22  23
ENDBRANCH   7  22
TORSDOF 7
ENDMDL
