MODEL 1
REMARK VINA RESULT:      -8.8      0.000      0.000
REMARK  Name = 
REMARK  7 active torsions:
REMARK  status: ('A' for Active; 'I' for Inactive)
REMARK    1  A    between atoms: C_1  and  O_2
REMARK    2  A    between atoms: O_2  and  C_3
REMARK    3  A    between atoms: C_6  and  C_7
REMARK    4  A    between atoms: C_15  and  C_16
REMARK    5  A    between atoms: C_16  and  C_18
REMARK    6  A    between atoms: C_19  and  N_20
REMARK    7  A    between atoms: N_20  and  C_21
REMARK                            x       y       z     vdW  Elec       q    Type
REMARK                         _______ _______ _______ _____ _____    ______ ____
ROOT
ATOM      1  C   UNL     1       4.399   4.335  18.233  0.00  0.00    +0.000 A 
ATOM      2  N   UNL     1       4.643   3.208  18.982  0.00  0.00    +0.000 NA
ATOM      3  C   UNL     1       3.701   3.163  19.875  0.00  0.00    +0.000 A 
ATOM      4  C   UNL     1       3.470   2.179  20.875  0.00  0.00    +0.000 A 
ATOM      5  C   UNL     1       2.451   2.324  21.737  0.00  0.00    +0.000 A 
ATOM      6  C   UNL     1       1.577   3.475  21.655  0.00  0.00    +0.000 A 
ATOM      7  C   UNL     1       1.774   4.395  20.692  0.00  0.00    +0.000 A 
ATOM      8  N   UNL     1       2.834   4.260  19.780  0.00  0.00    +0.000 N 
ATOM      9  C   UNL     1       3.255   5.030  18.677  0.00  0.00    +0.000 A 
ENDROOT
BRANCH   1  13
ATOM     10  C   UNL     1       7.072   5.135  14.993  0.00  0.00    +0.000 A 
ATOM     11  C   UNL     1       7.324   5.634  16.269  0.00  0.00    +0.000 A 
ATOM     12  C   UNL     1       6.442   5.363  17.317  0.00  0.00    +0.000 A 
ATOM     13  C   UNL     1       5.279   4.603  17.103  0.00  0.00    +0.000 A 
ATOM     14  C   UNL     1       4.990   4.196  15.794  0.00  0.00    +0.000 A 
ATOM     15  C   UNL     1       5.891   4.435  14.751  0.00  0.00    +0.000 A 
BRANCH  10  17
ATOM     16  C   UNL     1       7.671   5.060  12.720  0.00  0.00    +0.000 C 
ATOM     17  O   UNL     1       8.022   5.418  14.052  0.00  0.00    +0.000 OA
ENDBRANCH  10  17
ENDBRANCH   1  13
BRANCH   9  18
ATOM     18  C   UNL     1       2.664   6.198  18.019  0.00  0.00    +0.000 C 
ATOM     19  O   UNL     1       1.482   6.210  17.657  0.00  0.00    +0.000 OA
BRANCH  18  20
ATOM     20  C   UNL     1       3.415   7.462  17.734  0.00  0.00    +0.000 C 
ATOM     21  C   UNL     1       2.818   8.669  17.690  0.00  0.00    +0.000 C 
BRANCH  21  22
ATOM     22  N   UNL     1       1.480   8.972  17.802  0.00  0.00    +0.000 N 
ATOM     23  H   UNL     1       0.888   8.473  17.127  0.00  0.00    +0.000 HD
BRANCH  22  24
ATOM     24  C   UNL     1       0.794   9.652  18.822  0.00  0.00    +0.000 A 
ATOM     25  C   UNL     1      -0.025  10.742  18.525  0.00  0.00    +0.000 A 
ATOM     26  N   UNL     1      -0.671  11.520  19.436  0.00  0.00    +0.000 NA
ATOM     27  C   UNL     1      -0.622  11.140  20.722  0.00  0.00    +0.000 A 
ATOM     28  C   UNL     1      -1.319  11.854  21.691  0.00  0.00    +0.000 A 
ATOM     29  C   UNL     1      -1.462  11.369  22.995  0.00  0.00    +0.000 A 
ATOM     30  C   UNL     1      -0.876  10.160  23.348  0.00  0.00    +0.000 A 
ATOM     31  C   UNL     1      -0.061   9.500  22.432  0.00  0.00    +0.000 A 
ATOM     32  C   UNL     1       0.087   9.992  21.123  0.00  0.00    +0.000 A 
ATOM     33  C   UNL     1       0.884   9.328  20.173  0.00  0.00    +0.000 A 
ENDBRANCH  22  24
ENDBRANCH  21  22
ENDBRANCH  18  20
ENDBRANCH   9  18
TORSDOF 6
ENDMDL
MODEL 2
REMARK VINA RESULT:      -8.7      0.772      1.535
REMARK  Name = 
REMARK  7 active torsions:
REMARK  status: ('A' for Active; 'I' for Inactive)
REMARK    1  A    between atoms: C_1  and  O_2
REMARK    2  A    between atoms: O_2  and  C_3
REMARK    3  A    between atoms: C_6  and  C_7
REMARK    4  A    between atoms: C_15  and  C_16
REMARK    5  A    between atoms: C_16  and  C_18
REMARK    6  A    between atoms: C_19  and  N_20
REMARK    7  A    between atoms: N_20  and  C_21
REMARK                            x       y       z     vdW  Elec       q    Type
REMARK                         _______ _______ _______ _____ _____    ______ ____
ROOT
ATOM      1  C   UNL     1       4.411   4.290  18.321  0.00  0.00    +0.000 A 
ATOM      2  N   UNL     1       4.642   3.177  19.093  0.00  0.00    +0.000 NA
ATOM      3  C   UNL     1       3.660   3.122  19.942  0.00  0.00    +0.000 A 
ATOM      4  C   UNL     1       3.402   2.143  20.940  0.00  0.00    +0.000 A 
ATOM      5  C   UNL     1       2.342   2.277  21.753  0.00  0.00    +0.000 A 
ATOM      6  C   UNL     1       1.450   3.409  21.616  0.00  0.00    +0.000 A 
ATOM      7  C   UNL     1       1.673   4.322  20.653  0.00  0.00    +0.000 A 
ATOM      8  N   UNL     1       2.777   4.200  19.794  0.00  0.00    +0.000 N 
ATOM      9  C   UNL     1       3.234   4.967  18.703  0.00  0.00    +0.000 A 
ENDROOT
BRANCH   1  13
ATOM     10  C   UNL     1       7.039   5.093  15.046  0.00  0.00    +0.000 A 
ATOM     11  C   UNL     1       5.834   4.423  14.849  0.00  0.00    +0.000 A 
ATOM     12  C   UNL     1       4.986   4.169  15.928  0.00  0.00    +0.000 A 
ATOM     13  C   UNL     1       5.338   4.565  17.230  0.00  0.00    +0.000 A 
ATOM     14  C   UNL     1       6.598   5.145  17.424  0.00  0.00    +0.000 A 
ATOM     15  C   UNL     1       7.432   5.434  16.339  0.00  0.00    +0.000 A 
BRANCH  10  17
ATOM     16  C   UNL     1       7.341   4.620  12.761  0.00  0.00    +0.000 C 
ATOM     17  O   UNL     1       7.771   5.333  13.915  0.00  0.00    +0.000 OA
ENDBRANCH  10  17
ENDBRANCH   1  13
BRANCH   9  18
ATOM     18  C   UNL     1       2.652   6.116  18.005  0.00  0.00    +0.000 C 
ATOM     19  O   UNL     1       1.484   6.104  17.597  0.00  0.00    +0.000 OA
BRANCH  18  20
ATOM     20  C   UNL     1       3.394   7.387  17.731  0.00  0.00    +0.000 C 
ATOM     21  C   UNL     1       2.819   8.602  17.833  0.00  0.00    +0.000 C 
BRANCH  21  22
ATOM     22  N   UNL     1       1.507   8.913  18.106  0.00  0.00    +0.000 N 
ATOM     23  H   UNL     1       0.859   8.655  17.352  0.00  0.00    +0.000 HD
BRANCH  22  24
ATOM     24  C   UNL     1       0.905   9.294  19.316  0.00  0.00    +0.000 A 
ATOM     25  C   UNL     1       1.252   8.667  20.513  0.00  0.00    +0.000 A 
ATOM     26  N   UNL     1       0.679   8.899  21.725  0.00  0.00    +0.000 NA
ATOM     27  C   UNL     1      -0.209   9.902  21.811  0.00  0.00    +0.000 A 
ATOM     28  C   UNL     1      -0.777  10.235  23.036  0.00  0.00    +0.000 A 
ATOM     29  C   UNL     1      -1.536  11.397  23.199  0.00  0.00    +0.000 A 
ATOM     30  C   UNL     1      -1.756  12.234  22.111  0.00  0.00    +0.000 A 
ATOM     31  C   UNL     1      -1.312  11.849  20.849  0.00  0.00    +0.000 A 
ATOM     32  C   UNL     1      -0.555  10.675  20.686  0.00  0.00    +0.000 A 
ATOM     33  C   UNL     1      -0.073  10.279  19.425  0.00  0.00    +0.000 A 
ENDBRANCH  22  24
ENDBRANCH  21  22
ENDBRANCH  18  20
ENDBRANCH   9  18
TORSDOF 6
ENDMDL
MODEL 3
REMARK VINA RESULT:      -8.6      3.477     10.050
REMARK  Name = 
REMARK  7 active torsions:
REMARK  status: ('A' for Active; 'I' for Inactive)
REMARK    1  A    between atoms: C_1  and  O_2
REMARK    2  A    between atoms: O_2  and  C_3
REMARK    3  A    between atoms: C_6  and  C_7
REMARK    4  A    between atoms: C_15  and  C_16
REMARK    5  A    between atoms: C_16  and  C_18
REMARK    6  A    between atoms: C_19  and  N_20
REMARK    7  A    between atoms: N_20  and  C_21
REMARK                            x       y       z     vdW  Elec       q    Type
REMARK                         _______ _______ _______ _____ _____    ______ ____
ROOT
ATOM      1  C   UNL     1      -1.859  12.093  19.831  0.00  0.00    +0.000 A 
ATOM      2  N   UNL     1      -2.963  12.433  19.085  0.00  0.00    +0.000 NA
ATOM      3  C   UNL     1      -2.998  11.592  18.096  0.00  0.00    +0.000 A 
ATOM      4  C   UNL     1      -3.959  11.484  17.054  0.00  0.00    +0.000 A 
ATOM      5  C   UNL     1      -3.804  10.561  16.092  0.00  0.00    +0.000 A 
ATOM      6  C   UNL     1      -2.668   9.665  16.109  0.00  0.00    +0.000 A 
ATOM      7  C   UNL     1      -1.771   9.743  17.110  0.00  0.00    +0.000 A 
ATOM      8  N   UNL     1      -1.915  10.702  18.125  0.00  0.00    +0.000 N 
ATOM      9  C   UNL     1      -1.168  10.992  19.285  0.00  0.00    +0.000 A 
ENDROOT
BRANCH   1  13
ATOM     10  C   UNL     1      -1.156  14.202  23.483  0.00  0.00    +0.000 A 
ATOM     11  C   UNL     1      -2.067  13.149  23.429  0.00  0.00    +0.000 A 
ATOM     12  C   UNL     1      -2.285  12.470  22.229  0.00  0.00    +0.000 A 
ATOM     13  C   UNL     1      -1.609  12.844  21.055  0.00  0.00    +0.000 A 
ATOM     14  C   UNL     1      -0.775  13.968  21.106  0.00  0.00    +0.000 A 
ATOM     15  C   UNL     1      -0.527  14.627  22.315  0.00  0.00    +0.000 A 
BRANCH  10  17
ATOM     16  C   UNL     1      -0.750  16.170  24.705  0.00  0.00    +0.000 C 
ATOM     17  O   UNL     1      -0.983  14.766  24.717  0.00  0.00    +0.000 OA
ENDBRANCH  10  17
ENDBRANCH   1  13
BRANCH   9  18
ATOM     18  C   UNL     1      -0.026  10.315  19.905  0.00  0.00    +0.000 C 
ATOM     19  O   UNL     1       1.094  10.321  19.381  0.00  0.00    +0.000 OA
BRANCH  18  20
ATOM     20  C   UNL     1      -0.101   9.576  21.205  0.00  0.00    +0.000 C 
ATOM     21  C   UNL     1       0.798   8.637  21.562  0.00  0.00    +0.000 C 
BRANCH  21  22
ATOM     22  N   UNL     1       1.848   8.131  20.832  0.00  0.00    +0.000 N 
ATOM     23  H   UNL     1       2.742   8.604  21.015  0.00  0.00    +0.000 HD
BRANCH  22  24
ATOM     24  C   UNL     1       1.934   6.948  20.080  0.00  0.00    +0.000 A 
ATOM     25  C   UNL     1       2.561   6.940  18.833  0.00  0.00    +0.000 A 
ATOM     26  N   UNL     1       2.632   5.876  17.987  0.00  0.00    +0.000 NA
ATOM     27  C   UNL     1       2.172   4.697  18.433  0.00  0.00    +0.000 A 
ATOM     28  C   UNL     1       2.279   3.557  17.643  0.00  0.00    +0.000 A 
ATOM     29  C   UNL     1       2.007   2.285  18.154  0.00  0.00    +0.000 A 
ATOM     30  C   UNL     1       1.592   2.147  19.473  0.00  0.00    +0.000 A 
ATOM     31  C   UNL     1       1.347   3.285  20.237  0.00  0.00    +0.000 A 
ATOM     32  C   UNL     1       1.615   4.564  19.719  0.00  0.00    +0.000 A 
ATOM     33  C   UNL     1       1.401   5.727  20.482  0.00  0.00    +0.000 A 
ENDBRANCH  22  24
ENDBRANCH  21  22
ENDBRANCH  18  20
ENDBRANCH   9  18
TORSDOF 6
ENDMDL
MODEL 4
REMARK VINA RESULT:      -8.5      4.919      8.468
REMARK  Name = 
REMARK  7 active torsions:
REMARK  status: ('A' for Active; 'I' for Inactive)
REMARK    1  A    between atoms: C_1  and  O_2
REMARK    2  A    between atoms: O_2  and  C_3
REMARK    3  A    between atoms: C_6  and  C_7
REMARK    4  A    between atoms: C_15  and  C_16
REMARK    5  A    between atoms: C_16  and  C_18
REMARK    6  A    between atoms: C_19  and  N_20
REMARK    7  A    between atoms: N_20  and  C_21
REMARK                            x       y       z     vdW  Elec       q    Type
REMARK                         _______ _______ _______ _____ _____    ______ ____
ROOT
ATOM      1  C   UNL     1       5.086   4.595  16.256  0.00  0.00    +0.000 A 
ATOM      2  N   UNL     1       4.979   3.677  15.238  0.00  0.00    +0.000 NA
ATOM      3  C   UNL     1       5.847   4.036  14.341  0.00  0.00    +0.000 A 
ATOM      4  C   UNL     1       6.166   3.403  13.109  0.00  0.00    +0.000 A 
ATOM      5  C   UNL     1       7.079   3.949  12.290  0.00  0.00    +0.000 A 
ATOM      6  C   UNL     1       7.753   5.176  12.656  0.00  0.00    +0.000 A 
ATOM      7  C   UNL     1       7.477   5.763  13.835  0.00  0.00    +0.000 A 
ATOM      8  N   UNL     1       6.524   5.208  14.704  0.00  0.00    +0.000 N 
ATOM      9  C   UNL     1       6.063   5.576  15.985  0.00  0.00    +0.000 A 
ENDROOT
BRANCH   1  13
ATOM     10  C   UNL     1       2.562   4.026  19.659  0.00  0.00    +0.000 A 
ATOM     11  C   UNL     1       2.116   4.737  18.548  0.00  0.00    +0.000 A 
ATOM     12  C   UNL     1       2.951   4.914  17.444  0.00  0.00    +0.000 A 
ATOM     13  C   UNL     1       4.259   4.398  17.439  0.00  0.00    +0.000 A 
ATOM     14  C   UNL     1       4.725   3.775  18.604  0.00  0.00    +0.000 A 
ATOM     15  C   UNL     1       3.877   3.565  19.697  0.00  0.00    +0.000 A 
BRANCH  10  17
ATOM     16  C   UNL     1       1.986   2.884  21.633  0.00  0.00    +0.000 C 
ATOM     17  O   UNL     1       1.649   3.871  20.665  0.00  0.00    +0.000 OA
ENDBRANCH  10  17
ENDBRANCH   1  13
BRANCH   9  18
ATOM     18  C   UNL     1       6.497   6.620  16.916  0.00  0.00    +0.000 C 
ATOM     19  O   UNL     1       5.971   7.739  16.929  0.00  0.00    +0.000 OA
BRANCH  18  20
ATOM     20  C   UNL     1       7.589   6.435  17.924  0.00  0.00    +0.000 C 
ATOM     21  C   UNL     1       8.270   7.467  18.458  0.00  0.00    +0.000 C 
BRANCH  21  22
ATOM     22  N   UNL     1       8.179   8.806  18.156  0.00  0.00    +0.000 N 
ATOM     23  H   UNL     1       7.303   9.063  17.686  0.00  0.00    +0.000 HD
BRANCH  22  24
ATOM     24  C   UNL     1       8.968   9.883  18.592  0.00  0.00    +0.000 A 
ATOM     25  C   UNL     1       9.129  10.144  19.953  0.00  0.00    +0.000 A 
ATOM     26  N   UNL     1       9.801  11.200  20.485  0.00  0.00    +0.000 NA
ATOM     27  C   UNL     1      10.475  11.996  19.640  0.00  0.00    +0.000 A 
ATOM     28  C   UNL     1      11.239  13.051  20.128  0.00  0.00    +0.000 A 
ATOM     29  C   UNL     1      12.114  13.763  19.303  0.00  0.00    +0.000 A 
ATOM     30  C   UNL     1      12.212  13.435  17.956  0.00  0.00    +0.000 A 
ATOM     31  C   UNL     1      11.357  12.474  17.421  0.00  0.00    +0.000 A 
ATOM     32  C   UNL     1      10.472  11.764  18.251  0.00  0.00    +0.000 A 
ATOM     33  C   UNL     1       9.619  10.771  17.738  0.00  0.00    +0.000 A 
ENDBRANCH  22  24
ENDBRANCH  21  22
ENDBRANCH  18  20
ENDBRANCH   9  18
TORSDOF 6
ENDMDL
MODEL 5
REMARK VINA RESULT:      -8.3      0.661      1.115
REMARK  Name = 
REMARK  7 active torsions:
REMARK  status: ('A' for Active; 'I' for Inactive)
REMARK    1  A    between atoms: C_1  and  O_2
REMARK    2  A    between atoms: O_2  and  C_3
REMARK    3  A    between atoms: C_6  and  C_7
REMARK    4  A    between atoms: C_15  and  C_16
REMARK    5  A    between atoms: C_16  and  C_18
REMARK    6  A    between atoms: C_19  and  N_20
REMARK    7  A    between atoms: N_20  and  C_21
REMARK                            x       y       z     vdW  Elec       q    Type
REMARK                         _______ _______ _______ _____ _____    ______ ____
ROOT
ATOM      1  C   UNL     1       4.429   4.301  18.331  0.00  0.00    +0.000 A 
ATOM      2  N   UNL     1       4.697   3.207  19.120  0.00  0.00    +0.000 NA
ATOM      3  C   UNL     1       3.712   3.125  19.963  0.00  0.00    +0.000 A 
ATOM      4  C   UNL     1       3.484   2.150  20.972  0.00  0.00    +0.000 A 
ATOM      5  C   UNL     1       2.414   2.254  21.776  0.00  0.00    +0.000 A 
ATOM      6  C   UNL     1       1.481   3.349  21.619  0.00  0.00    +0.000 A 
ATOM      7  C   UNL     1       1.676   4.258  20.646  0.00  0.00    +0.000 A 
ATOM      8  N   UNL     1       2.789   4.167  19.795  0.00  0.00    +0.000 N 
ATOM      9  C   UNL     1       3.224   4.936  18.697  0.00  0.00    +0.000 A 
ENDROOT
BRANCH   1  13
ATOM     10  C   UNL     1       7.049   5.154  15.062  0.00  0.00    +0.000 A 
ATOM     11  C   UNL     1       5.908   4.375  14.881  0.00  0.00    +0.000 A 
ATOM     12  C   UNL     1       5.062   4.106  15.958  0.00  0.00    +0.000 A 
ATOM     13  C   UNL     1       5.352   4.596  17.243  0.00  0.00    +0.000 A 
ATOM     14  C   UNL     1       6.555   5.290  17.427  0.00  0.00    +0.000 A 
ATOM     15  C   UNL     1       7.385   5.592  16.342  0.00  0.00    +0.000 A 
BRANCH  10  17
ATOM     16  C   UNL     1       7.365   4.671  12.782  0.00  0.00    +0.000 C 
ATOM     17  O   UNL     1       7.781   5.397  13.933  0.00  0.00    +0.000 OA
ENDBRANCH  10  17
ENDBRANCH   1  13
BRANCH   9  18
ATOM     18  C   UNL     1       2.604   6.053  17.981  0.00  0.00    +0.000 C 
ATOM     19  O   UNL     1       1.432   6.003  17.590  0.00  0.00    +0.000 OA
BRANCH  18  20
ATOM     20  C   UNL     1       3.309   7.336  17.666  0.00  0.00    +0.000 C 
ATOM     21  C   UNL     1       2.752   8.545  17.877  0.00  0.00    +0.000 C 
BRANCH  21  22
ATOM     22  N   UNL     1       1.481   8.841  18.312  0.00  0.00    +0.000 N 
ATOM     23  H   UNL     1       0.793   8.107  18.104  0.00  0.00    +0.000 HD
BRANCH  22  24
ATOM     24  C   UNL     1       1.040   9.853  19.181  0.00  0.00    +0.000 A 
ATOM     25  C   UNL     1       1.138  11.197  18.819  0.00  0.00    +0.000 A 
ATOM     26  N   UNL     1       0.819  12.257  19.610  0.00  0.00    +0.000 NA
ATOM     27  C   UNL     1       0.242  11.997  20.793  0.00  0.00    +0.000 A 
ATOM     28  C   UNL     1      -0.172  13.039  21.616  0.00  0.00    +0.000 A 
ATOM     29  C   UNL     1      -0.959  12.809  22.748  0.00  0.00    +0.000 A 
ATOM     30  C   UNL     1      -1.320  11.509  23.083  0.00  0.00    +0.000 A 
ATOM     31  C   UNL     1      -0.803  10.444  22.350  0.00  0.00    +0.000 A 
ATOM     32  C   UNL     1      -0.005  10.677  21.216  0.00  0.00    +0.000 A 
ATOM     33  C   UNL     1       0.507   9.618  20.446  0.00  0.00    +0.000 A 
ENDBRANCH  22  24
ENDBRANCH  21  22
ENDBRANCH  18  20
ENDBRANCH   9  18
TORSDOF 6
ENDMDL
MODEL 6
REMARK VINA RESULT:      -8.2      2.591      3.626
REMARK  Name = 
REMARK  7 active torsions:
REMARK  status: ('A' for Active; 'I' for Inactive)
REMARK    1  A    between atoms: C_1  and  O_2
REMARK    2  A    between atoms: O_2  and  C_3
REMARK    3  A    between atoms: C_6  and  C_7
REMARK    4  A    between atoms: C_15  and  C_16
REMARK    5  A    between atoms: C_16  and  C_18
REMARK    6  A    between atoms: C_19  and  N_20
REMARK    7  A    between atoms: N_20  and  C_21
REMARK                            x       y       z     vdW  Elec       q    Type
REMARK                         _______ _______ _______ _____ _____    ______ ____
ROOT
ATOM      1  C   UNL     1       4.542   5.147  18.452  0.00  0.00    +0.000 A 
ATOM      2  N   UNL     1       4.691   3.797  18.239  0.00  0.00    +0.000 NA
ATOM      3  C   UNL     1       3.510   3.278  18.395  0.00  0.00    +0.000 A 
ATOM      4  C   UNL     1       3.108   1.923  18.250  0.00  0.00    +0.000 A 
ATOM      5  C   UNL     1       1.834   1.572  18.487  0.00  0.00    +0.000 A 
ATOM      6  C   UNL     1       0.860   2.565  18.883  0.00  0.00    +0.000 A 
ATOM      7  C   UNL     1       1.228   3.855  18.993  0.00  0.00    +0.000 A 
ATOM      8  N   UNL     1       2.556   4.242  18.749  0.00  0.00    +0.000 N 
ATOM      9  C   UNL     1       3.209   5.492  18.757  0.00  0.00    +0.000 A 
ENDROOT
BRANCH   1  13
ATOM     10  C   UNL     1       7.911   7.719  17.896  0.00  0.00    +0.000 A 
ATOM     11  C   UNL     1       6.783   7.832  17.086  0.00  0.00    +0.000 A 
ATOM     12  C   UNL     1       5.691   6.985  17.281  0.00  0.00    +0.000 A 
ATOM     13  C   UNL     1       5.714   5.995  18.278  0.00  0.00    +0.000 A 
ATOM     14  C   UNL     1       6.894   5.830  19.014  0.00  0.00    +0.000 A 
ATOM     15  C   UNL     1       7.976   6.702  18.846  0.00  0.00    +0.000 A 
BRANCH  10  17
ATOM     16  C   UNL     1       8.848   9.803  18.454  0.00  0.00    +0.000 C 
ATOM     17  O   UNL     1       8.903   8.628  17.653  0.00  0.00    +0.000 OA
ENDBRANCH  10  17
ENDBRANCH   1  13
BRANCH   9  18
ATOM     18  C   UNL     1       2.702   6.857  18.919  0.00  0.00    +0.000 C 
ATOM     19  O   UNL     1       2.186   7.236  19.977  0.00  0.00    +0.000 OA
BRANCH  18  20
ATOM     20  C   UNL     1       2.767   7.902  17.848  0.00  0.00    +0.000 C 
ATOM     21  C   UNL     1       2.036   9.033  17.890  0.00  0.00    +0.000 C 
BRANCH  21  22
ATOM     22  N   UNL     1       1.082   9.408  18.809  0.00  0.00    +0.000 N 
ATOM     23  H   UNL     1       1.425   9.417  19.777  0.00  0.00    +0.000 HD
BRANCH  22  24
ATOM     24  C   UNL     1      -0.178   9.994  18.609  0.00  0.00    +0.000 A 
ATOM     25  C   UNL     1      -0.658  10.968  19.486  0.00  0.00    +0.000 A 
ATOM     26  N   UNL     1      -1.890  11.543  19.436  0.00  0.00    +0.000 NA
ATOM     27  C   UNL     1      -2.671  11.248  18.384  0.00  0.00    +0.000 A 
ATOM     28  C   UNL     1      -3.912  11.857  18.239  0.00  0.00    +0.000 A 
ATOM     29  C   UNL     1      -4.653  11.735  17.059  0.00  0.00    +0.000 A 
ATOM     30  C   UNL     1      -4.159  10.967  16.012  0.00  0.00    +0.000 A 
ATOM     31  C   UNL     1      -2.984  10.240  16.189  0.00  0.00    +0.000 A 
ATOM     32  C   UNL     1      -2.244  10.359  17.379  0.00  0.00    +0.000 A 
ATOM     33  C   UNL     1      -1.041   9.655  17.571  0.00  0.00    +0.000 A 
ENDBRANCH  22  24
ENDBRANCH  21  22
ENDBRANCH  18  20
ENDBRANCH   9  18
TORSDOF 6
ENDMDL
MODEL 7
REMARK VINA RESULT:      -8.2      3.186     10.314
REMARK  Name = 
REMARK  7 active torsions:
REMARK  status: ('A' for Active; 'I' for Inactive)
REMARK    1  A    between atoms: C_1  and  O_2
REMARK    2  A    between atoms: O_2  and  C_3
REMARK    3  A    between atoms: C_6  and  C_7
REMARK    4  A    between atoms: C_15  and  C_16
REMARK    5  A    between atoms: C_16  and  C_18
REMARK    6  A    between atoms: C_19  and  N_20
REMARK    7  A    between atoms: N_20  and  C_21
REMARK                            x       y       z     vdW  Elec       q    Type
REMARK                         _______ _______ _______ _____ _____    ______ ____
ROOT
ATOM      1  C   UNL     1      -1.861  12.176  20.173  0.00  0.00    +0.000 A 
ATOM      2  N   UNL     1      -3.028  12.408  19.485  0.00  0.00    +0.000 NA
ATOM      3  C   UNL     1      -3.000  11.613  18.458  0.00  0.00    +0.000 A 
ATOM      4  C   UNL     1      -3.983  11.431  17.447  0.00  0.00    +0.000 A 
ATOM      5  C   UNL     1      -3.756  10.577  16.437  0.00  0.00    +0.000 A 
ATOM      6  C   UNL     1      -2.518   9.830  16.369  0.00  0.00    +0.000 A 
ATOM      7  C   UNL     1      -1.597   9.976  17.340  0.00  0.00    +0.000 A 
ATOM      8  N   UNL     1      -1.815  10.865  18.405  0.00  0.00    +0.000 N 
ATOM      9  C   UNL     1      -1.062  11.194  19.550  0.00  0.00    +0.000 A 
ENDROOT
BRANCH   1  13
ATOM     10  C   UNL     1      -1.196  14.380  23.776  0.00  0.00    +0.000 A 
ATOM     11  C   UNL     1      -0.332  14.505  22.690  0.00  0.00    +0.000 A 
ATOM     12  C   UNL     1      -0.563  13.780  21.521  0.00  0.00    +0.000 A 
ATOM     13  C   UNL     1      -1.654  12.899  21.422  0.00  0.00    +0.000 A 
ATOM     14  C   UNL     1      -2.452  12.709  22.557  0.00  0.00    +0.000 A 
ATOM     15  C   UNL     1      -2.243  13.463  23.718  0.00  0.00    +0.000 A 
BRANCH  10  17
ATOM     16  C   UNL     1      -1.980  15.351  25.770  0.00  0.00    +0.000 C 
ATOM     17  O   UNL     1      -0.906  15.171  24.854  0.00  0.00    +0.000 OA
ENDBRANCH  10  17
ENDBRANCH   1  13
BRANCH   9  18
ATOM     18  C   UNL     1       0.179  10.640  20.095  0.00  0.00    +0.000 C 
ATOM     19  O   UNL     1       1.284  10.943  19.630  0.00  0.00    +0.000 OA
BRANCH  18  20
ATOM     20  C   UNL     1       0.230   9.682  21.245  0.00  0.00    +0.000 C 
ATOM     21  C   UNL     1       1.010   8.584  21.244  0.00  0.00    +0.000 C 
BRANCH  21  22
ATOM     22  N   UNL     1       1.803   8.093  20.233  0.00  0.00    +0.000 N 
ATOM     23  H   UNL     1       2.371   8.812  19.770  0.00  0.00    +0.000 HD
BRANCH  22  24
ATOM     24  C   UNL     1       2.126   6.766  19.906  0.00  0.00    +0.000 A 
ATOM     25  C   UNL     1       1.610   5.703  20.649  0.00  0.00    +0.000 A 
ATOM     26  N   UNL     1       1.917   4.389  20.473  0.00  0.00    +0.000 NA
ATOM     27  C   UNL     1       2.682   4.066  19.419  0.00  0.00    +0.000 A 
ATOM     28  C   UNL     1       2.973   2.734  19.145  0.00  0.00    +0.000 A 
ATOM     29  C   UNL     1       3.584   2.350  17.948  0.00  0.00    +0.000 A 
ATOM     30  C   UNL     1       3.937   3.317  17.014  0.00  0.00    +0.000 A 
ATOM     31  C   UNL     1       3.779   4.664  17.329  0.00  0.00    +0.000 A 
ATOM     32  C   UNL     1       3.171   5.048  18.537  0.00  0.00    +0.000 A 
ATOM     33  C   UNL     1       2.976   6.403  18.865  0.00  0.00    +0.000 A 
ENDBRANCH  22  24
ENDBRANCH  21  22
ENDBRANCH  18  20
ENDBRANCH   9  18
TORSDOF 6
ENDMDL
MODEL 8
REMARK VINA RESULT:      -8.1      1.517      2.085
REMARK  Name = 
REMARK  7 active torsions:
REMARK  status: ('A' for Active; 'I' for Inactive)
REMARK    1  A    between atoms: C_1  and  O_2
REMARK    2  A    between atoms: O_2  and  C_3
REMARK    3  A    between atoms: C_6  and  C_7
REMARK    4  A    between atoms: C_15  and  C_16
REMARK    5  A    between atoms: C_16  and  C_18
REMARK    6  A    between atoms: C_19  and  N_20
REMARK    7  A    between atoms: N_20  and  C_21
REMARK                            x       y       z     vdW  Elec       q    Type
REMARK                         _______ _______ _______ _____ _____    ______ ____
ROOT
ATOM      1  C   UNL     1       4.158   4.275  17.188  0.00  0.00    +0.000 A 
ATOM      2  N   UNL     1       3.709   3.020  17.524  0.00  0.00    +0.000 NA
ATOM      3  C   UNL     1       2.851   3.193  18.484  0.00  0.00    +0.000 A 
ATOM      4  C   UNL     1       2.070   2.220  19.165  0.00  0.00    +0.000 A 
ATOM      5  C   UNL     1       1.254   2.593  20.164  0.00  0.00    +0.000 A 
ATOM      6  C   UNL     1       1.156   3.984  20.551  0.00  0.00    +0.000 A 
ATOM      7  C   UNL     1       1.871   4.913  19.890  0.00  0.00    +0.000 A 
ATOM      8  N   UNL     1       2.730   4.543  18.843  0.00  0.00    +0.000 N 
ATOM      9  C   UNL     1       3.558   5.281  17.974  0.00  0.00    +0.000 A 
ENDROOT
BRANCH   1  13
ATOM     10  C   UNL     1       6.824   4.611  13.862  0.00  0.00    +0.000 A 
ATOM     11  C   UNL     1       5.528   4.126  13.696  0.00  0.00    +0.000 A 
ATOM     12  C   UNL     1       4.670   4.023  14.791  0.00  0.00    +0.000 A 
ATOM     13  C   UNL     1       5.098   4.386  16.080  0.00  0.00    +0.000 A 
ATOM     14  C   UNL     1       6.433   4.775  16.245  0.00  0.00    +0.000 A 
ATOM     15  C   UNL     1       7.284   4.914  15.143  0.00  0.00    +0.000 A 
BRANCH  10  17
ATOM     16  C   UNL     1       8.485   5.802  12.699  0.00  0.00    +0.000 C 
ATOM     17  O   UNL     1       7.565   4.717  12.718  0.00  0.00    +0.000 OA
ENDBRANCH  10  17
ENDBRANCH   1  13
BRANCH   9  18
ATOM     18  C   UNL     1       3.735   6.723  17.784  0.00  0.00    +0.000 C 
ATOM     19  O   UNL     1       4.814   7.281  18.017  0.00  0.00    +0.000 OA
BRANCH  18  20
ATOM     20  C   UNL     1       2.655   7.637  17.293  0.00  0.00    +0.000 C 
ATOM     21  C   UNL     1       1.887   8.369  18.125  0.00  0.00    +0.000 C 
BRANCH  21  22
ATOM     22  N   UNL     1       1.869   8.371  19.501  0.00  0.00    +0.000 N 
ATOM     23  H   UNL     1       2.690   7.921  19.923  0.00  0.00    +0.000 HD
BRANCH  22  24
ATOM     24  C   UNL     1       1.047   9.084  20.389  0.00  0.00    +0.000 A 
ATOM     25  C   UNL     1       0.884   8.657  21.707  0.00  0.00    +0.000 A 
ATOM     26  N   UNL     1       0.054   9.221  22.627  0.00  0.00    +0.000 NA
ATOM     27  C   UNL     1      -0.569  10.359  22.285  0.00  0.00    +0.000 A 
ATOM     28  C   UNL     1      -1.375  11.022  23.204  0.00  0.00    +0.000 A 
ATOM     29  C   UNL     1      -1.866  12.306  22.955  0.00  0.00    +0.000 A 
ATOM     30  C   UNL     1      -1.569  12.935  21.752  0.00  0.00    +0.000 A 
ATOM     31  C   UNL     1      -0.880  12.236  20.764  0.00  0.00    +0.000 A 
ATOM     32  C   UNL     1      -0.393  10.941  21.015  0.00  0.00    +0.000 A 
ATOM     33  C   UNL     1       0.329  10.225  20.042  0.00  0.00    +0.000 A 
ENDBRANCH  22  24
ENDBRANCH  21  22
ENDBRANCH  18  20
ENDBRANCH   9  18
TORSDOF 6
ENDMDL
MODEL 9
REMARK VINA RESULT:      -8.1      3.574     10.435
REMARK  Name = 
REMARK  7 active torsions:
REMARK  status: ('A' for Active; 'I' for Inactive)
REMARK    1  A    between atoms: C_1  and  O_2
REMARK    2  A    between atoms: O_2  and  C_3
REMARK    3  A    between atoms: C_6  and  C_7
REMARK    4  A    between atoms: C_15  and  C_16
REMARK    5  A    between atoms: C_16  and  C_18
REMARK    6  A    between atoms: C_19  and  N_20
REMARK    7  A    between atoms: N_20  and  C_21
REMARK                            x       y       z     vdW  Elec       q    Type
REMARK                         _______ _______ _______ _____ _____    ______ ____
ROOT
ATOM      1  C   UNL     1      -0.695  13.020  20.457  0.00  0.00    +0.000 A 
ATOM      2  N   UNL     1      -0.299  14.287  20.103  0.00  0.00    +0.000 NA
ATOM      3  C   UNL     1       0.792  14.141  19.414  0.00  0.00    +0.000 A 
ATOM      4  C   UNL     1       1.586  15.137  18.782  0.00  0.00    +0.000 A 
ATOM      5  C   UNL     1       2.710  14.789  18.136  0.00  0.00    +0.000 A 
ATOM      6  C   UNL     1       3.120  13.403  18.068  0.00  0.00    +0.000 A 
ATOM      7  C   UNL     1       2.357  12.453  18.639  0.00  0.00    +0.000 A 
ATOM      8  N   UNL     1       1.178  12.796  19.320  0.00  0.00    +0.000 N 
ATOM      9  C   UNL     1       0.188  12.032  19.972  0.00  0.00    +0.000 A 
ENDROOT
BRANCH   1  13
ATOM     10  C   UNL     1      -4.412  12.577  22.522  0.00  0.00    +0.000 A 
ATOM     11  C   UNL     1      -4.380  12.872  21.162  0.00  0.00    +0.000 A 
ATOM     12  C   UNL     1      -3.159  13.013  20.501  0.00  0.00    +0.000 A 
ATOM     13  C   UNL     1      -1.943  12.879  21.196  0.00  0.00    +0.000 A 
ATOM     14  C   UNL     1      -1.996  12.683  22.581  0.00  0.00    +0.000 A 
ATOM     15  C   UNL     1      -3.218  12.506  23.238  0.00  0.00    +0.000 A 
BRANCH  10  17
ATOM     16  C   UNL     1      -6.544  13.510  22.862  0.00  0.00    +0.000 C 
ATOM     17  O   UNL     1      -5.659  12.413  23.060  0.00  0.00    +0.000 OA
ENDBRANCH  10  17
ENDBRANCH   1  13
BRANCH   9  18
ATOM     18  C   UNL     1      -0.016  10.586  20.078  0.00  0.00    +0.000 C 
ATOM     19  O   UNL     1      -0.163   9.876  19.077  0.00  0.00    +0.000 OA
BRANCH  18  20
ATOM     20  C   UNL     1      -0.059   9.844  21.379  0.00  0.00    +0.000 C 
ATOM     21  C   UNL     1       0.837   8.892  21.703  0.00  0.00    +0.000 C 
BRANCH  21  22
ATOM     22  N   UNL     1       1.856   8.372  20.938  0.00  0.00    +0.000 N 
ATOM     23  H   UNL     1       2.755   8.851  21.070  0.00  0.00    +0.000 HD
BRANCH  22  24
ATOM     24  C   UNL     1       1.912   7.173  20.209  0.00  0.00    +0.000 A 
ATOM     25  C   UNL     1       2.482   7.139  18.936  0.00  0.00    +0.000 A 
ATOM     26  N   UNL     1       2.519   6.057  18.111  0.00  0.00    +0.000 NA
ATOM     27  C   UNL     1       2.083   4.887  18.603  0.00  0.00    +0.000 A 
ATOM     28  C   UNL     1       2.160   3.730  17.835  0.00  0.00    +0.000 A 
ATOM     29  C   UNL     1       1.914   2.469  18.385  0.00  0.00    +0.000 A 
ATOM     30  C   UNL     1       1.559   2.359  19.724  0.00  0.00    +0.000 A 
ATOM     31  C   UNL     1       1.345   3.513  20.473  0.00  0.00    +0.000 A 
ATOM     32  C   UNL     1       1.585   4.781  19.916  0.00  0.00    +0.000 A 
ATOM     33  C   UNL     1       1.401   5.959  20.662  0.00  0.00    +0.000 A 
ENDBRANCH  22  24
ENDBRANCH  21  22
ENDBRANCH  18  20
ENDBRANCH   9  18
TORSDOF 6
ENDMDL
