MODEL 1
REMARK VINA RESULT:      -7.8      0.000      0.000
REMARK  Name = 
REMARK  4 active torsions:
REMARK  status: ('A' for Active; 'I' for Inactive)
REMARK    1  A    between atoms: N_3  and  C_4
REMARK    2  A    between atoms: C_4  and  C_5
REMARK    3  A    between atoms: C_9  and  C_10
REMARK    4  A    between atoms: N_18  and  C_19
REMARK                            x       y       z     vdW  Elec       q    Type
REMARK                         _______ _______ _______ _____ _____    ______ ____
ROOT
ATOM      1  C   UNL     1       6.892   4.633  16.943  0.00  0.00    +0.000 C 
ENDROOT
BRANCH   1   4
ATOM      2  O   UNL     1       6.655   5.597  14.232  0.00  0.00    +0.000 OA
ATOM      3  C   UNL     1       6.681   4.400  14.466  0.00  0.00    +0.000 C 
ATOM      4  N   UNL     1       6.793   3.849  15.720  0.00  0.00    +0.000 N 
ATOM      5  N   UNL     1       6.622   3.411  13.515  0.00  0.00    +0.000 N 
ATOM      6  H   UNL     1       7.224   2.938  15.753  0.00  0.00    +0.000 HD
ATOM      7  H   UNL     1       6.345   2.503  13.851  0.00  0.00    +0.000 HD
BRANCH   5   8
ATOM      8  C   UNL     1       6.644   3.626  12.068  0.00  0.00    +0.000 C 
ATOM      9  C   UNL     1       7.140   2.360  11.360  0.00  0.00    +0.000 C 
ATOM     10  C   UNL     1       6.127   1.220  11.446  0.00  0.00    +0.000 C 
ATOM     11  C   UNL     1       4.802   1.607  10.805  0.00  0.00    +0.000 C 
ATOM     12  C   UNL     1       4.254   2.949  11.292  0.00  0.00    +0.000 C 
ATOM     13  C   UNL     1       5.293   4.061  11.463  0.00  0.00    +0.000 C 
ENDBRANCH   5   8
ENDBRANCH   1   4
BRANCH   1  14
ATOM     14  C   UNL     1       5.580   5.348  17.180  0.00  0.00    +0.000 A 
ATOM     15  C   UNL     1       5.448   6.740  17.203  0.00  0.00    +0.000 A 
ATOM     16  C   UNL     1       4.223   7.327  17.549  0.00  0.00    +0.000 A 
ATOM     17  C   UNL     1       3.133   6.529  17.915  0.00  0.00    +0.000 A 
ATOM     18  C   UNL     1       3.248   5.135  17.882  0.00  0.00    +0.000 A 
ATOM     19  C   UNL     1       4.447   4.569  17.447  0.00  0.00    +0.000 A 
BRANCH  18  20
ATOM     20  C   UNL     1       2.080   4.278  18.238  0.00  0.00    +0.000 C 
ATOM     21  O   UNL     1       1.125   4.257  17.463  0.00  0.00    +0.000 OA
ATOM     22  N   UNL     1       2.103   3.538  19.417  0.00  0.00    +0.000 N 
ATOM     23  C   UNL     1       1.054   2.584  19.720  0.00  0.00    +0.000 C 
ATOM     24  C   UNL     1       0.919   2.652  21.232  0.00  0.00    +0.000 C 
ATOM     25  C   UNL     1       2.337   2.931  21.708  0.00  0.00    +0.000 C 
ATOM     26  C   UNL     1       2.973   3.722  20.573  0.00  0.00    +0.000 C 
ENDBRANCH  18  20
ENDBRANCH   1  14
TORSDOF 4
ENDMDL
MODEL 2
REMARK VINA RESULT:      -7.8      1.970      3.348
REMARK  Name = 
REMARK  4 active torsions:
REMARK  status: ('A' for Active; 'I' for Inactive)
REMARK    1  A    between atoms: N_3  and  C_4
REMARK    2  A    between atoms: C_4  and  C_5
REMARK    3  A    between atoms: C_9  and  C_10
REMARK    4  A    between atoms: N_18  and  C_19
REMARK                            x       y       z     vdW  Elec       q    Type
REMARK                         _______ _______ _______ _____ _____    ______ ____
ROOT
ATOM      1  C   UNL     1       6.036   4.416  17.405  0.00  0.00    +0.000 C 
ENDROOT
BRANCH   1   4
ATOM      2  O   UNL     1       5.691   5.561  14.777  0.00  0.00    +0.000 OA
ATOM      3  C   UNL     1       6.066   4.408  14.908  0.00  0.00    +0.000 C 
ATOM      4  N   UNL     1       6.260   3.779  16.114  0.00  0.00    +0.000 N 
ATOM      5  N   UNL     1       6.373   3.559  13.873  0.00  0.00    +0.000 N 
ATOM      6  H   UNL     1       6.946   3.040  16.109  0.00  0.00    +0.000 HD
ATOM      7  H   UNL     1       6.366   2.578  14.102  0.00  0.00    +0.000 HD
BRANCH   5   8
ATOM      8  C   UNL     1       6.421   3.930  12.460  0.00  0.00    +0.000 C 
ATOM      9  C   UNL     1       7.353   2.978  11.701  0.00  0.00    +0.000 C 
ATOM     10  C   UNL     1       6.768   1.571  11.589  0.00  0.00    +0.000 C 
ATOM     11  C   UNL     1       5.436   1.581  10.853  0.00  0.00    +0.000 C 
ATOM     12  C   UNL     1       4.445   2.613  11.392  0.00  0.00    +0.000 C 
ATOM     13  C   UNL     1       5.046   3.974  11.760  0.00  0.00    +0.000 C 
ENDBRANCH   5   8
ENDBRANCH   1   4
BRANCH   1  14
ATOM     14  C   UNL     1       4.581   4.263  17.786  0.00  0.00    +0.000 A 
ATOM     15  C   UNL     1       3.743   3.271  17.265  0.00  0.00    +0.000 A 
ATOM     16  C   UNL     1       2.376   3.270  17.575  0.00  0.00    +0.000 A 
ATOM     17  C   UNL     1       1.827   4.281  18.372  0.00  0.00    +0.000 A 
ATOM     18  C   UNL     1       2.657   5.271  18.909  0.00  0.00    +0.000 A 
ATOM     19  C   UNL     1       4.030   5.204  18.666  0.00  0.00    +0.000 A 
BRANCH  18  20
ATOM     20  C   UNL     1       2.085   6.332  19.787  0.00  0.00    +0.000 C 
ATOM     21  O   UNL     1       1.669   6.000  20.896  0.00  0.00    +0.000 OA
ATOM     22  N   UNL     1       2.039   7.648  19.335  0.00  0.00    +0.000 N 
ATOM     23  C   UNL     1       1.629   8.727  20.214  0.00  0.00    +0.000 C 
ATOM     24  C   UNL     1       0.909   9.699  19.294  0.00  0.00    +0.000 C 
ATOM     25  C   UNL     1       1.656   9.567  17.975  0.00  0.00    +0.000 C 
ATOM     26  C   UNL     1       2.159   8.129  17.963  0.00  0.00    +0.000 C 
ENDBRANCH  18  20
ENDBRANCH   1  14
TORSDOF 4
ENDMDL
MODEL 3
REMARK VINA RESULT:      -7.7      6.217     10.551
REMARK  Name = 
REMARK  4 active torsions:
REMARK  status: ('A' for Active; 'I' for Inactive)
REMARK    1  A    between atoms: N_3  and  C_4
REMARK    2  A    between atoms: C_4  and  C_5
REMARK    3  A    between atoms: C_9  and  C_10
REMARK    4  A    between atoms: N_18  and  C_19
REMARK                            x       y       z     vdW  Elec       q    Type
REMARK                         _______ _______ _______ _____ _____    ______ ____
ROOT
ATOM      1  C   UNL     1       0.949   8.389  21.488  0.00  0.00    +0.000 C 
ENDROOT
BRANCH   1   4
ATOM      2  O   UNL     1       0.089   9.972  23.745  0.00  0.00    +0.000 OA
ATOM      3  C   UNL     1      -0.347  10.195  22.627  0.00  0.00    +0.000 C 
ATOM      4  N   UNL     1       0.003   9.498  21.496  0.00  0.00    +0.000 N 
ATOM      5  N   UNL     1      -1.243  11.188  22.316  0.00  0.00    +0.000 N 
ATOM      6  H   UNL     1      -0.065  10.016  20.633  0.00  0.00    +0.000 HD
ATOM      7  H   UNL     1      -1.741  11.066  21.449  0.00  0.00    +0.000 HD
BRANCH   5   8
ATOM      8  C   UNL     1      -1.724  12.214  23.241  0.00  0.00    +0.000 C 
ATOM      9  C   UNL     1      -1.064  13.560  22.917  0.00  0.00    +0.000 C 
ATOM     10  C   UNL     1      -1.561  14.138  21.593  0.00  0.00    +0.000 C 
ATOM     11  C   UNL     1      -3.066  14.366  21.618  0.00  0.00    +0.000 C 
ATOM     12  C   UNL     1      -3.863  13.150  22.091  0.00  0.00    +0.000 C 
ATOM     13  C   UNL     1      -3.257  12.384  23.271  0.00  0.00    +0.000 C 
ENDBRANCH   5   8
ENDBRANCH   1   4
BRANCH   1  14
ATOM     14  C   UNL     1       1.582   8.289  20.119  0.00  0.00    +0.000 A 
ATOM     15  C   UNL     1       1.388   9.231  19.103  0.00  0.00    +0.000 A 
ATOM     16  C   UNL     1       1.911   9.004  17.822  0.00  0.00    +0.000 A 
ATOM     17  C   UNL     1       2.596   7.818  17.535  0.00  0.00    +0.000 A 
ATOM     18  C   UNL     1       2.809   6.875  18.546  0.00  0.00    +0.000 A 
ATOM     19  C   UNL     1       2.361   7.159  19.837  0.00  0.00    +0.000 A 
BRANCH  18  20
ATOM     20  C   UNL     1       3.568   5.624  18.256  0.00  0.00    +0.000 C 
ATOM     21  O   UNL     1       4.718   5.733  17.834  0.00  0.00    +0.000 OA
ATOM     22  N   UNL     1       2.963   4.388  18.467  0.00  0.00    +0.000 N 
ATOM     23  C   UNL     1       3.717   3.155  18.339  0.00  0.00    +0.000 C 
ATOM     24  C   UNL     1       2.706   2.159  17.797  0.00  0.00    +0.000 C 
ATOM     25  C   UNL     1       1.395   2.595  18.433  0.00  0.00    +0.000 C 
ATOM     26  C   UNL     1       1.541   4.100  18.619  0.00  0.00    +0.000 C 
ENDBRANCH  18  20
ENDBRANCH   1  14
TORSDOF 4
ENDMDL
MODEL 4
REMARK VINA RESULT:      -7.5      2.250      3.158
REMARK  Name = 
REMARK  4 active torsions:
REMARK  status: ('A' for Active; 'I' for Inactive)
REMARK    1  A    between atoms: N_3  and  C_4
REMARK    2  A    between atoms: C_4  and  C_5
REMARK    3  A    between atoms: C_9  and  C_10
REMARK    4  A    between atoms: N_18  and  C_19
REMARK                            x       y       z     vdW  Elec       q    Type
REMARK                         _______ _______ _______ _____ _____    ______ ____
ROOT
ATOM      1  C   UNL     1       6.174   4.535  17.388  0.00  0.00    +0.000 C 
ENDROOT
BRANCH   1   4
ATOM      2  O   UNL     1       6.050   5.663  14.733  0.00  0.00    +0.000 OA
ATOM      3  C   UNL     1       6.202   4.462  14.892  0.00  0.00    +0.000 C 
ATOM      4  N   UNL     1       6.276   3.837  16.113  0.00  0.00    +0.000 N 
ATOM      5  N   UNL     1       6.345   3.547  13.878  0.00  0.00    +0.000 N 
ATOM      6  H   UNL     1       6.811   2.983  16.127  0.00  0.00    +0.000 HD
ATOM      7  H   UNL     1       6.154   2.590  14.130  0.00  0.00    +0.000 HD
BRANCH   5   8
ATOM      8  C   UNL     1       6.461   3.870  12.456  0.00  0.00    +0.000 C 
ATOM      9  C   UNL     1       7.168   2.727  11.718  0.00  0.00    +0.000 C 
ATOM     10  C   UNL     1       6.300   1.473  11.638  0.00  0.00    +0.000 C 
ATOM     11  C   UNL     1       4.996   1.747  10.903  0.00  0.00    +0.000 C 
ATOM     12  C   UNL     1       4.247   2.975  11.421  0.00  0.00    +0.000 C 
ATOM     13  C   UNL     1       5.123   4.187  11.758  0.00  0.00    +0.000 C 
ENDBRANCH   5   8
ENDBRANCH   1   4
BRANCH   1  14
ATOM     14  C   UNL     1       4.715   4.732  17.729  0.00  0.00    +0.000 A 
ATOM     15  C   UNL     1       3.786   3.688  17.797  0.00  0.00    +0.000 A 
ATOM     16  C   UNL     1       2.427   3.965  17.999  0.00  0.00    +0.000 A 
ATOM     17  C   UNL     1       1.979   5.288  18.095  0.00  0.00    +0.000 A 
ATOM     18  C   UNL     1       2.900   6.340  18.043  0.00  0.00    +0.000 A 
ATOM     19  C   UNL     1       4.259   6.040  17.933  0.00  0.00    +0.000 A 
BRANCH  18  20
ATOM     20  C   UNL     1       2.434   7.751  18.179  0.00  0.00    +0.000 C 
ATOM     21  O   UNL     1       2.704   8.536  17.272  0.00  0.00    +0.000 OA
ATOM     22  N   UNL     1       1.718   8.133  19.310  0.00  0.00    +0.000 N 
ATOM     23  C   UNL     1       1.123   9.452  19.407  0.00  0.00    +0.000 C 
ATOM     24  C   UNL     1       1.225   9.795  20.884  0.00  0.00    +0.000 C 
ATOM     25  C   UNL     1       1.061   8.450  21.577  0.00  0.00    +0.000 C 
ATOM     26  C   UNL     1       1.626   7.438  20.590  0.00  0.00    +0.000 C 
ENDBRANCH  18  20
ENDBRANCH   1  14
TORSDOF 4
ENDMDL
MODEL 5
REMARK VINA RESULT:      -7.4      6.367     10.576
REMARK  Name = 
REMARK  4 active torsions:
REMARK  status: ('A' for Active; 'I' for Inactive)
REMARK    1  A    between atoms: N_3  and  C_4
REMARK    2  A    between atoms: C_4  and  C_5
REMARK    3  A    between atoms: C_9  and  C_10
REMARK    4  A    between atoms: N_18  and  C_19
REMARK                            x       y       z     vdW  Elec       q    Type
REMARK                         _______ _______ _______ _____ _____    ______ ____
ROOT
ATOM      1  C   UNL     1       0.490   8.621  21.420  0.00  0.00    +0.000 C 
ENDROOT
BRANCH   1   4
ATOM      2  O   UNL     1      -0.177  10.833  23.151  0.00  0.00    +0.000 OA
ATOM      3  C   UNL     1      -0.583  10.800  22.000  0.00  0.00    +0.000 C 
ATOM      4  N   UNL     1      -0.316   9.793  21.105  0.00  0.00    +0.000 N 
ATOM      5  N   UNL     1      -1.353  11.771  21.410  0.00  0.00    +0.000 N 
ATOM      6  H   UNL     1      -0.321  10.067  20.134  0.00  0.00    +0.000 HD
ATOM      7  H   UNL     1      -1.861  11.481  20.589  0.00  0.00    +0.000 HD
BRANCH   5   8
ATOM      8  C   UNL     1      -1.709  13.054  22.015  0.00  0.00    +0.000 C 
ATOM      9  C   UNL     1      -2.432  13.933  20.988  0.00  0.00    +0.000 C 
ATOM     10  C   UNL     1      -3.823  13.400  20.653  0.00  0.00    +0.000 C 
ATOM     11  C   UNL     1      -4.704  13.334  21.892  0.00  0.00    +0.000 C 
ATOM     12  C   UNL     1      -4.047  12.625  23.076  0.00  0.00    +0.000 C 
ATOM     13  C   UNL     1      -2.564  12.944  23.295  0.00  0.00    +0.000 C 
ENDBRANCH   5   8
ENDBRANCH   1   4
BRANCH   1  14
ATOM     14  C   UNL     1       1.371   8.293  20.236  0.00  0.00    +0.000 A 
ATOM     15  C   UNL     1       1.404   9.050  19.060  0.00  0.00    +0.000 A 
ATOM     16  C   UNL     1       2.156   8.612  17.961  0.00  0.00    +0.000 A 
ATOM     17  C   UNL     1       2.846   7.396  18.012  0.00  0.00    +0.000 A 
ATOM     18  C   UNL     1       2.831   6.636  19.186  0.00  0.00    +0.000 A 
ATOM     19  C   UNL     1       2.153   7.132  20.301  0.00  0.00    +0.000 A 
BRANCH  18  20
ATOM     20  C   UNL     1       3.592   5.355  19.260  0.00  0.00    +0.000 C 
ATOM     21  O   UNL     1       4.814   5.418  19.382  0.00  0.00    +0.000 OA
ATOM     22  N   UNL     1       2.909   4.144  19.188  0.00  0.00    +0.000 N 
ATOM     23  C   UNL     1       3.596   2.885  19.405  0.00  0.00    +0.000 C 
ATOM     24  C   UNL     1       2.885   1.913  18.478  0.00  0.00    +0.000 C 
ATOM     25  C   UNL     1       1.446   2.405  18.477  0.00  0.00    +0.000 C 
ATOM     26  C   UNL     1       1.554   3.907  18.704  0.00  0.00    +0.000 C 
ENDBRANCH  18  20
ENDBRANCH   1  14
TORSDOF 4
ENDMDL
MODEL 6
REMARK VINA RESULT:      -7.3      4.328      7.085
REMARK  Name = 
REMARK  4 active torsions:
REMARK  status: ('A' for Active; 'I' for Inactive)
REMARK    1  A    between atoms: N_3  and  C_4
REMARK    2  A    between atoms: C_4  and  C_5
REMARK    3  A    between atoms: C_9  and  C_10
REMARK    4  A    between atoms: N_18  and  C_19
REMARK                            x       y       z     vdW  Elec       q    Type
REMARK                         _______ _______ _______ _____ _____    ______ ____
ROOT
ATOM      1  C   UNL     1       7.887   5.924  18.473  0.00  0.00    +0.000 C 
ENDROOT
BRANCH   1   4
ATOM      2  O   UNL     1       8.293   8.422  17.084  0.00  0.00    +0.000 OA
ATOM      3  C   UNL     1       8.457   8.348  18.291  0.00  0.00    +0.000 C 
ATOM      4  N   UNL     1       8.286   7.207  19.036  0.00  0.00    +0.000 N 
ATOM      5  N   UNL     1       8.820   9.397  19.100  0.00  0.00    +0.000 N 
ATOM      6  H   UNL     1       8.028   7.357  20.000  0.00  0.00    +0.000 HD
ATOM      7  H   UNL     1       9.212   9.139  19.992  0.00  0.00    +0.000 HD
BRANCH   5   8
ATOM      8  C   UNL     1       8.947  10.790  18.675  0.00  0.00    +0.000 C 
ATOM      9  C   UNL     1       8.815  11.720  19.887  0.00  0.00    +0.000 C 
ATOM     10  C   UNL     1      10.017  11.615  20.823  0.00  0.00    +0.000 C 
ATOM     11  C   UNL     1      11.310  11.983  20.110  0.00  0.00    +0.000 C 
ATOM     12  C   UNL     1      11.506  11.253  18.781  0.00  0.00    +0.000 C 
ATOM     13  C   UNL     1      10.250  11.112  17.915  0.00  0.00    +0.000 C 
ENDBRANCH   5   8
ENDBRANCH   1   4
BRANCH   1  14
ATOM     14  C   UNL     1       6.471   6.031  17.953  0.00  0.00    +0.000 A 
ATOM     15  C   UNL     1       6.152   6.419  16.647  0.00  0.00    +0.000 A 
ATOM     16  C   UNL     1       4.814   6.612  16.277  0.00  0.00    +0.000 A 
ATOM     17  C   UNL     1       3.788   6.460  17.218  0.00  0.00    +0.000 A 
ATOM     18  C   UNL     1       4.094   6.059  18.522  0.00  0.00    +0.000 A 
ATOM     19  C   UNL     1       5.423   5.782  18.848  0.00  0.00    +0.000 A 
BRANCH  18  20
ATOM     20  C   UNL     1       3.003   5.861  19.520  0.00  0.00    +0.000 C 
ATOM     21  O   UNL     1       2.703   6.812  20.240  0.00  0.00    +0.000 OA
ATOM     22  N   UNL     1       2.365   4.626  19.607  0.00  0.00    +0.000 N 
ATOM     23  C   UNL     1       1.205   4.443  20.459  0.00  0.00    +0.000 C 
ATOM     24  C   UNL     1       1.333   3.011  20.953  0.00  0.00    +0.000 C 
ATOM     25  C   UNL     1       1.976   2.283  19.782  0.00  0.00    +0.000 C 
ATOM     26  C   UNL     1       2.826   3.342  19.092  0.00  0.00    +0.000 C 
ENDBRANCH  18  20
ENDBRANCH   1  14
TORSDOF 4
ENDMDL
MODEL 7
REMARK VINA RESULT:      -7.1      6.224      8.727
REMARK  Name = 
REMARK  4 active torsions:
REMARK  status: ('A' for Active; 'I' for Inactive)
REMARK    1  A    between atoms: N_3  and  C_4
REMARK    2  A    between atoms: C_4  and  C_5
REMARK    3  A    between atoms: C_9  and  C_10
REMARK    4  A    between atoms: N_18  and  C_19
REMARK                            x       y       z     vdW  Elec       q    Type
REMARK                         _______ _______ _______ _____ _____    ______ ____
ROOT
ATOM      1  C   UNL     1       1.842  10.009  17.849  0.00  0.00    +0.000 C 
ENDROOT
BRANCH   1   4
ATOM      2  O   UNL     1       3.423   7.609  17.573  0.00  0.00    +0.000 OA
ATOM      3  C   UNL     1       2.552   7.685  18.424  0.00  0.00    +0.000 C 
ATOM      4  N   UNL     1       1.753   8.783  18.632  0.00  0.00    +0.000 N 
ATOM      5  N   UNL     1       2.244   6.695  19.324  0.00  0.00    +0.000 N 
ATOM      6  H   UNL     1       1.410   8.895  19.573  0.00  0.00    +0.000 HD
ATOM      7  H   UNL     1       1.332   6.764  19.747  0.00  0.00    +0.000 HD
BRANCH   5   8
ATOM      8  C   UNL     1       2.982   5.444  19.493  0.00  0.00    +0.000 C 
ATOM      9  C   UNL     1       2.457   4.689  20.720  0.00  0.00    +0.000 C 
ATOM     10  C   UNL     1       1.049   4.140  20.496  0.00  0.00    +0.000 C 
ATOM     11  C   UNL     1       1.010   3.175  19.320  0.00  0.00    +0.000 C 
ATOM     12  C   UNL     1       1.658   3.728  18.051  0.00  0.00    +0.000 C 
ATOM     13  C   UNL     1       2.957   4.513  18.263  0.00  0.00    +0.000 C 
ENDBRANCH   5   8
ENDBRANCH   1   4
BRANCH   1  14
ATOM     14  C   UNL     1       1.593  11.194  18.754  0.00  0.00    +0.000 A 
ATOM     15  C   UNL     1       2.271  12.412  18.643  0.00  0.00    +0.000 A 
ATOM     16  C   UNL     1       2.071  13.420  19.597  0.00  0.00    +0.000 A 
ATOM     17  C   UNL     1       1.223  13.204  20.690  0.00  0.00    +0.000 A 
ATOM     18  C   UNL     1       0.529  11.996  20.805  0.00  0.00    +0.000 A 
ATOM     19  C   UNL     1       0.671  11.040  19.798  0.00  0.00    +0.000 A 
BRANCH  18  20
ATOM     20  C   UNL     1      -0.402  11.772  21.949  0.00  0.00    +0.000 C 
ATOM     21  O   UNL     1      -0.081  10.942  22.798  0.00  0.00    +0.000 OA
ATOM     22  N   UNL     1      -1.588  12.498  22.023  0.00  0.00    +0.000 N 
ATOM     23  C   UNL     1      -2.442  12.416  23.192  0.00  0.00    +0.000 C 
ATOM     24  C   UNL     1      -3.848  12.559  22.633  0.00  0.00    +0.000 C 
ATOM     25  C   UNL     1      -3.671  13.502  21.453  0.00  0.00    +0.000 C 
ATOM     26  C   UNL     1      -2.257  13.233  20.955  0.00  0.00    +0.000 C 
ENDBRANCH  18  20
ENDBRANCH   1  14
TORSDOF 4
ENDMDL
MODEL 8
REMARK VINA RESULT:      -7.1      6.236     10.804
REMARK  Name = 
REMARK  4 active torsions:
REMARK  status: ('A' for Active; 'I' for Inactive)
REMARK    1  A    between atoms: N_3  and  C_4
REMARK    2  A    between atoms: C_4  and  C_5
REMARK    3  A    between atoms: C_9  and  C_10
REMARK    4  A    between atoms: N_18  and  C_19
REMARK                            x       y       z     vdW  Elec       q    Type
REMARK                         _______ _______ _______ _____ _____    ______ ____
ROOT
ATOM      1  C   UNL     1       1.114   8.538  21.488  0.00  0.00    +0.000 C 
ENDROOT
BRANCH   1   4
ATOM      2  O   UNL     1       0.048   9.946  23.772  0.00  0.00    +0.000 OA
ATOM      3  C   UNL     1      -0.236  10.296  22.638  0.00  0.00    +0.000 C 
ATOM      4  N   UNL     1       0.223   9.691  21.493  0.00  0.00    +0.000 N 
ATOM      5  N   UNL     1      -1.042  11.362  22.323  0.00  0.00    +0.000 N 
ATOM      6  H   UNL     1       0.285  10.291  20.685  0.00  0.00    +0.000 HD
ATOM      7  H   UNL     1      -1.433  11.349  21.394  0.00  0.00    +0.000 HD
BRANCH   5   8
ATOM      8  C   UNL     1      -1.591  12.321  23.281  0.00  0.00    +0.000 C 
ATOM      9  C   UNL     1      -1.270  13.751  22.830  0.00  0.00    +0.000 C 
ATOM     10  C   UNL     1      -2.051  14.147  21.579  0.00  0.00    +0.000 C 
ATOM     11  C   UNL     1      -3.552  14.074  21.816  0.00  0.00    +0.000 C 
ATOM     12  C   UNL     1      -4.013  12.752  22.431  0.00  0.00    +0.000 C 
ATOM     13  C   UNL     1      -3.107  12.185  23.529  0.00  0.00    +0.000 C 
ENDBRANCH   5   8
ENDBRANCH   1   4
BRANCH   1  14
ATOM     14  C   UNL     1       1.647   8.331  20.088  0.00  0.00    +0.000 A 
ATOM     15  C   UNL     1       1.518   9.272  19.061  0.00  0.00    +0.000 A 
ATOM     16  C   UNL     1       1.930   8.956  17.759  0.00  0.00    +0.000 A 
ATOM     17  C   UNL     1       2.435   7.685  17.464  0.00  0.00    +0.000 A 
ATOM     18  C   UNL     1       2.581   6.739  18.484  0.00  0.00    +0.000 A 
ATOM     19  C   UNL     1       2.251   7.103  19.791  0.00  0.00    +0.000 A 
BRANCH  18  20
ATOM     20  C   UNL     1       3.150   5.394  18.183  0.00  0.00    +0.000 C 
ATOM     21  O   UNL     1       2.756   4.440  18.851  0.00  0.00    +0.000 OA
ATOM     22  N   UNL     1       4.095   5.258  17.169  0.00  0.00    +0.000 N 
ATOM     23  C   UNL     1       4.558   3.948  16.750  0.00  0.00    +0.000 C 
ATOM     24  C   UNL     1       6.011   4.175  16.369  0.00  0.00    +0.000 C 
ATOM     25  C   UNL     1       6.018   5.588  15.803  0.00  0.00    +0.000 C 
ATOM     26  C   UNL     1       4.899   6.304  16.547  0.00  0.00    +0.000 C 
ENDBRANCH  18  20
ENDBRANCH   1  14
TORSDOF 4
ENDMDL
MODEL 9
REMARK VINA RESULT:      -7.0      5.576     10.080
REMARK  Name = 
REMARK  4 active torsions:
REMARK  status: ('A' for Active; 'I' for Inactive)
REMARK    1  A    between atoms: N_3  and  C_4
REMARK    2  A    between atoms: C_4  and  C_5
REMARK    3  A    between atoms: C_9  and  C_10
REMARK    4  A    between atoms: N_18  and  C_19
REMARK                            x       y       z     vdW  Elec       q    Type
REMARK                         _______ _______ _______ _____ _____    ______ ____
ROOT
ATOM      1  C   UNL     1       1.626   9.135  18.799  0.00  0.00    +0.000 C 
ENDROOT
BRANCH   1   4
ATOM      2  O   UNL     1       1.492  11.889  19.654  0.00  0.00    +0.000 OA
ATOM      3  C   UNL     1       0.748  11.052  20.138  0.00  0.00    +0.000 C 
ATOM      4  N   UNL     1       0.737   9.722  19.794  0.00  0.00    +0.000 N 
ATOM      5  N   UNL     1      -0.210  11.306  21.088  0.00  0.00    +0.000 N 
ATOM      6  H   UNL     1      -0.148   9.253  19.915  0.00  0.00    +0.000 HD
ATOM      7  H   UNL     1      -0.526  10.504  21.609  0.00  0.00    +0.000 HD
BRANCH   5   8
ATOM      8  C   UNL     1      -0.579  12.631  21.584  0.00  0.00    +0.000 C 
ATOM      9  C   UNL     1      -1.537  13.310  20.597  0.00  0.00    +0.000 C 
ATOM     10  C   UNL     1      -2.909  12.639  20.578  0.00  0.00    +0.000 C 
ATOM     11  C   UNL     1      -3.568  12.682  21.949  0.00  0.00    +0.000 C 
ATOM     12  C   UNL     1      -2.664  12.189  23.079  0.00  0.00    +0.000 C 
ATOM     13  C   UNL     1      -1.201  12.638  22.996  0.00  0.00    +0.000 C 
ENDBRANCH   5   8
ENDBRANCH   1   4
BRANCH   1  14
ATOM     14  C   UNL     1       1.888   7.690  19.161  0.00  0.00    +0.000 A 
ATOM     15  C   UNL     1       1.609   7.142  20.418  0.00  0.00    +0.000 A 
ATOM     16  C   UNL     1       1.993   5.827  20.715  0.00  0.00    +0.000 A 
ATOM     17  C   UNL     1       2.695   5.064  19.774  0.00  0.00    +0.000 A 
ATOM     18  C   UNL     1       2.967   5.595  18.510  0.00  0.00    +0.000 A 
ATOM     19  C   UNL     1       2.496   6.872  18.201  0.00  0.00    +0.000 A 
BRANCH  18  20
ATOM     20  C   UNL     1       3.684   4.775  17.491  0.00  0.00    +0.000 C 
ATOM     21  O   UNL     1       3.136   3.750  17.087  0.00  0.00    +0.000 OA
ATOM     22  N   UNL     1       4.933   5.186  17.032  0.00  0.00    +0.000 N 
ATOM     23  C   UNL     1       5.589   4.497  15.937  0.00  0.00    +0.000 C 
ATOM     24  C   UNL     1       7.068   4.591  16.276  0.00  0.00    +0.000 C 
ATOM     25  C   UNL     1       7.192   5.938  16.973  0.00  0.00    +0.000 C 
ATOM     26  C   UNL     1       5.842   6.147  17.646  0.00  0.00    +0.000 C 
ENDBRANCH  18  20
ENDBRANCH   1  14
TORSDOF 4
ENDMDL
