MODEL 1
REMARK VINA RESULT:      -8.1      0.000      0.000
REMARK  Name = 
REMARK  4 active torsions:
REMARK  status: ('A' for Active; 'I' for Inactive)
REMARK    1  A    between atoms: N_11  and  C_12
REMARK    2  A    between atoms: C_12  and  C_13
REMARK    3  A    between atoms: C_16  and  S_17
REMARK    4  A    between atoms: N_18  and  C_19
REMARK                            x       y       z     vdW  Elec       q    Type
REMARK                         _______ _______ _______ _____ _____    ______ ____
ROOT
ATOM      1  C   UNL     1       4.292   6.179  17.878  0.00  0.00    +0.000 A 
ATOM      2  N   UNL     1       5.166   7.033  17.374  0.00  0.00    +0.000 NA
ATOM      3  N   UNL     1       5.773   6.461  16.300  0.00  0.00    +0.000 NA
ATOM      4  C   UNL     1       5.252   5.270  16.151  0.00  0.00    +0.000 A 
ATOM      5  N   UNL     1       4.193   5.086  17.023  0.00  0.00    +0.000 N 
ENDROOT
BRANCH   5   6
ATOM      6  C   UNL     1       3.304   3.930  17.044  0.00  0.00    +0.000 C 
ATOM      7  C   UNL     1       1.900   4.187  17.689  0.00  0.00    +0.000 C 
ATOM      8  C   UNL     1       1.699   3.018  18.663  0.00  0.00    +0.000 C 
ATOM      9  C   UNL     1       2.635   3.230  19.861  0.00  0.00    +0.000 C 
ATOM     10  C   UNL     1       4.011   2.893  19.282  0.00  0.00    +0.000 C 
ATOM     11  C   UNL     1       3.709   2.627  17.797  0.00  0.00    +0.000 C 
ATOM     12  C   UNL     1       2.372   1.883  17.906  0.00  0.00    +0.000 C 
ENDBRANCH   5   6
BRANCH   4  13
ATOM     13  S   UNL     1       5.898   4.123  15.031  0.00  0.00    +0.000 S 
ATOM     14  H   UNL     1       6.446   5.026  14.205  0.00  0.00    +0.000 HD
ENDBRANCH   4  13
BRANCH   1  15
ATOM     15  C   UNL     1       3.614   6.430  19.193  0.00  0.00    +0.000 C 
BRANCH  15  26
ATOM     16  O   UNL     1       1.631   7.062  21.087  0.00  0.00    +0.000 OA
ATOM     17  C   UNL     1       1.735   7.748  20.074  0.00  0.00    +0.000 A 
ATOM     18  C   UNL     1       0.967   8.996  19.980  0.00  0.00    +0.000 A 
ATOM     19  C   UNL     1       0.222   9.452  21.068  0.00  0.00    +0.000 A 
ATOM     20  C   UNL     1      -0.377  10.713  21.010  0.00  0.00    +0.000 A 
ATOM     21  C   UNL     1      -0.244  11.498  19.864  0.00  0.00    +0.000 A 
ATOM     22  C   UNL     1       0.471  11.022  18.761  0.00  0.00    +0.000 A 
ATOM     23  C   UNL     1       1.077   9.769  18.836  0.00  0.00    +0.000 A 
ATOM     24  C   UNL     1       1.885   9.243  17.742  0.00  0.00    +0.000 A 
ATOM     25  N   UNL     1       2.608   8.169  17.828  0.00  0.00    +0.000 NA
ATOM     26  N   UNL     1       2.596   7.465  19.022  0.00  0.00    +0.000 N 
ENDBRANCH  15  26
ENDBRANCH   1  15
TORSDOF 4
ENDMDL
MODEL 2
REMARK VINA RESULT:      -8.1      1.990      3.568
REMARK  Name = 
REMARK  4 active torsions:
REMARK  status: ('A' for Active; 'I' for Inactive)
REMARK    1  A    between atoms: N_11  and  C_12
REMARK    2  A    between atoms: C_12  and  C_13
REMARK    3  A    between atoms: C_16  and  S_17
REMARK    4  A    between atoms: N_18  and  C_19
REMARK                            x       y       z     vdW  Elec       q    Type
REMARK                         _______ _______ _______ _____ _____    ______ ____
ROOT
ATOM      1  C   UNL     1       2.737   5.293  18.162  0.00  0.00    +0.000 A 
ATOM      2  N   UNL     1       1.547   4.774  18.408  0.00  0.00    +0.000 NA
ATOM      3  N   UNL     1       1.675   3.429  18.561  0.00  0.00    +0.000 NA
ATOM      4  C   UNL     1       2.943   3.143  18.421  0.00  0.00    +0.000 A 
ATOM      5  N   UNL     1       3.698   4.299  18.322  0.00  0.00    +0.000 N 
ENDROOT
BRANCH   5   6
ATOM      6  C   UNL     1       5.154   4.360  18.285  0.00  0.00    +0.000 C 
ATOM      7  C   UNL     1       5.771   5.732  18.721  0.00  0.00    +0.000 C 
ATOM      8  C   UNL     1       6.794   6.064  17.625  0.00  0.00    +0.000 C 
ATOM      9  C   UNL     1       6.023   6.458  16.357  0.00  0.00    +0.000 C 
ATOM     10  C   UNL     1       5.485   5.117  15.856  0.00  0.00    +0.000 C 
ATOM     11  C   UNL     1       5.928   4.131  16.951  0.00  0.00    +0.000 C 
ATOM     12  C   UNL     1       7.321   4.681  17.283  0.00  0.00    +0.000 C 
ENDBRANCH   5   6
BRANCH   4  13
ATOM     13  S   UNL     1       3.509   1.513  18.325  0.00  0.00    +0.000 S 
ATOM     14  H   UNL     1       4.798   1.823  18.124  0.00  0.00    +0.000 HD
ENDBRANCH   4  13
BRANCH   1  15
ATOM     15  C   UNL     1       2.900   6.723  17.737  0.00  0.00    +0.000 C 
BRANCH  15  26
ATOM     16  O   UNL     1       2.050   9.373  17.320  0.00  0.00    +0.000 OA
ATOM     17  C   UNL     1       1.885   8.854  18.422  0.00  0.00    +0.000 A 
ATOM     18  C   UNL     1       1.064   9.553  19.419  0.00  0.00    +0.000 A 
ATOM     19  C   UNL     1       0.391  10.728  19.084  0.00  0.00    +0.000 A 
ATOM     20  C   UNL     1      -0.502  11.293  19.999  0.00  0.00    +0.000 A 
ATOM     21  C   UNL     1      -0.700  10.693  21.243  0.00  0.00    +0.000 A 
ATOM     22  C   UNL     1       0.005   9.537  21.590  0.00  0.00    +0.000 A 
ATOM     23  C   UNL     1       0.881   8.974  20.664  0.00  0.00    +0.000 A 
ATOM     24  C   UNL     1       1.601   7.737  20.944  0.00  0.00    +0.000 A 
ATOM     25  N   UNL     1       2.287   7.082  20.059  0.00  0.00    +0.000 NA
ATOM     26  N   UNL     1       2.363   7.600  18.775  0.00  0.00    +0.000 N 
ENDBRANCH  15  26
ENDBRANCH   1  15
TORSDOF 4
ENDMDL
MODEL 3
REMARK VINA RESULT:      -8.0      1.418      1.985
REMARK  Name = 
REMARK  4 active torsions:
REMARK  status: ('A' for Active; 'I' for Inactive)
REMARK    1  A    between atoms: N_11  and  C_12
REMARK    2  A    between atoms: C_12  and  C_13
REMARK    3  A    between atoms: C_16  and  S_17
REMARK    4  A    between atoms: N_18  and  C_19
REMARK                            x       y       z     vdW  Elec       q    Type
REMARK                         _______ _______ _______ _____ _____    ______ ____
ROOT
ATOM      1  C   UNL     1       3.855   6.222  17.545  0.00  0.00    +0.000 A 
ATOM      2  N   UNL     1       4.631   7.280  17.379  0.00  0.00    +0.000 NA
ATOM      3  N   UNL     1       5.931   6.888  17.445  0.00  0.00    +0.000 NA
ATOM      4  C   UNL     1       5.936   5.594  17.637  0.00  0.00    +0.000 A 
ATOM      5  N   UNL     1       4.652   5.082  17.552  0.00  0.00    +0.000 N 
ENDROOT
BRANCH   5   6
ATOM      6  C   UNL     1       4.300   3.667  17.588  0.00  0.00    +0.000 C 
ATOM      7  C   UNL     1       2.875   3.326  17.036  0.00  0.00    +0.000 C 
ATOM      8  C   UNL     1       2.255   2.411  18.101  0.00  0.00    +0.000 C 
ATOM      9  C   UNL     1       1.916   3.269  19.328  0.00  0.00    +0.000 C 
ATOM     10  C   UNL     1       3.291   3.541  19.943  0.00  0.00    +0.000 C 
ATOM     11  C   UNL     1       4.258   2.890  18.939  0.00  0.00    +0.000 C 
ATOM     12  C   UNL     1       3.472   1.627  18.564  0.00  0.00    +0.000 C 
ENDBRANCH   5   6
BRANCH   4  13
ATOM     13  S   UNL     1       7.387   4.728  17.997  0.00  0.00    +0.000 S 
ATOM     14  H   UNL     1       6.992   3.563  17.462  0.00  0.00    +0.000 HD
ENDBRANCH   4  13
BRANCH   1  15
ATOM     15  C   UNL     1       2.373   6.355  17.735  0.00  0.00    +0.000 C 
BRANCH  15  26
ATOM     16  O   UNL     1       1.856   9.084  17.279  0.00  0.00    +0.000 OA
ATOM     17  C   UNL     1       1.767   8.637  18.420  0.00  0.00    +0.000 A 
ATOM     18  C   UNL     1       1.190   9.486  19.471  0.00  0.00    +0.000 A 
ATOM     19  C   UNL     1       0.651  10.734  19.157  0.00  0.00    +0.000 A 
ATOM     20  C   UNL     1      -0.025  11.458  20.142  0.00  0.00    +0.000 A 
ATOM     21  C   UNL     1      -0.140  10.941  21.434  0.00  0.00    +0.000 A 
ATOM     22  C   UNL     1       0.435   9.708  21.755  0.00  0.00    +0.000 A 
ATOM     23  C   UNL     1       1.094   8.988  20.760  0.00  0.00    +0.000 A 
ATOM     24  C   UNL     1       1.663   7.670  21.017  0.00  0.00    +0.000 A 
ATOM     25  N   UNL     1       2.128   6.889  20.092  0.00  0.00    +0.000 NA
ATOM     26  N   UNL     1       2.106   7.340  18.781  0.00  0.00    +0.000 N 
ENDBRANCH  15  26
ENDBRANCH   1  15
TORSDOF 4
ENDMDL
MODEL 4
REMARK VINA RESULT:      -7.6      1.816      3.202
REMARK  Name = 
REMARK  4 active torsions:
REMARK  status: ('A' for Active; 'I' for Inactive)
REMARK    1  A    between atoms: N_11  and  C_12
REMARK    2  A    between atoms: C_12  and  C_13
REMARK    3  A    between atoms: C_16  and  S_17
REMARK    4  A    between atoms: N_18  and  C_19
REMARK                            x       y       z     vdW  Elec       q    Type
REMARK                         _______ _______ _______ _____ _____    ______ ____
ROOT
ATOM      1  C   UNL     1       3.068   5.601  17.959  0.00  0.00    +0.000 A 
ATOM      2  N   UNL     1       1.818   5.183  17.851  0.00  0.00    +0.000 NA
ATOM      3  N   UNL     1       1.813   3.827  17.758  0.00  0.00    +0.000 NA
ATOM      4  C   UNL     1       3.058   3.430  17.824  0.00  0.00    +0.000 A 
ATOM      5  N   UNL     1       3.896   4.494  18.111  0.00  0.00    +0.000 N 
ENDROOT
BRANCH   5   6
ATOM      6  C   UNL     1       5.326   4.396  18.382  0.00  0.00    +0.000 C 
ATOM      7  C   UNL     1       5.922   5.577  19.221  0.00  0.00    +0.000 C 
ATOM      8  C   UNL     1       7.181   6.002  18.453  0.00  0.00    +0.000 C 
ATOM      9  C   UNL     1       6.738   6.723  17.173  0.00  0.00    +0.000 C 
ATOM     10  C   UNL     1       6.234   5.577  16.293  0.00  0.00    +0.000 C 
ATOM     11  C   UNL     1       6.357   4.351  17.214  0.00  0.00    +0.000 C 
ATOM     12  C   UNL     1       7.677   4.663  17.931  0.00  0.00    +0.000 C 
ENDBRANCH   5   6
BRANCH   4  13
ATOM     13  S   UNL     1       3.512   1.790  17.525  0.00  0.00    +0.000 S 
ATOM     14  H   UNL     1       4.483   2.071  16.643  0.00  0.00    +0.000 HD
ENDBRANCH   4  13
BRANCH   1  15
ATOM     15  C   UNL     1       3.422   7.056  17.867  0.00  0.00    +0.000 C 
BRANCH  15  26
ATOM     16  O   UNL     1       2.430   6.838  20.491  0.00  0.00    +0.000 OA
ATOM     17  C   UNL     1       1.998   7.722  19.756  0.00  0.00    +0.000 A 
ATOM     18  C   UNL     1       1.138   8.765  20.331  0.00  0.00    +0.000 A 
ATOM     19  C   UNL     1       0.908   8.814  21.706  0.00  0.00    +0.000 A 
ATOM     20  C   UNL     1       0.212   9.898  22.248  0.00  0.00    +0.000 A 
ATOM     21  C   UNL     1      -0.263  10.911  21.413  0.00  0.00    +0.000 A 
ATOM     22  C   UNL     1      -0.065  10.839  20.031  0.00  0.00    +0.000 A 
ATOM     23  C   UNL     1       0.644   9.760  19.504  0.00  0.00    +0.000 A 
ATOM     24  C   UNL     1       0.935   9.659  18.079  0.00  0.00    +0.000 A 
ATOM     25  N   UNL     1       1.733   8.775  17.564  0.00  0.00    +0.000 NA
ATOM     26  N   UNL     1       2.329   7.856  18.415  0.00  0.00    +0.000 N 
ENDBRANCH  15  26
ENDBRANCH   1  15
TORSDOF 4
ENDMDL
MODEL 5
REMARK VINA RESULT:      -7.6      1.788      3.183
REMARK  Name = 
REMARK  4 active torsions:
REMARK  status: ('A' for Active; 'I' for Inactive)
REMARK    1  A    between atoms: N_11  and  C_12
REMARK    2  A    between atoms: C_12  and  C_13
REMARK    3  A    between atoms: C_16  and  S_17
REMARK    4  A    between atoms: N_18  and  C_19
REMARK                            x       y       z     vdW  Elec       q    Type
REMARK                         _______ _______ _______ _____ _____    ______ ____
ROOT
ATOM      1  C   UNL     1       2.857   5.502  19.420  0.00  0.00    +0.000 A 
ATOM      2  N   UNL     1       1.636   5.101  19.730  0.00  0.00    +0.000 NA
ATOM      3  N   UNL     1       1.447   3.845  19.244  0.00  0.00    +0.000 NA
ATOM      4  C   UNL     1       2.559   3.487  18.655  0.00  0.00    +0.000 A 
ATOM      5  N   UNL     1       3.550   4.430  18.866  0.00  0.00    +0.000 N 
ENDROOT
BRANCH   5   6
ATOM      6  C   UNL     1       4.946   4.297  18.465  0.00  0.00    +0.000 C 
ATOM      7  C   UNL     1       5.933   5.295  19.161  0.00  0.00    +0.000 C 
ATOM      8  C   UNL     1       6.769   5.878  18.013  0.00  0.00    +0.000 C 
ATOM      9  C   UNL     1       5.876   6.833  17.210  0.00  0.00    +0.000 C 
ATOM     10  C   UNL     1       4.958   5.878  16.444  0.00  0.00    +0.000 C 
ATOM     11  C   UNL     1       5.370   4.495  16.978  0.00  0.00    +0.000 C 
ATOM     12  C   UNL     1       6.889   4.674  17.092  0.00  0.00    +0.000 C 
ENDBRANCH   5   6
BRANCH   4  13
ATOM     13  S   UNL     1       2.672   2.042  17.713  0.00  0.00    +0.000 S 
ATOM     14  H   UNL     1       3.984   2.148  17.451  0.00  0.00    +0.000 HD
ENDBRANCH   4  13
BRANCH   1  15
ATOM     15  C   UNL     1       3.296   6.921  19.629  0.00  0.00    +0.000 C 
BRANCH  15  26
ATOM     16  O   UNL     1       1.498   7.912  21.554  0.00  0.00    +0.000 OA
ATOM     17  C   UNL     1       1.424   8.317  20.397  0.00  0.00    +0.000 A 
ATOM     18  C   UNL     1       0.546   9.456  20.099  0.00  0.00    +0.000 A 
ATOM     19  C   UNL     1      -0.106  10.137  21.128  0.00  0.00    +0.000 A 
ATOM     20  C   UNL     1      -0.814  11.305  20.839  0.00  0.00    +0.000 A 
ATOM     21  C   UNL     1      -0.883  11.774  19.526  0.00  0.00    +0.000 A 
ATOM     22  C   UNL     1      -0.262  11.068  18.491  0.00  0.00    +0.000 A 
ATOM     23  C   UNL     1       0.455   9.912  18.794  0.00  0.00    +0.000 A 
ATOM     24  C   UNL     1       1.174   9.166  17.768  0.00  0.00    +0.000 A 
ATOM     25  N   UNL     1       1.992   8.191  18.021  0.00  0.00    +0.000 NA
ATOM     26  N   UNL     1       2.179   7.820  19.344  0.00  0.00    +0.000 N 
ENDBRANCH  15  26
ENDBRANCH   1  15
TORSDOF 4
ENDMDL
MODEL 6
REMARK VINA RESULT:      -7.5      1.645      2.471
REMARK  Name = 
REMARK  4 active torsions:
REMARK  status: ('A' for Active; 'I' for Inactive)
REMARK    1  A    between atoms: N_11  and  C_12
REMARK    2  A    between atoms: C_12  and  C_13
REMARK    3  A    between atoms: C_16  and  S_17
REMARK    4  A    between atoms: N_18  and  C_19
REMARK                            x       y       z     vdW  Elec       q    Type
REMARK                         _______ _______ _______ _____ _____    ______ ____
ROOT
ATOM      1  C   UNL     1       3.627   6.528  17.830  0.00  0.00    +0.000 A 
ATOM      2  N   UNL     1       4.493   7.188  17.081  0.00  0.00    +0.000 NA
ATOM      3  N   UNL     1       5.752   6.808  17.426  0.00  0.00    +0.000 NA
ATOM      4  C   UNL     1       5.641   5.911  18.371  0.00  0.00    +0.000 A 
ATOM      5  N   UNL     1       4.314   5.568  18.567  0.00  0.00    +0.000 N 
ENDROOT
BRANCH   5   6
ATOM      6  C   UNL     1       3.832   4.511  19.448  0.00  0.00    +0.000 C 
ATOM      7  C   UNL     1       4.653   3.178  19.392  0.00  0.00    +0.000 C 
ATOM      8  C   UNL     1       3.594   2.076  19.251  0.00  0.00    +0.000 C 
ATOM      9  C   UNL     1       3.019   2.147  17.829  0.00  0.00    +0.000 C 
ATOM     10  C   UNL     1       2.134   3.394  17.882  0.00  0.00    +0.000 C 
ATOM     11  C   UNL     1       2.388   3.943  19.297  0.00  0.00    +0.000 C 
ATOM     12  C   UNL     1       2.465   2.638  20.100  0.00  0.00    +0.000 C 
ENDBRANCH   5   6
BRANCH   4  13
ATOM     13  S   UNL     1       7.013   5.326  19.245  0.00  0.00    +0.000 S 
ATOM     14  H   UNL     1       6.665   4.031  19.202  0.00  0.00    +0.000 HD
ENDBRANCH   4  13
BRANCH   1  15
ATOM     15  C   UNL     1       2.167   6.878  17.838  0.00  0.00    +0.000 C 
BRANCH  15  26
ATOM     16  O   UNL     1       1.847   9.640  17.405  0.00  0.00    +0.000 OA
ATOM     17  C   UNL     1       1.675   9.184  18.532  0.00  0.00    +0.000 A 
ATOM     18  C   UNL     1       1.103  10.053  19.569  0.00  0.00    +0.000 A 
ATOM     19  C   UNL     1       0.659  11.337  19.251  0.00  0.00    +0.000 A 
ATOM     20  C   UNL     1      -0.017  12.089  20.215  0.00  0.00    +0.000 A 
ATOM     21  C   UNL     1      -0.227  11.563  21.490  0.00  0.00    +0.000 A 
ATOM     22  C   UNL     1       0.253  10.292  21.817  0.00  0.00    +0.000 A 
ATOM     23  C   UNL     1       0.912   9.544  20.843  0.00  0.00    +0.000 A 
ATOM     24  C   UNL     1       1.383   8.189  21.104  0.00  0.00    +0.000 A 
ATOM     25  N   UNL     1       1.842   7.393  20.190  0.00  0.00    +0.000 NA
ATOM     26  N   UNL     1       1.913   7.863  18.887  0.00  0.00    +0.000 N 
ENDBRANCH  15  26
ENDBRANCH   1  15
TORSDOF 4
ENDMDL
MODEL 7
REMARK VINA RESULT:      -7.5      1.719      2.637
REMARK  Name = 
REMARK  4 active torsions:
REMARK  status: ('A' for Active; 'I' for Inactive)
REMARK    1  A    between atoms: N_11  and  C_12
REMARK    2  A    between atoms: C_12  and  C_13
REMARK    3  A    between atoms: C_16  and  S_17
REMARK    4  A    between atoms: N_18  and  C_19
REMARK                            x       y       z     vdW  Elec       q    Type
REMARK                         _______ _______ _______ _____ _____    ______ ____
ROOT
ATOM      1  C   UNL     1       3.017   7.162  17.870  0.00  0.00    +0.000 A 
ATOM      2  N   UNL     1       4.188   7.581  17.421  0.00  0.00    +0.000 NA
ATOM      3  N   UNL     1       5.142   6.675  17.765  0.00  0.00    +0.000 NA
ATOM      4  C   UNL     1       4.541   5.706  18.407  0.00  0.00    +0.000 A 
ATOM      5  N   UNL     1       3.168   5.874  18.372  0.00  0.00    +0.000 N 
ENDROOT
BRANCH   5   6
ATOM      6  C   UNL     1       2.185   4.920  18.874  0.00  0.00    +0.000 C 
ATOM      7  C   UNL     1       2.725   3.915  19.946  0.00  0.00    +0.000 C 
ATOM      8  C   UNL     1       2.239   2.539  19.470  0.00  0.00    +0.000 C 
ATOM      9  C   UNL     1       3.060   2.146  18.234  0.00  0.00    +0.000 C 
ATOM     10  C   UNL     1       2.485   3.051  17.142  0.00  0.00    +0.000 C 
ATOM     11  C   UNL     1       1.475   3.923  17.907  0.00  0.00    +0.000 C 
ATOM     12  C   UNL     1       0.885   2.892  18.877  0.00  0.00    +0.000 C 
ENDBRANCH   5   6
BRANCH   4  13
ATOM     13  S   UNL     1       5.424   4.456  19.211  0.00  0.00    +0.000 S 
ATOM     14  H   UNL     1       6.631   4.818  18.751  0.00  0.00    +0.000 HD
ENDBRANCH   4  13
BRANCH   1  15
ATOM     15  C   UNL     1       1.802   8.041  17.836  0.00  0.00    +0.000 C 
BRANCH  15  26
ATOM     16  O   UNL     1       0.692  10.569  18.383  0.00  0.00    +0.000 OA
ATOM     17  C   UNL     1       0.906   9.792  19.310  0.00  0.00    +0.000 A 
ATOM     18  C   UNL     1       0.384  10.119  20.644  0.00  0.00    +0.000 A 
ATOM     19  C   UNL     1      -0.435  11.233  20.830  0.00  0.00    +0.000 A 
ATOM     20  C   UNL     1      -1.041  11.440  22.072  0.00  0.00    +0.000 A 
ATOM     21  C   UNL     1      -0.811  10.547  23.120  0.00  0.00    +0.000 A 
ATOM     22  C   UNL     1       0.041   9.453  22.941  0.00  0.00    +0.000 A 
ATOM     23  C   UNL     1       0.629   9.248  21.694  0.00  0.00    +0.000 A 
ATOM     24  C   UNL     1       1.478   8.094  21.427  0.00  0.00    +0.000 A 
ATOM     25  N   UNL     1       1.904   7.765  20.247  0.00  0.00    +0.000 NA
ATOM     26  N   UNL     1       1.550   8.570  19.175  0.00  0.00    +0.000 N 
ENDBRANCH  15  26
ENDBRANCH   1  15
TORSDOF 4
ENDMDL
MODEL 8
REMARK VINA RESULT:      -7.1      1.929      2.593
REMARK  Name = 
REMARK  4 active torsions:
REMARK  status: ('A' for Active; 'I' for Inactive)
REMARK    1  A    between atoms: N_11  and  C_12
REMARK    2  A    between atoms: C_12  and  C_13
REMARK    3  A    between atoms: C_16  and  S_17
REMARK    4  A    between atoms: N_18  and  C_19
REMARK                            x       y       z     vdW  Elec       q    Type
REMARK                         _______ _______ _______ _____ _____    ______ ____
ROOT
ATOM      1  C   UNL     1       4.210   5.188  18.210  0.00  0.00    +0.000 A 
ATOM      2  N   UNL     1       5.455   5.437  18.576  0.00  0.00    +0.000 NA
ATOM      3  N   UNL     1       5.922   4.382  19.296  0.00  0.00    +0.000 NA
ATOM      4  C   UNL     1       4.962   3.495  19.349  0.00  0.00    +0.000 A 
ATOM      5  N   UNL     1       3.900   3.875  18.546  0.00  0.00    +0.000 N 
ENDROOT
BRANCH   5   6
ATOM      6  C   UNL     1       2.718   3.067  18.266  0.00  0.00    +0.000 C 
ATOM      7  C   UNL     1       1.436   3.881  17.884  0.00  0.00    +0.000 C 
ATOM      8  C   UNL     1       0.323   3.287  18.758  0.00  0.00    +0.000 C 
ATOM      9  C   UNL     1       0.560   3.741  20.205  0.00  0.00    +0.000 C 
ATOM     10  C   UNL     1       1.756   2.890  20.638  0.00  0.00    +0.000 C 
ATOM     11  C   UNL     1       2.122   2.124  19.355  0.00  0.00    +0.000 C 
ATOM     12  C   UNL     1       0.726   1.821  18.795  0.00  0.00    +0.000 C 
ENDBRANCH   5   6
BRANCH   4  13
ATOM     13  S   UNL     1       5.065   2.094  20.356  0.00  0.00    +0.000 S 
ATOM     14  H   UNL     1       6.199   2.450  20.977  0.00  0.00    +0.000 HD
ENDBRANCH   4  13
BRANCH   1  15
ATOM     15  C   UNL     1       3.348   6.246  17.586  0.00  0.00    +0.000 C 
BRANCH  15  26
ATOM     16  O   UNL     1       2.474   8.899  17.240  0.00  0.00    +0.000 OA
ATOM     17  C   UNL     1       2.280   8.337  18.315  0.00  0.00    +0.000 A 
ATOM     18  C   UNL     1       1.416   8.986  19.309  0.00  0.00    +0.000 A 
ATOM     19  C   UNL     1       0.738  10.165  18.995  0.00  0.00    +0.000 A 
ATOM     20  C   UNL     1      -0.193  10.683  19.899  0.00  0.00    +0.000 A 
ATOM     21  C   UNL     1      -0.425  10.034  21.113  0.00  0.00    +0.000 A 
ATOM     22  C   UNL     1       0.285   8.875  21.441  0.00  0.00    +0.000 A 
ATOM     23  C   UNL     1       1.200   8.359  20.525  0.00  0.00    +0.000 A 
ATOM     24  C   UNL     1       1.927   7.121  20.782  0.00  0.00    +0.000 A 
ATOM     25  N   UNL     1       2.652   6.510  19.898  0.00  0.00    +0.000 NA
ATOM     26  N   UNL     1       2.764   7.076  18.637  0.00  0.00    +0.000 N 
ENDBRANCH  15  26
ENDBRANCH   1  15
TORSDOF 4
ENDMDL
MODEL 9
REMARK VINA RESULT:      -6.9      2.139      3.216
REMARK  Name = 
REMARK  4 active torsions:
REMARK  status: ('A' for Active; 'I' for Inactive)
REMARK    1  A    between atoms: N_11  and  C_12
REMARK    2  A    between atoms: C_12  and  C_13
REMARK    3  A    between atoms: C_16  and  S_17
REMARK    4  A    between atoms: N_18  and  C_19
REMARK                            x       y       z     vdW  Elec       q    Type
REMARK                         _______ _______ _______ _____ _____    ______ ____
ROOT
ATOM      1  C   UNL     1       2.350   6.165  19.801  0.00  0.00    +0.000 A 
ATOM      2  N   UNL     1       1.724   5.690  20.864  0.00  0.00    +0.000 NA
ATOM      3  N   UNL     1       1.278   4.436  20.588  0.00  0.00    +0.000 NA
ATOM      4  C   UNL     1       1.648   4.153  19.366  0.00  0.00    +0.000 A 
ATOM      5  N   UNL     1       2.470   5.146  18.862  0.00  0.00    +0.000 N 
ENDROOT
BRANCH   5   6
ATOM      6  C   UNL     1       3.167   5.100  17.581  0.00  0.00    +0.000 C 
ATOM      7  C   UNL     1       3.763   3.703  17.202  0.00  0.00    +0.000 C 
ATOM      8  C   UNL     1       5.204   4.000  16.764  0.00  0.00    +0.000 C 
ATOM      9  C   UNL     1       6.018   4.356  18.016  0.00  0.00    +0.000 C 
ATOM     10  C   UNL     1       5.521   5.763  18.357  0.00  0.00    +0.000 C 
ATOM     11  C   UNL     1       4.412   6.002  17.319  0.00  0.00    +0.000 C 
ATOM     12  C   UNL     1       5.034   5.346  16.079  0.00  0.00    +0.000 C 
ENDBRANCH   5   6
BRANCH   4  13
ATOM     13  S   UNL     1       1.093   2.737  18.546  0.00  0.00    +0.000 S 
ATOM     14  H   UNL     1       2.303   2.331  18.132  0.00  0.00    +0.000 HD
ENDBRANCH   4  13
BRANCH   1  15
ATOM     15  C   UNL     1       2.772   7.603  19.713  0.00  0.00    +0.000 C 
BRANCH  15  26
ATOM     16  O   UNL     1       1.129   8.788  21.667  0.00  0.00    +0.000 OA
ATOM     17  C   UNL     1       0.933   9.042  20.481  0.00  0.00    +0.000 A 
ATOM     18  C   UNL     1      -0.008  10.115  20.131  0.00  0.00    +0.000 A 
ATOM     19  C   UNL     1      -0.583  10.905  21.127  0.00  0.00    +0.000 A 
ATOM     20  C   UNL     1      -1.355  12.011  20.766  0.00  0.00    +0.000 A 
ATOM     21  C   UNL     1      -1.562  12.309  19.418  0.00  0.00    +0.000 A 
ATOM     22  C   UNL     1      -1.017  11.493  18.423  0.00  0.00    +0.000 A 
ATOM     23  C   UNL     1      -0.235  10.400  18.795  0.00  0.00    +0.000 A 
ATOM     24  C   UNL     1       0.410   9.546  17.805  0.00  0.00    +0.000 A 
ATOM     25  N   UNL     1       1.281   8.630  18.095  0.00  0.00    +0.000 NA
ATOM     26  N   UNL     1       1.604   8.433  19.429  0.00  0.00    +0.000 N 
ENDBRANCH  15  26
ENDBRANCH   1  15
TORSDOF 4
ENDMDL
