MODEL 1
REMARK VINA RESULT:      -7.3      0.000      0.000
REMARK  Name = 
REMARK  4 active torsions:
REMARK  status: ('A' for Active; 'I' for Inactive)
REMARK    1  A    between atoms: C_1  and  C_2
REMARK    2  A    between atoms: C_2  and  N_3
REMARK    3  A    between atoms: C_10  and  O_11
REMARK    4  A    between atoms: C_13  and  O_14
REMARK                            x       y       z     vdW  Elec       q    Type
REMARK                         _______ _______ _______ _____ _____    ______ ____
ROOT
ATOM      1  N   UNL     1       6.953   4.519  17.502  0.00  0.00    +0.000 NA
ATOM      2  C   UNL     1       7.257   5.092  16.183  0.00  0.00    +0.000 C 
ATOM      3  C   UNL     1       6.512   4.379  15.061  0.00  0.00    +0.000 C 
ATOM      4  C   UNL     1       5.013   4.396  15.313  0.00  0.00    +0.000 C 
ATOM      5  C   UNL     1       4.696   3.812  16.697  0.00  0.00    +0.000 C 
ATOM      6  C   UNL     1       3.182   3.915  16.968  0.00  0.00    +0.000 C 
ATOM      7  C   UNL     1       2.770   3.569  18.377  0.00  0.00    +0.000 A 
ATOM      8  C   UNL     1       1.433   3.296  18.715  0.00  0.00    +0.000 A 
ATOM      9  C   UNL     1       1.057   2.993  20.025  0.00  0.00    +0.000 A 
ATOM     10  C   UNL     1       2.018   2.972  21.021  0.00  0.00    +0.000 A 
ATOM     11  C   UNL     1       3.344   3.258  20.724  0.00  0.00    +0.000 A 
ATOM     12  C   UNL     1       3.726   3.573  19.408  0.00  0.00    +0.000 A 
ATOM     13  C   UNL     1       5.184   3.861  19.156  0.00  0.00    +0.000 C 
ATOM     14  C   UNL     1       5.497   4.533  17.801  0.00  0.00    +0.000 C 
ENDROOT
BRANCH   1  16
ATOM     15  C   UNL     1       7.851   6.655  18.551  0.00  0.00    +0.000 C 
ATOM     16  C   UNL     1       7.795   5.129  18.549  0.00  0.00    +0.000 C 
ENDBRANCH   1  16
BRANCH   8  17
ATOM     17  O   UNL     1       0.414   3.312  17.804  0.00  0.00    +0.000 OA
ATOM     18  H   UNL     1       0.167   4.229  17.606  0.00  0.00    +0.000 HD
ENDBRANCH   8  17
BRANCH  10  19
ATOM     19  O   UNL     1       1.707   2.683  22.317  0.00  0.00    +0.000 OA
ATOM     20  H   UNL     1       2.531   2.672  22.832  0.00  0.00    +0.000 HD
ENDBRANCH  10  19
TORSDOF 3
ENDMDL
MODEL 2
REMARK VINA RESULT:      -7.1      1.327      3.019
REMARK  Name = 
REMARK  4 active torsions:
REMARK  status: ('A' for Active; 'I' for Inactive)
REMARK    1  A    between atoms: C_1  and  C_2
REMARK    2  A    between atoms: C_2  and  N_3
REMARK    3  A    between atoms: C_10  and  O_11
REMARK    4  A    between atoms: C_13  and  O_14
REMARK                            x       y       z     vdW  Elec       q    Type
REMARK                         _______ _______ _______ _____ _____    ______ ____
ROOT
ATOM      1  N   UNL     1       6.106   4.778  15.907  0.00  0.00    +0.000 NA
ATOM      2  C   UNL     1       7.405   5.419  16.160  0.00  0.00    +0.000 C 
ATOM      3  C   UNL     1       7.265   6.694  16.983  0.00  0.00    +0.000 C 
ATOM      4  C   UNL     1       6.548   6.414  18.294  0.00  0.00    +0.000 C 
ATOM      5  C   UNL     1       5.199   5.731  18.031  0.00  0.00    +0.000 C 
ATOM      6  C   UNL     1       4.525   5.380  19.372  0.00  0.00    +0.000 C 
ATOM      7  C   UNL     1       3.294   4.516  19.252  0.00  0.00    +0.000 A 
ATOM      8  C   UNL     1       2.383   4.370  20.312  0.00  0.00    +0.000 A 
ATOM      9  C   UNL     1       1.254   3.556  20.199  0.00  0.00    +0.000 A 
ATOM     10  C   UNL     1       1.029   2.865  19.020  0.00  0.00    +0.000 A 
ATOM     11  C   UNL     1       1.921   2.972  17.962  0.00  0.00    +0.000 A 
ATOM     12  C   UNL     1       3.064   3.783  18.074  0.00  0.00    +0.000 A 
ATOM     13  C   UNL     1       3.983   3.862  16.881  0.00  0.00    +0.000 C 
ATOM     14  C   UNL     1       5.376   4.466  17.163  0.00  0.00    +0.000 C 
ENDROOT
BRANCH   1  16
ATOM     15  C   UNL     1       6.225   3.965  13.500  0.00  0.00    +0.000 C 
ATOM     16  C   UNL     1       6.255   3.632  14.990  0.00  0.00    +0.000 C 
ENDBRANCH   1  16
BRANCH   8  17
ATOM     17  O   UNL     1       2.533   4.996  21.518  0.00  0.00    +0.000 OA
ATOM     18  H   UNL     1       2.019   5.818  21.526  0.00  0.00    +0.000 HD
ENDBRANCH   8  17
BRANCH  10  19
ATOM     19  O   UNL     1      -0.056   2.055  18.855  0.00  0.00    +0.000 OA
ATOM     20  H   UNL     1       0.107   1.482  18.088  0.00  0.00    +0.000 HD
ENDBRANCH  10  19
TORSDOF 3
ENDMDL
MODEL 3
REMARK VINA RESULT:      -7.1      3.260      5.725
REMARK  Name = 
REMARK  4 active torsions:
REMARK  status: ('A' for Active; 'I' for Inactive)
REMARK    1  A    between atoms: C_1  and  C_2
REMARK    2  A    between atoms: C_2  and  N_3
REMARK    3  A    between atoms: C_10  and  O_11
REMARK    4  A    between atoms: C_13  and  O_14
REMARK                            x       y       z     vdW  Elec       q    Type
REMARK                         _______ _______ _______ _____ _____    ______ ____
ROOT
ATOM      1  N   UNL     1       1.689   4.823  19.821  0.00  0.00    +0.000 NA
ATOM      2  C   UNL     1       0.874   3.641  20.137  0.00  0.00    +0.000 C 
ATOM      3  C   UNL     1       0.539   2.825  18.894  0.00  0.00    +0.000 C 
ATOM      4  C   UNL     1       1.807   2.414  18.161  0.00  0.00    +0.000 C 
ATOM      5  C   UNL     1       2.666   3.646  17.845  0.00  0.00    +0.000 C 
ATOM      6  C   UNL     1       3.983   3.203  17.179  0.00  0.00    +0.000 C 
ATOM      7  C   UNL     1       5.004   4.300  17.011  0.00  0.00    +0.000 A 
ATOM      8  C   UNL     1       6.108   4.163  16.151  0.00  0.00    +0.000 A 
ATOM      9  C   UNL     1       7.058   5.176  16.013  0.00  0.00    +0.000 A 
ATOM     10  C   UNL     1       6.922   6.341  16.749  0.00  0.00    +0.000 A 
ATOM     11  C   UNL     1       5.854   6.500  17.622  0.00  0.00    +0.000 A 
ATOM     12  C   UNL     1       4.900   5.478  17.771  0.00  0.00    +0.000 A 
ATOM     13  C   UNL     1       3.761   5.723  18.729  0.00  0.00    +0.000 C 
ATOM     14  C   UNL     1       2.951   4.467  19.121  0.00  0.00    +0.000 C 
ENDROOT
BRANCH   1  16
ATOM     15  C   UNL     1       1.373   7.107  20.894  0.00  0.00    +0.000 C 
ATOM     16  C   UNL     1       1.873   5.670  21.015  0.00  0.00    +0.000 C 
ENDBRANCH   1  16
BRANCH   8  17
ATOM     17  O   UNL     1       6.336   3.043  15.401  0.00  0.00    +0.000 OA
ATOM     18  H   UNL     1       7.240   3.061  15.052  0.00  0.00    +0.000 HD
ENDBRANCH   8  17
BRANCH  10  19
ATOM     19  O   UNL     1       7.820   7.363  16.654  0.00  0.00    +0.000 OA
ATOM     20  H   UNL     1       8.713   6.992  16.738  0.00  0.00    +0.000 HD
ENDBRANCH  10  19
TORSDOF 3
ENDMDL
MODEL 4
REMARK VINA RESULT:      -7.1      1.080      3.131
REMARK  Name = 
REMARK  4 active torsions:
REMARK  status: ('A' for Active; 'I' for Inactive)
REMARK    1  A    between atoms: C_1  and  C_2
REMARK    2  A    between atoms: C_2  and  N_3
REMARK    3  A    between atoms: C_10  and  O_11
REMARK    4  A    between atoms: C_13  and  O_14
REMARK                            x       y       z     vdW  Elec       q    Type
REMARK                         _______ _______ _______ _____ _____    ______ ____
ROOT
ATOM      1  N   UNL     1       5.941   5.820  16.458  0.00  0.00    +0.000 NA
ATOM      2  C   UNL     1       7.347   6.122  16.760  0.00  0.00    +0.000 C 
ATOM      3  C   UNL     1       7.538   6.592  18.197  0.00  0.00    +0.000 C 
ATOM      4  C   UNL     1       6.995   5.563  19.177  0.00  0.00    +0.000 C 
ATOM      5  C   UNL     1       5.531   5.235  18.852  0.00  0.00    +0.000 C 
ATOM      6  C   UNL     1       5.025   4.132  19.801  0.00  0.00    +0.000 C 
ATOM      7  C   UNL     1       3.670   3.570  19.448  0.00  0.00    +0.000 A 
ATOM      8  C   UNL     1       2.920   2.808  20.362  0.00  0.00    +0.000 A 
ATOM      9  C   UNL     1       1.674   2.278  20.022  0.00  0.00    +0.000 A 
ATOM     10  C   UNL     1       1.165   2.496  18.753  0.00  0.00    +0.000 A 
ATOM     11  C   UNL     1       1.889   3.227  17.822  0.00  0.00    +0.000 A 
ATOM     12  C   UNL     1       3.149   3.754  18.156  0.00  0.00    +0.000 A 
ATOM     13  C   UNL     1       3.875   4.548  17.099  0.00  0.00    +0.000 C 
ATOM     14  C   UNL     1       5.372   4.801  17.379  0.00  0.00    +0.000 C 
ENDROOT
BRANCH   1  16
ATOM     15  C   UNL     1       6.574   4.328  14.497  0.00  0.00    +0.000 C 
ATOM     16  C   UNL     1       5.764   5.510  15.026  0.00  0.00    +0.000 C 
ENDBRANCH   1  16
BRANCH   8  17
ATOM     17  O   UNL     1       3.350   2.525  21.628  0.00  0.00    +0.000 OA
ATOM     18  H   UNL     1       2.796   1.829  22.014  0.00  0.00    +0.000 HD
ENDBRANCH   8  17
BRANCH  10  19
ATOM     19  O   UNL     1      -0.047   2.002  18.368  0.00  0.00    +0.000 OA
ATOM     20  H   UNL     1      -0.372   2.539  17.626  0.00  0.00    +0.000 HD
ENDBRANCH  10  19
TORSDOF 3
ENDMDL
MODEL 5
REMARK VINA RESULT:      -6.8      4.196      5.775
REMARK  Name = 
REMARK  4 active torsions:
REMARK  status: ('A' for Active; 'I' for Inactive)
REMARK    1  A    between atoms: C_1  and  C_2
REMARK    2  A    between atoms: C_2  and  N_3
REMARK    3  A    between atoms: C_10  and  O_11
REMARK    4  A    between atoms: C_13  and  O_14
REMARK                            x       y       z     vdW  Elec       q    Type
REMARK                         _______ _______ _______ _____ _____    ______ ____
ROOT
ATOM      1  N   UNL     1       3.330   3.706  18.618  0.00  0.00    +0.000 NA
ATOM      2  C   UNL     1       2.935   2.502  19.364  0.00  0.00    +0.000 C 
ATOM      3  C   UNL     1       2.957   2.728  20.871  0.00  0.00    +0.000 C 
ATOM      4  C   UNL     1       2.070   3.903  21.253  0.00  0.00    +0.000 C 
ATOM      5  C   UNL     1       2.472   5.156  20.463  0.00  0.00    +0.000 C 
ATOM      6  C   UNL     1       1.511   6.312  20.801  0.00  0.00    +0.000 C 
ATOM      7  C   UNL     1       1.667   7.536  19.933  0.00  0.00    +0.000 A 
ATOM      8  C   UNL     1       1.117   8.779  20.294  0.00  0.00    +0.000 A 
ATOM      9  C   UNL     1       1.253   9.902  19.477  0.00  0.00    +0.000 A 
ATOM     10  C   UNL     1       1.933   9.794  18.277  0.00  0.00    +0.000 A 
ATOM     11  C   UNL     1       2.471   8.576  17.883  0.00  0.00    +0.000 A 
ATOM     12  C   UNL     1       2.329   7.439  18.697  0.00  0.00    +0.000 A 
ATOM     13  C   UNL     1       2.948   6.152  18.211  0.00  0.00    +0.000 C 
ATOM     14  C   UNL     1       2.476   4.877  18.945  0.00  0.00    +0.000 C 
ENDROOT
BRANCH   1  16
ATOM     15  C   UNL     1       4.806   3.693  16.547  0.00  0.00    +0.000 C 
ATOM     16  C   UNL     1       3.442   3.418  17.176  0.00  0.00    +0.000 C 
ENDBRANCH   1  16
BRANCH   8  17
ATOM     17  O   UNL     1       0.412   8.976  21.449  0.00  0.00    +0.000 OA
ATOM     18  H   UNL     1       0.299   8.132  21.911  0.00  0.00    +0.000 HD
ENDBRANCH   8  17
BRANCH  10  19
ATOM     19  O   UNL     1       2.096  10.859  17.441  0.00  0.00    +0.000 OA
ATOM     20  H   UNL     1       2.583  10.557  16.656  0.00  0.00    +0.000 HD
ENDBRANCH  10  19
TORSDOF 3
ENDMDL
MODEL 6
REMARK VINA RESULT:      -6.6      4.447      5.423
REMARK  Name = 
REMARK  4 active torsions:
REMARK  status: ('A' for Active; 'I' for Inactive)
REMARK    1  A    between atoms: C_1  and  C_2
REMARK    2  A    between atoms: C_2  and  N_3
REMARK    3  A    between atoms: C_10  and  O_11
REMARK    4  A    between atoms: C_13  and  O_14
REMARK                            x       y       z     vdW  Elec       q    Type
REMARK                         _______ _______ _______ _____ _____    ______ ____
ROOT
ATOM      1  N   UNL     1       2.788   3.752  19.817  0.00  0.00    +0.000 NA
ATOM      2  C   UNL     1       3.751   3.045  18.960  0.00  0.00    +0.000 C 
ATOM      3  C   UNL     1       3.545   3.359  17.483  0.00  0.00    +0.000 C 
ATOM      4  C   UNL     1       3.615   4.858  17.236  0.00  0.00    +0.000 C 
ATOM      5  C   UNL     1       2.621   5.598  18.141  0.00  0.00    +0.000 C 
ATOM      6  C   UNL     1       2.766   7.118  17.937  0.00  0.00    +0.000 C 
ATOM      7  C   UNL     1       1.995   7.963  18.920  0.00  0.00    +0.000 A 
ATOM      8  C   UNL     1       1.749   9.329  18.695  0.00  0.00    +0.000 A 
ATOM      9  C   UNL     1       1.049  10.107  19.618  0.00  0.00    +0.000 A 
ATOM     10  C   UNL     1       0.594   9.528  20.790  0.00  0.00    +0.000 A 
ATOM     11  C   UNL     1       0.837   8.187  21.052  0.00  0.00    +0.000 A 
ATOM     12  C   UNL     1       1.551   7.401  20.130  0.00  0.00    +0.000 A 
ATOM     13  C   UNL     1       1.769   5.949  20.474  0.00  0.00    +0.000 C 
ATOM     14  C   UNL     1       2.836   5.225  19.624  0.00  0.00    +0.000 C 
ENDROOT
BRANCH   1  16
ATOM     15  C   UNL     1       1.705   2.594  21.806  0.00  0.00    +0.000 C 
ATOM     16  C   UNL     1       2.916   3.319  21.222  0.00  0.00    +0.000 C 
ENDBRANCH   1  16
BRANCH   8  17
ATOM     17  O   UNL     1       2.177   9.990  17.578  0.00  0.00    +0.000 OA
ATOM     18  H   UNL     1       2.357  10.918  17.796  0.00  0.00    +0.000 HD
ENDBRANCH   8  17
BRANCH  10  19
ATOM     19  O   UNL     1      -0.095  10.241  21.727  0.00  0.00    +0.000 OA
ATOM     20  H   UNL     1      -0.261  11.130  21.371  0.00  0.00    +0.000 HD
ENDBRANCH  10  19
TORSDOF 3
ENDMDL
MODEL 7
REMARK VINA RESULT:      -6.5      3.788      6.547
REMARK  Name = 
REMARK  4 active torsions:
REMARK  status: ('A' for Active; 'I' for Inactive)
REMARK    1  A    between atoms: C_1  and  C_2
REMARK    2  A    between atoms: C_2  and  N_3
REMARK    3  A    between atoms: C_10  and  O_11
REMARK    4  A    between atoms: C_13  and  O_14
REMARK                            x       y       z     vdW  Elec       q    Type
REMARK                         _______ _______ _______ _____ _____    ______ ____
ROOT
ATOM      1  N   UNL     1       5.068   4.287  18.348  0.00  0.00    +0.000 NA
ATOM      2  C   UNL     1       5.398   5.232  19.424  0.00  0.00    +0.000 C 
ATOM      3  C   UNL     1       6.894   5.512  19.503  0.00  0.00    +0.000 C 
ATOM      4  C   UNL     1       7.418   6.023  18.170  0.00  0.00    +0.000 C 
ATOM      5  C   UNL     1       7.060   5.044  17.044  0.00  0.00    +0.000 C 
ATOM      6  C   UNL     1       7.525   5.617  15.691  0.00  0.00    +0.000 C 
ATOM      7  C   UNL     1       7.045   4.851  14.484  0.00  0.00    +0.000 A 
ATOM      8  C   UNL     1       7.623   5.028  13.213  0.00  0.00    +0.000 A 
ATOM      9  C   UNL     1       7.162   4.327  12.097  0.00  0.00    +0.000 A 
ATOM     10  C   UNL     1       6.104   3.445  12.236  0.00  0.00    +0.000 A 
ATOM     11  C   UNL     1       5.499   3.264  13.473  0.00  0.00    +0.000 A 
ATOM     12  C   UNL     1       5.953   3.974  14.598  0.00  0.00    +0.000 A 
ATOM     13  C   UNL     1       5.257   3.719  15.911  0.00  0.00    +0.000 C 
ATOM     14  C   UNL     1       5.544   4.755  17.020  0.00  0.00    +0.000 C 
ENDROOT
BRANCH   1  16
ATOM     15  C   UNL     1       2.654   5.074  18.200  0.00  0.00    +0.000 C 
ATOM     16  C   UNL     1       3.639   3.922  18.387  0.00  0.00    +0.000 C 
ENDBRANCH   1  16
BRANCH   8  17
ATOM     17  O   UNL     1       8.657   5.890  12.976  0.00  0.00    +0.000 OA
ATOM     18  H   UNL     1       9.444   5.391  12.711  0.00  0.00    +0.000 HD
ENDBRANCH   8  17
BRANCH  10  19
ATOM     19  O   UNL     1       5.613   2.735  11.181  0.00  0.00    +0.000 OA
ATOM     20  H   UNL     1       5.961   3.128  10.363  0.00  0.00    +0.000 HD
ENDBRANCH  10  19
TORSDOF 3
ENDMDL
MODEL 8
REMARK VINA RESULT:      -6.4      3.451      6.028
REMARK  Name = 
REMARK  4 active torsions:
REMARK  status: ('A' for Active; 'I' for Inactive)
REMARK    1  A    between atoms: C_1  and  C_2
REMARK    2  A    between atoms: C_2  and  N_3
REMARK    3  A    between atoms: C_10  and  O_11
REMARK    4  A    between atoms: C_13  and  O_14
REMARK                            x       y       z     vdW  Elec       q    Type
REMARK                         _______ _______ _______ _____ _____    ______ ____
ROOT
ATOM      1  N   UNL     1       2.310   3.513  19.895  0.00  0.00    +0.000 NA
ATOM      2  C   UNL     1       1.370   4.320  20.687  0.00  0.00    +0.000 C 
ATOM      3  C   UNL     1       1.956   5.674  21.069  0.00  0.00    +0.000 C 
ATOM      4  C   UNL     1       2.398   6.439  19.831  0.00  0.00    +0.000 C 
ATOM      5  C   UNL     1       3.367   5.591  18.995  0.00  0.00    +0.000 C 
ATOM      6  C   UNL     1       3.737   6.348  17.705  0.00  0.00    +0.000 C 
ATOM      7  C   UNL     1       4.515   5.536  16.700  0.00  0.00    +0.000 A 
ATOM      8  C   UNL     1       5.206   6.138  15.633  0.00  0.00    +0.000 A 
ATOM      9  C   UNL     1       5.910   5.378  14.697  0.00  0.00    +0.000 A 
ATOM     10  C   UNL     1       5.921   3.999  14.810  0.00  0.00    +0.000 A 
ATOM     11  C   UNL     1       5.232   3.373  15.840  0.00  0.00    +0.000 A 
ATOM     12  C   UNL     1       4.513   4.133  16.779  0.00  0.00    +0.000 A 
ATOM     13  C   UNL     1       3.798   3.387  17.878  0.00  0.00    +0.000 C 
ATOM     14  C   UNL     1       2.754   4.214  18.662  0.00  0.00    +0.000 C 
ENDROOT
BRANCH   1  16
ATOM     15  C   UNL     1       0.539   2.072  18.775  0.00  0.00    +0.000 C 
ATOM     16  C   UNL     1       1.777   2.157  19.665  0.00  0.00    +0.000 C 
ENDBRANCH   1  16
BRANCH   8  17
ATOM     17  O   UNL     1       5.235   7.489  15.429  0.00  0.00    +0.000 OA
ATOM     18  H   UNL     1       5.445   7.941  16.261  0.00  0.00    +0.000 HD
ENDBRANCH   8  17
BRANCH  10  19
ATOM     19  O   UNL     1       6.592   3.208  13.924  0.00  0.00    +0.000 OA
ATOM     20  H   UNL     1       7.499   3.546  13.841  0.00  0.00    +0.000 HD
ENDBRANCH  10  19
TORSDOF 3
ENDMDL
MODEL 9
REMARK VINA RESULT:      -6.3      4.449      5.442
REMARK  Name = 
REMARK  4 active torsions:
REMARK  status: ('A' for Active; 'I' for Inactive)
REMARK    1  A    between atoms: C_1  and  C_2
REMARK    2  A    between atoms: C_2  and  N_3
REMARK    3  A    between atoms: C_10  and  O_11
REMARK    4  A    between atoms: C_13  and  O_14
REMARK                            x       y       z     vdW  Elec       q    Type
REMARK                         _______ _______ _______ _____ _____    ______ ____
ROOT
ATOM      1  N   UNL     1       0.953   9.092  20.295  0.00  0.00    +0.000 NA
ATOM      2  C   UNL     1       0.682  10.066  19.228  0.00  0.00    +0.000 C 
ATOM      3  C   UNL     1       1.830  10.158  18.230  0.00  0.00    +0.000 C 
ATOM      4  C   UNL     1       2.139   8.793  17.636  0.00  0.00    +0.000 C 
ATOM      5  C   UNL     1       2.406   7.772  18.751  0.00  0.00    +0.000 C 
ATOM      6  C   UNL     1       2.635   6.379  18.133  0.00  0.00    +0.000 C 
ATOM      7  C   UNL     1       2.698   5.250  19.132  0.00  0.00    +0.000 A 
ATOM      8  C   UNL     1       3.213   3.986  18.794  0.00  0.00    +0.000 A 
ATOM      9  C   UNL     1       3.253   2.941  19.719  0.00  0.00    +0.000 A 
ATOM     10  C   UNL     1       2.764   3.146  20.998  0.00  0.00    +0.000 A 
ATOM     11  C   UNL     1       2.230   4.376  21.357  0.00  0.00    +0.000 A 
ATOM     12  C   UNL     1       2.179   5.428  20.426  0.00  0.00    +0.000 A 
ATOM     13  C   UNL     1       1.597   6.740  20.888  0.00  0.00    +0.000 C 
ATOM     14  C   UNL     1       1.241   7.735  19.762  0.00  0.00    +0.000 C 
ENDROOT
BRANCH   1  16
ATOM     15  C   UNL     1       0.328   9.609  22.706  0.00  0.00    +0.000 C 
ATOM     16  C   UNL     1      -0.105   9.129  21.323  0.00  0.00    +0.000 C 
ENDBRANCH   1  16
BRANCH   8  17
ATOM     17  O   UNL     1       3.699   3.685  17.552  0.00  0.00    +0.000 OA
ATOM     18  H   UNL     1       4.369   4.338  17.296  0.00  0.00    +0.000 HD
ENDBRANCH   8  17
BRANCH  10  19
ATOM     19  O   UNL     1       2.778   2.162  21.942  0.00  0.00    +0.000 OA
ATOM     20  H   UNL     1       3.700   2.008  22.207  0.00  0.00    +0.000 HD
ENDBRANCH  10  19
TORSDOF 3
ENDMDL
