MODEL 1
REMARK VINA RESULT:      -6.8      0.000      0.000
REMARK  Name = 
REMARK  5 active torsions:
REMARK  status: ('A' for Active; 'I' for Inactive)
REMARK    1  A    between atoms: C_1  and  C_2
REMARK    2  A    between atoms: C_2  and  N_3
REMARK    3  A    between atoms: C_8  and  C_9
REMARK    4  A    between atoms: C_8  and  C_11
REMARK    5  A    between atoms: C_9  and  C_10
REMARK                            x       y       z     vdW  Elec       q    Type
REMARK                         _______ _______ _______ _____ _____    ______ ____
ROOT
ATOM      1  N   UNL     1       6.612   4.764  17.792  0.00  0.00    +0.000 N 
ATOM      2  C   UNL     1       6.501   4.566  16.419  0.00  0.00    +0.000 C 
ATOM      3  O   UNL     1       7.425   4.741  15.624  0.00  0.00    +0.000 OA
ATOM      4  C   UNL     1       5.175   4.048  15.944  0.00  0.00    +0.000 C 
ATOM      5  C   UNL     1       4.074   4.697  16.761  0.00  0.00    +0.000 C 
ATOM      6  C   UNL     1       4.166   4.301  18.264  0.00  0.00    +0.000 C 
ATOM      7  C   UNL     1       5.632   4.473  18.748  0.00  0.00    +0.000 C 
ATOM      8  O   UNL     1       5.928   4.350  19.940  0.00  0.00    +0.000 OA
ENDROOT
BRANCH   6   9
ATOM      9  C   UNL     1       3.208   5.269  19.002  0.00  0.00    +0.000 A 
ATOM     10  C   UNL     1       3.079   6.613  18.622  0.00  0.00    +0.000 A 
ATOM     11  C   UNL     1       2.249   7.457  19.349  0.00  0.00    +0.000 A 
ATOM     12  N   UNL     1       1.545   7.073  20.429  0.00  0.00    +0.000 NA
ATOM     13  C   UNL     1       1.683   5.778  20.797  0.00  0.00    +0.000 A 
ATOM     14  C   UNL     1       2.486   4.866  20.139  0.00  0.00    +0.000 A 
ENDBRANCH   6   9
BRANCH   1  16
ATOM     15  C   UNL     1       7.969   6.701  18.495  0.00  0.00    +0.000 C 
ATOM     16  C   UNL     1       7.910   5.198  18.291  0.00  0.00    +0.000 C 
ENDBRANCH   1  16
BRANCH   6  17
ATOM     17  C   UNL     1       3.784   2.790  18.473  0.00  0.00    +0.000 C 
ATOM     18  C   UNL     1       2.554   2.289  17.703  0.00  0.00    +0.000 C 
ENDBRANCH   6  17
TORSDOF 3
ENDMDL
MODEL 2
REMARK VINA RESULT:      -6.8      2.413      4.196
REMARK  Name = 
REMARK  5 active torsions:
REMARK  status: ('A' for Active; 'I' for Inactive)
REMARK    1  A    between atoms: C_1  and  C_2
REMARK    2  A    between atoms: C_2  and  N_3
REMARK    3  A    between atoms: C_8  and  C_9
REMARK    4  A    between atoms: C_8  and  C_11
REMARK    5  A    between atoms: C_9  and  C_10
REMARK                            x       y       z     vdW  Elec       q    Type
REMARK                         _______ _______ _______ _____ _____    ______ ____
ROOT
ATOM      1  N   UNL     1       3.141   3.426  18.972  0.00  0.00    +0.000 N 
ATOM      2  C   UNL     1       4.412   3.201  19.494  0.00  0.00    +0.000 C 
ATOM      3  O   UNL     1       4.736   2.173  20.088  0.00  0.00    +0.000 OA
ATOM      4  C   UNL     1       5.421   4.280  19.232  0.00  0.00    +0.000 C 
ATOM      5  C   UNL     1       4.732   5.628  19.326  0.00  0.00    +0.000 C 
ATOM      6  C   UNL     1       3.643   5.795  18.227  0.00  0.00    +0.000 C 
ATOM      7  C   UNL     1       2.753   4.522  18.193  0.00  0.00    +0.000 C 
ATOM      8  O   UNL     1       1.736   4.474  17.494  0.00  0.00    +0.000 OA
ENDROOT
BRANCH   6   9
ATOM      9  C   UNL     1       2.828   7.045  18.643  0.00  0.00    +0.000 A 
ATOM     10  C   UNL     1       2.263   7.167  19.921  0.00  0.00    +0.000 A 
ATOM     11  C   UNL     1       1.494   8.280  20.231  0.00  0.00    +0.000 A 
ATOM     12  N   UNL     1       1.234   9.279  19.366  0.00  0.00    +0.000 NA
ATOM     13  C   UNL     1       1.771   9.150  18.132  0.00  0.00    +0.000 A 
ATOM     14  C   UNL     1       2.546   8.077  17.732  0.00  0.00    +0.000 A 
ENDBRANCH   6   9
BRANCH   1  16
ATOM     15  C   UNL     1       1.203   2.654  20.290  0.00  0.00    +0.000 C 
ATOM     16  C   UNL     1       2.161   2.363  19.149  0.00  0.00    +0.000 C 
ENDBRANCH   1  16
BRANCH   6  17
ATOM     17  C   UNL     1       4.296   5.940  16.804  0.00  0.00    +0.000 C 
ATOM     18  C   UNL     1       5.628   6.701  16.745  0.00  0.00    +0.000 C 
ENDBRANCH   6  17
TORSDOF 3
ENDMDL
MODEL 3
REMARK VINA RESULT:      -6.8      2.404      4.053
REMARK  Name = 
REMARK  5 active torsions:
REMARK  status: ('A' for Active; 'I' for Inactive)
REMARK    1  A    between atoms: C_1  and  C_2
REMARK    2  A    between atoms: C_2  and  N_3
REMARK    3  A    between atoms: C_8  and  C_9
REMARK    4  A    between atoms: C_8  and  C_11
REMARK    5  A    between atoms: C_9  and  C_10
REMARK                            x       y       z     vdW  Elec       q    Type
REMARK                         _______ _______ _______ _____ _____    ______ ____
ROOT
ATOM      1  N   UNL     1       3.182   3.395  18.972  0.00  0.00    +0.000 N 
ATOM      2  C   UNL     1       4.454   3.215  19.509  0.00  0.00    +0.000 C 
ATOM      3  O   UNL     1       4.806   2.201  20.113  0.00  0.00    +0.000 OA
ATOM      4  C   UNL     1       5.430   4.325  19.249  0.00  0.00    +0.000 C 
ATOM      5  C   UNL     1       4.698   5.650  19.329  0.00  0.00    +0.000 C 
ATOM      6  C   UNL     1       3.615   5.775  18.217  0.00  0.00    +0.000 C 
ATOM      7  C   UNL     1       2.767   4.474  18.182  0.00  0.00    +0.000 C 
ATOM      8  O   UNL     1       1.759   4.388  17.474  0.00  0.00    +0.000 OA
ENDROOT
BRANCH   6   9
ATOM      9  C   UNL     1       2.756   7.000  18.617  0.00  0.00    +0.000 A 
ATOM     10  C   UNL     1       2.529   8.065  17.732  0.00  0.00    +0.000 A 
ATOM     11  C   UNL     1       1.798   9.167  18.154  0.00  0.00    +0.000 A 
ATOM     12  N   UNL     1       1.283   9.300  19.390  0.00  0.00    +0.000 NA
ATOM     13  C   UNL     1       1.515   8.275  20.243  0.00  0.00    +0.000 A 
ATOM     14  C   UNL     1       2.233   7.140  19.914  0.00  0.00    +0.000 A 
ENDBRANCH   6   9
BRANCH   1  16
ATOM     15  C   UNL     1       1.287   2.548  20.307  0.00  0.00    +0.000 C 
ATOM     16  C   UNL     1       2.235   2.303  19.146  0.00  0.00    +0.000 C 
ENDBRANCH   1  16
BRANCH   6  17
ATOM     17  C   UNL     1       4.278   5.932  16.800  0.00  0.00    +0.000 C 
ATOM     18  C   UNL     1       5.602   6.708  16.754  0.00  0.00    +0.000 C 
ENDBRANCH   6  17
TORSDOF 3
ENDMDL
MODEL 4
REMARK VINA RESULT:      -6.6      0.098      1.107
REMARK  Name = 
REMARK  5 active torsions:
REMARK  status: ('A' for Active; 'I' for Inactive)
REMARK    1  A    between atoms: C_1  and  C_2
REMARK    2  A    between atoms: C_2  and  N_3
REMARK    3  A    between atoms: C_8  and  C_9
REMARK    4  A    between atoms: C_8  and  C_11
REMARK    5  A    between atoms: C_9  and  C_10
REMARK                            x       y       z     vdW  Elec       q    Type
REMARK                         _______ _______ _______ _____ _____    ______ ____
ROOT
ATOM      1  N   UNL     1       6.601   4.765  17.793  0.00  0.00    +0.000 N 
ATOM      2  C   UNL     1       6.460   4.617  16.416  0.00  0.00    +0.000 C 
ATOM      3  O   UNL     1       7.377   4.784  15.611  0.00  0.00    +0.000 OA
ATOM      4  C   UNL     1       5.108   4.164  15.948  0.00  0.00    +0.000 C 
ATOM      5  C   UNL     1       4.046   4.825  16.805  0.00  0.00    +0.000 C 
ATOM      6  C   UNL     1       4.147   4.377  18.293  0.00  0.00    +0.000 C 
ATOM      7  C   UNL     1       5.627   4.479  18.757  0.00  0.00    +0.000 C 
ATOM      8  O   UNL     1       5.937   4.306  19.939  0.00  0.00    +0.000 OA
ENDROOT
BRANCH   6   9
ATOM      9  C   UNL     1       3.239   5.355  19.079  0.00  0.00    +0.000 A 
ATOM     10  C   UNL     1       2.488   4.937  20.187  0.00  0.00    +0.000 A 
ATOM     11  C   UNL     1       1.646   5.837  20.827  0.00  0.00    +0.000 A 
ATOM     12  N   UNL     1       1.483   7.117  20.445  0.00  0.00    +0.000 NA
ATOM     13  C   UNL     1       2.201   7.511  19.368  0.00  0.00    +0.000 A 
ATOM     14  C   UNL     1       3.062   6.687  18.667  0.00  0.00    +0.000 A 
ENDBRANCH   6   9
BRANCH   1  16
ATOM     15  C   UNL     1       8.016   6.612  18.614  0.00  0.00    +0.000 C 
ATOM     16  C   UNL     1       7.922   5.134  18.282  0.00  0.00    +0.000 C 
ENDBRANCH   1  16
BRANCH   6  17
ATOM     17  C   UNL     1       3.713   2.875  18.459  0.00  0.00    +0.000 C 
ATOM     18  C   UNL     1       2.476   2.436  17.664  0.00  0.00    +0.000 C 
ENDBRANCH   6  17
TORSDOF 3
ENDMDL
MODEL 5
REMARK VINA RESULT:      -6.5      1.057      1.617
REMARK  Name = 
REMARK  5 active torsions:
REMARK  status: ('A' for Active; 'I' for Inactive)
REMARK    1  A    between atoms: C_1  and  C_2
REMARK    2  A    between atoms: C_2  and  N_3
REMARK    3  A    between atoms: C_8  and  C_9
REMARK    4  A    between atoms: C_8  and  C_11
REMARK    5  A    between atoms: C_9  and  C_10
REMARK                            x       y       z     vdW  Elec       q    Type
REMARK                         _______ _______ _______ _____ _____    ______ ____
ROOT
ATOM      1  N   UNL     1       6.662   5.139  17.941  0.00  0.00    +0.000 N 
ATOM      2  C   UNL     1       6.733   4.731  16.612  0.00  0.00    +0.000 C 
ATOM      3  O   UNL     1       7.789   4.587  15.994  0.00  0.00    +0.000 OA
ATOM      4  C   UNL     1       5.420   4.397  15.966  0.00  0.00    +0.000 C 
ATOM      5  C   UNL     1       4.370   5.374  16.459  0.00  0.00    +0.000 C 
ATOM      6  C   UNL     1       4.131   5.235  17.991  0.00  0.00    +0.000 C 
ATOM      7  C   UNL     1       5.502   5.208  18.721  0.00  0.00    +0.000 C 
ATOM      8  O   UNL     1       5.569   5.240  19.953  0.00  0.00    +0.000 OA
ENDROOT
BRANCH   6   9
ATOM      9  C   UNL     1       3.301   6.479  18.391  0.00  0.00    +0.000 A 
ATOM     10  C   UNL     1       2.600   6.541  19.605  0.00  0.00    +0.000 A 
ATOM     11  C   UNL     1       1.824   7.655  19.896  0.00  0.00    +0.000 A 
ATOM     12  N   UNL     1       1.682   8.709  19.071  0.00  0.00    +0.000 NA
ATOM     13  C   UNL     1       2.351   8.639  17.898  0.00  0.00    +0.000 A 
ATOM     14  C   UNL     1       3.143   7.571  17.520  0.00  0.00    +0.000 A 
ENDBRANCH   6   9
BRANCH   1  16
ATOM     15  C   UNL     1       8.227   6.885  18.712  0.00  0.00    +0.000 C 
ATOM     16  C   UNL     1       7.927   5.400  18.616  0.00  0.00    +0.000 C 
ENDBRANCH   1  16
BRANCH   6  17
ATOM     17  C   UNL     1       3.403   3.882  18.327  0.00  0.00    +0.000 C 
ATOM     18  C   UNL     1       2.136   3.575  17.515  0.00  0.00    +0.000 C 
ENDBRANCH   6  17
TORSDOF 3
ENDMDL
MODEL 6
REMARK VINA RESULT:      -6.4      1.437      2.093
REMARK  Name = 
REMARK  5 active torsions:
REMARK  status: ('A' for Active; 'I' for Inactive)
REMARK    1  A    between atoms: C_1  and  C_2
REMARK    2  A    between atoms: C_2  and  N_3
REMARK    3  A    between atoms: C_8  and  C_9
REMARK    4  A    between atoms: C_8  and  C_11
REMARK    5  A    between atoms: C_9  and  C_10
REMARK                            x       y       z     vdW  Elec       q    Type
REMARK                         _______ _______ _______ _____ _____    ______ ____
ROOT
ATOM      1  N   UNL     1       5.430   4.675  17.779  0.00  0.00    +0.000 N 
ATOM      2  C   UNL     1       4.889   3.821  16.822  0.00  0.00    +0.000 C 
ATOM      3  O   UNL     1       5.537   3.328  15.898  0.00  0.00    +0.000 OA
ATOM      4  C   UNL     1       3.444   3.465  17.014  0.00  0.00    +0.000 C 
ATOM      5  C   UNL     1       2.702   4.686  17.523  0.00  0.00    +0.000 C 
ATOM      6  C   UNL     1       3.216   5.127  18.925  0.00  0.00    +0.000 C 
ATOM      7  C   UNL     1       4.769   5.171  18.908  0.00  0.00    +0.000 C 
ATOM      8  O   UNL     1       5.404   5.624  19.865  0.00  0.00    +0.000 OA
ENDROOT
BRANCH   6   9
ATOM      9  C   UNL     1       2.612   6.533  19.160  0.00  0.00    +0.000 A 
ATOM     10  C   UNL     1       2.054   6.902  20.393  0.00  0.00    +0.000 A 
ATOM     11  C   UNL     1       1.475   8.155  20.539  0.00  0.00    +0.000 A 
ATOM     12  N   UNL     1       1.397   9.068  19.553  0.00  0.00    +0.000 NA
ATOM     13  C   UNL     1       1.927   8.703  18.364  0.00  0.00    +0.000 A 
ATOM     14  C   UNL     1       2.520   7.477  18.122  0.00  0.00    +0.000 A 
ENDBRANCH   6   9
BRANCH   1  16
ATOM     15  C   UNL     1       7.088   6.348  17.043  0.00  0.00    +0.000 C 
ATOM     16  C   UNL     1       6.849   4.981  17.659  0.00  0.00    +0.000 C 
ENDBRANCH   1  16
BRANCH   6  17
ATOM     17  C   UNL     1       2.795   4.091  20.031  0.00  0.00    +0.000 C 
ATOM     18  C   UNL     1       1.382   3.504  19.907  0.00  0.00    +0.000 C 
ENDBRANCH   6  17
TORSDOF 3
ENDMDL
MODEL 7
REMARK VINA RESULT:      -6.3      1.490      1.892
REMARK  Name = 
REMARK  5 active torsions:
REMARK  status: ('A' for Active; 'I' for Inactive)
REMARK    1  A    between atoms: C_1  and  C_2
REMARK    2  A    between atoms: C_2  and  N_3
REMARK    3  A    between atoms: C_8  and  C_9
REMARK    4  A    between atoms: C_8  and  C_11
REMARK    5  A    between atoms: C_9  and  C_10
REMARK                            x       y       z     vdW  Elec       q    Type
REMARK                         _______ _______ _______ _____ _____    ______ ____
ROOT
ATOM      1  N   UNL     1       5.325   4.629  17.798  0.00  0.00    +0.000 N 
ATOM      2  C   UNL     1       4.798   3.753  16.854  0.00  0.00    +0.000 C 
ATOM      3  O   UNL     1       5.454   3.256  15.938  0.00  0.00    +0.000 OA
ATOM      4  C   UNL     1       3.359   3.376  17.052  0.00  0.00    +0.000 C 
ATOM      5  C   UNL     1       2.597   4.592  17.544  0.00  0.00    +0.000 C 
ATOM      6  C   UNL     1       3.104   5.062  18.939  0.00  0.00    +0.000 C 
ATOM      7  C   UNL     1       4.657   5.131  18.921  0.00  0.00    +0.000 C 
ATOM      8  O   UNL     1       5.284   5.608  19.871  0.00  0.00    +0.000 OA
ENDROOT
BRANCH   6   9
ATOM      9  C   UNL     1       2.478   6.462  19.153  0.00  0.00    +0.000 A 
ATOM     10  C   UNL     1       2.441   7.420  18.128  0.00  0.00    +0.000 A 
ATOM     11  C   UNL     1       1.918   8.681  18.384  0.00  0.00    +0.000 A 
ATOM     12  N   UNL     1       1.439   9.069  19.580  0.00  0.00    +0.000 NA
ATOM     13  C   UNL     1       1.487   8.145  20.566  0.00  0.00    +0.000 A 
ATOM     14  C   UNL     1       1.992   6.867  20.408  0.00  0.00    +0.000 A 
ENDBRANCH   6   9
BRANCH   1  16
ATOM     15  C   UNL     1       6.958   6.284  16.970  0.00  0.00    +0.000 C 
ATOM     16  C   UNL     1       6.739   4.957  17.673  0.00  0.00    +0.000 C 
ENDBRANCH   1  16
BRANCH   6  17
ATOM     17  C   UNL     1       2.701   4.036  20.060  0.00  0.00    +0.000 C 
ATOM     18  C   UNL     1       1.269   3.486  19.991  0.00  0.00    +0.000 C 
ENDBRANCH   6  17
TORSDOF 3
ENDMDL
MODEL 8
REMARK VINA RESULT:      -6.3      2.263      5.191
REMARK  Name = 
REMARK  5 active torsions:
REMARK  status: ('A' for Active; 'I' for Inactive)
REMARK    1  A    between atoms: C_1  and  C_2
REMARK    2  A    between atoms: C_2  and  N_3
REMARK    3  A    between atoms: C_8  and  C_9
REMARK    4  A    between atoms: C_8  and  C_11
REMARK    5  A    between atoms: C_9  and  C_10
REMARK                            x       y       z     vdW  Elec       q    Type
REMARK                         _______ _______ _______ _____ _____    ______ ____
ROOT
ATOM      1  N   UNL     1       2.410   3.177  19.533  0.00  0.00    +0.000 N 
ATOM      2  C   UNL     1       1.325   3.136  18.663  0.00  0.00    +0.000 C 
ATOM      3  O   UNL     1       0.392   2.339  18.767  0.00  0.00    +0.000 OA
ATOM      4  C   UNL     1       1.313   4.188  17.593  0.00  0.00    +0.000 C 
ATOM      5  C   UNL     1       2.732   4.412  17.109  0.00  0.00    +0.000 C 
ATOM      6  C   UNL     1       3.643   4.974  18.239  0.00  0.00    +0.000 C 
ATOM      7  C   UNL     1       3.436   4.130  19.528  0.00  0.00    +0.000 C 
ATOM      8  O   UNL     1       4.148   4.299  20.521  0.00  0.00    +0.000 OA
ENDROOT
BRANCH   6   9
ATOM      9  C   UNL     1       5.090   4.843  17.704  0.00  0.00    +0.000 A 
ATOM     10  C   UNL     1       5.362   4.330  16.427  0.00  0.00    +0.000 A 
ATOM     11  C   UNL     1       6.679   4.180  16.012  0.00  0.00    +0.000 A 
ATOM     12  N   UNL     1       7.747   4.491  16.769  0.00  0.00    +0.000 NA
ATOM     13  C   UNL     1       7.478   4.974  18.004  0.00  0.00    +0.000 A 
ATOM     14  C   UNL     1       6.202   5.155  18.505  0.00  0.00    +0.000 A 
ENDBRANCH   6   9
BRANCH   1  16
ATOM     15  C   UNL     1       1.582   2.685  21.805  0.00  0.00    +0.000 C 
ATOM     16  C   UNL     1       2.413   2.214  20.626  0.00  0.00    +0.000 C 
ENDBRANCH   1  16
BRANCH   6  17
ATOM     17  C   UNL     1       3.255   6.456  18.590  0.00  0.00    +0.000 C 
ATOM     18  C   UNL     1       3.453   7.491  17.474  0.00  0.00    +0.000 C 
ENDBRANCH   6  17
TORSDOF 3
ENDMDL
MODEL 9
REMARK VINA RESULT:      -6.3      2.204      5.020
REMARK  Name = 
REMARK  5 active torsions:
REMARK  status: ('A' for Active; 'I' for Inactive)
REMARK    1  A    between atoms: C_1  and  C_2
REMARK    2  A    between atoms: C_2  and  N_3
REMARK    3  A    between atoms: C_8  and  C_9
REMARK    4  A    between atoms: C_8  and  C_11
REMARK    5  A    between atoms: C_9  and  C_10
REMARK                            x       y       z     vdW  Elec       q    Type
REMARK                         _______ _______ _______ _____ _____    ______ ____
ROOT
ATOM      1  N   UNL     1       2.849   3.455  19.509  0.00  0.00    +0.000 N 
ATOM      2  C   UNL     1       1.705   3.135  18.784  0.00  0.00    +0.000 C 
ATOM      3  O   UNL     1       0.939   2.217  19.081  0.00  0.00    +0.000 OA
ATOM      4  C   UNL     1       1.401   4.035  17.622  0.00  0.00    +0.000 C 
ATOM      5  C   UNL     1       2.704   4.424  16.950  0.00  0.00    +0.000 C 
ATOM      6  C   UNL     1       3.614   5.257  17.900  0.00  0.00    +0.000 C 
ATOM      7  C   UNL     1       3.688   4.553  19.283  0.00  0.00    +0.000 C 
ATOM      8  O   UNL     1       4.458   4.953  20.161  0.00  0.00    +0.000 OA
ENDROOT
BRANCH   6   9
ATOM      9  C   UNL     1       5.000   5.297  17.210  0.00  0.00    +0.000 A 
ATOM     10  C   UNL     1       5.908   6.343  17.436  0.00  0.00    +0.000 A 
ATOM     11  C   UNL     1       7.116   6.364  16.753  0.00  0.00    +0.000 A 
ATOM     12  N   UNL     1       7.490   5.433  15.855  0.00  0.00    +0.000 NA
ATOM     13  C   UNL     1       6.606   4.434  15.634  0.00  0.00    +0.000 A 
ATOM     14  C   UNL     1       5.379   4.330  16.263  0.00  0.00    +0.000 A 
ENDBRANCH   6   9
BRANCH   1  16
ATOM     15  C   UNL     1       2.217   2.988  21.848  0.00  0.00    +0.000 C 
ATOM     16  C   UNL     1       3.130   2.643  20.685  0.00  0.00    +0.000 C 
ENDBRANCH   1  16
BRANCH   6  17
ATOM     17  C   UNL     1       3.012   6.690  18.142  0.00  0.00    +0.000 C 
ATOM     18  C   UNL     1       2.357   6.926  19.510  0.00  0.00    +0.000 C 
ENDBRANCH   6  17
TORSDOF 3
ENDMDL
