MODEL 1
REMARK VINA RESULT:      -6.3      0.000      0.000
REMARK  Name = 
REMARK  10 active torsions:
REMARK  status: ('A' for Active; 'I' for Inactive)
REMARK    1  A    between atoms: C_1  and  O_2
REMARK    2  A    between atoms: O_2  and  C_3
REMARK    3  A    between atoms: C_3  and  C_4
REMARK    4  A    between atoms: C_4  and  C_5
REMARK    5  A    between atoms: C_5  and  N_6
REMARK    6  A    between atoms: N_6  and  C_7
REMARK    7  A    between atoms: N_6  and  S_11
REMARK    8  A    between atoms: C_7  and  C_8
REMARK    9  A    between atoms: C_8  and  O_10
REMARK   10  A    between atoms: S_11  and  C_14
REMARK                            x       y       z     vdW  Elec       q    Type
REMARK                         _______ _______ _______ _____ _____    ______ ____
ROOT
ATOM      1  N   UNL     1       5.829   4.669  17.112  0.00  0.00    +0.000 NA
ENDROOT
BRANCH   1   2
ATOM      2  S   UNL     1       4.577   4.107  18.207  0.00  0.00    +0.000 S 
ATOM      3  O   UNL     1       3.730   3.235  17.424  0.00  0.00    +0.000 OA
ATOM      4  O   UNL     1       5.236   3.643  19.406  0.00  0.00    +0.000 OA
BRANCH   2   5
ATOM      5  C   UNL     1       3.623   5.552  18.617  0.00  0.00    +0.000 A 
ATOM      6  C   UNL     1       3.536   6.611  17.710  0.00  0.00    +0.000 A 
ATOM      7  C   UNL     1       2.769   7.732  18.033  0.00  0.00    +0.000 A 
ATOM      8  C   UNL     1       2.080   7.786  19.249  0.00  0.00    +0.000 A 
ATOM      9  C   UNL     1       2.136   6.709  20.134  0.00  0.00    +0.000 A 
ATOM     10  C   UNL     1       2.898   5.583  19.816  0.00  0.00    +0.000 A 
ENDBRANCH   2   5
ENDBRANCH   1   2
BRANCH   1  11
ATOM     11  C   UNL     1       7.206   4.565  17.744  0.00  0.00    +0.000 C 
BRANCH  11  12
ATOM     12  C   UNL     1       7.596   5.790  18.579  0.00  0.00    +0.000 C 
BRANCH  12  13
ATOM     13  C   UNL     1       7.607   7.053  17.717  0.00  0.00    +0.000 C 
BRANCH  13  15
ATOM     14  C   UNL     1       8.175   9.340  17.922  0.00  0.00    +0.000 C 
ATOM     15  O   UNL     1       8.453   8.013  18.348  0.00  0.00    +0.000 OA
ENDBRANCH  13  15
ENDBRANCH  12  13
ENDBRANCH  11  12
ENDBRANCH   1  11
BRANCH   1  16
ATOM     16  C   UNL     1       5.794   3.844  15.834  0.00  0.00    +0.000 C 
BRANCH  16  17
ATOM     17  C   UNL     1       6.496   4.365  14.599  0.00  0.00    +0.000 C 
ATOM     18  O   UNL     1       6.918   5.507  14.498  0.00  0.00    +0.000 OA
BRANCH  17  19
ATOM     19  O   UNL     1       6.462   3.511  13.550  0.00  0.00    +0.000 OA
ATOM     20  H   UNL     1       7.162   3.732  12.902  0.00  0.00    +0.000 HD
ENDBRANCH  17  19
ENDBRANCH  16  17
ENDBRANCH   1  16
TORSDOF 9
ENDMDL
MODEL 2
REMARK VINA RESULT:      -6.1      1.961      2.735
REMARK  Name = 
REMARK  10 active torsions:
REMARK  status: ('A' for Active; 'I' for Inactive)
REMARK    1  A    between atoms: C_1  and  O_2
REMARK    2  A    between atoms: O_2  and  C_3
REMARK    3  A    between atoms: C_3  and  C_4
REMARK    4  A    between atoms: C_4  and  C_5
REMARK    5  A    between atoms: C_5  and  N_6
REMARK    6  A    between atoms: N_6  and  C_7
REMARK    7  A    between atoms: N_6  and  S_11
REMARK    8  A    between atoms: C_7  and  C_8
REMARK    9  A    between atoms: C_8  and  O_10
REMARK   10  A    between atoms: S_11  and  C_14
REMARK                            x       y       z     vdW  Elec       q    Type
REMARK                         _______ _______ _______ _____ _____    ______ ____
ROOT
ATOM      1  N   UNL     1       5.504   5.503  17.108  0.00  0.00    +0.000 NA
ENDROOT
BRANCH   1   2
ATOM      2  S   UNL     1       5.132   4.984  18.743  0.00  0.00    +0.000 S 
ATOM      3  O   UNL     1       6.227   4.130  19.145  0.00  0.00    +0.000 OA
ATOM      4  O   UNL     1       4.779   6.166  19.496  0.00  0.00    +0.000 OA
BRANCH   2   5
ATOM      5  C   UNL     1       3.683   3.961  18.598  0.00  0.00    +0.000 A 
ATOM      6  C   UNL     1       2.447   4.541  18.304  0.00  0.00    +0.000 A 
ATOM      7  C   UNL     1       1.320   3.728  18.173  0.00  0.00    +0.000 A 
ATOM      8  C   UNL     1       1.432   2.342  18.318  0.00  0.00    +0.000 A 
ATOM      9  C   UNL     1       2.675   1.762  18.570  0.00  0.00    +0.000 A 
ATOM     10  C   UNL     1       3.808   2.569  18.700  0.00  0.00    +0.000 A 
ENDBRANCH   2   5
ENDBRANCH   1   2
BRANCH   1  11
ATOM     11  C   UNL     1       5.995   6.940  17.081  0.00  0.00    +0.000 C 
BRANCH  11  12
ATOM     12  C   UNL     1       7.421   7.116  17.616  0.00  0.00    +0.000 C 
BRANCH  12  13
ATOM     13  C   UNL     1       7.810   8.594  17.646  0.00  0.00    +0.000 C 
BRANCH  13  15
ATOM     14  C   UNL     1       9.061  10.155  18.909  0.00  0.00    +0.000 C 
ATOM     15  O   UNL     1       8.750   8.784  18.702  0.00  0.00    +0.000 OA
ENDBRANCH  13  15
ENDBRANCH  12  13
ENDBRANCH  11  12
ENDBRANCH   1  11
BRANCH   1  16
ATOM     16  C   UNL     1       6.569   4.592  16.516  0.00  0.00    +0.000 C 
BRANCH  16  17
ATOM     17  C   UNL     1       6.741   4.536  15.013  0.00  0.00    +0.000 C 
ATOM     18  O   UNL     1       6.195   3.703  14.306  0.00  0.00    +0.000 OA
BRANCH  17  19
ATOM     19  O   UNL     1       7.686   5.380  14.540  0.00  0.00    +0.000 OA
ATOM     20  H   UNL     1       7.462   5.678  13.635  0.00  0.00    +0.000 HD
ENDBRANCH  17  19
ENDBRANCH  16  17
ENDBRANCH   1  16
TORSDOF 9
ENDMDL
MODEL 3
REMARK VINA RESULT:      -6.1      2.440      3.834
REMARK  Name = 
REMARK  10 active torsions:
REMARK  status: ('A' for Active; 'I' for Inactive)
REMARK    1  A    between atoms: C_1  and  O_2
REMARK    2  A    between atoms: O_2  and  C_3
REMARK    3  A    between atoms: C_3  and  C_4
REMARK    4  A    between atoms: C_4  and  C_5
REMARK    5  A    between atoms: C_5  and  N_6
REMARK    6  A    between atoms: N_6  and  C_7
REMARK    7  A    between atoms: N_6  and  S_11
REMARK    8  A    between atoms: C_7  and  C_8
REMARK    9  A    between atoms: C_8  and  O_10
REMARK   10  A    between atoms: S_11  and  C_14
REMARK                            x       y       z     vdW  Elec       q    Type
REMARK                         _______ _______ _______ _____ _____    ______ ____
ROOT
ATOM      1  N   UNL     1       3.936   2.915  18.143  0.00  0.00    +0.000 NA
ENDROOT
BRANCH   1   2
ATOM      2  S   UNL     1       2.239   3.363  18.131  0.00  0.00    +0.000 S 
ATOM      3  O   UNL     1       1.879   3.512  16.739  0.00  0.00    +0.000 OA
ATOM      4  O   UNL     1       1.548   2.433  18.995  0.00  0.00    +0.000 OA
BRANCH   2   5
ATOM      5  C   UNL     1       2.169   4.976  18.877  0.00  0.00    +0.000 A 
ATOM      6  C   UNL     1       2.480   6.108  18.122  0.00  0.00    +0.000 A 
ATOM      7  C   UNL     1       2.404   7.372  18.711  0.00  0.00    +0.000 A 
ATOM      8  C   UNL     1       2.002   7.502  20.044  0.00  0.00    +0.000 A 
ATOM      9  C   UNL     1       1.652   6.373  20.784  0.00  0.00    +0.000 A 
ATOM     10  C   UNL     1       1.723   5.106  20.200  0.00  0.00    +0.000 A 
ENDBRANCH   2   5
ENDBRANCH   1   2
BRANCH   1  11
ATOM     11  C   UNL     1       4.701   3.609  17.030  0.00  0.00    +0.000 C 
BRANCH  11  12
ATOM     12  C   UNL     1       5.626   4.728  17.520  0.00  0.00    +0.000 C 
BRANCH  12  13
ATOM     13  C   UNL     1       7.063   4.487  17.053  0.00  0.00    +0.000 C 
BRANCH  13  15
ATOM     14  C   UNL     1       7.762   5.657  18.987  0.00  0.00    +0.000 C 
ATOM     15  O   UNL     1       7.908   4.481  18.203  0.00  0.00    +0.000 OA
ENDBRANCH  13  15
ENDBRANCH  12  13
ENDBRANCH  11  12
ENDBRANCH   1  11
BRANCH   1  16
ATOM     16  C   UNL     1       4.550   3.284  19.486  0.00  0.00    +0.000 C 
BRANCH  16  17
ATOM     17  C   UNL     1       4.543   2.266  20.605  0.00  0.00    +0.000 C 
ATOM     18  O   UNL     1       5.365   1.367  20.700  0.00  0.00    +0.000 OA
BRANCH  17  19
ATOM     19  O   UNL     1       3.449   2.332  21.397  0.00  0.00    +0.000 OA
ATOM     20  H   UNL     1       3.276   3.255  21.674  0.00  0.00    +0.000 HD
ENDBRANCH  17  19
ENDBRANCH  16  17
ENDBRANCH   1  16
TORSDOF 9
ENDMDL
MODEL 4
REMARK VINA RESULT:      -6.0      2.390      3.788
REMARK  Name = 
REMARK  10 active torsions:
REMARK  status: ('A' for Active; 'I' for Inactive)
REMARK    1  A    between atoms: C_1  and  O_2
REMARK    2  A    between atoms: O_2  and  C_3
REMARK    3  A    between atoms: C_3  and  C_4
REMARK    4  A    between atoms: C_4  and  C_5
REMARK    5  A    between atoms: C_5  and  N_6
REMARK    6  A    between atoms: N_6  and  C_7
REMARK    7  A    between atoms: N_6  and  S_11
REMARK    8  A    between atoms: C_7  and  C_8
REMARK    9  A    between atoms: C_8  and  O_10
REMARK   10  A    between atoms: S_11  and  C_14
REMARK                            x       y       z     vdW  Elec       q    Type
REMARK                         _______ _______ _______ _____ _____    ______ ____
ROOT
ATOM      1  N   UNL     1       4.884   4.950  17.361  0.00  0.00    +0.000 NA
ENDROOT
BRANCH   1   2
ATOM      2  S   UNL     1       4.868   4.395  19.026  0.00  0.00    +0.000 S 
ATOM      3  O   UNL     1       5.689   3.205  19.054  0.00  0.00    +0.000 OA
ATOM      4  O   UNL     1       5.166   5.538  19.858  0.00  0.00    +0.000 OA
BRANCH   2   5
ATOM      5  C   UNL     1       3.191   3.895  19.344  0.00  0.00    +0.000 A 
ATOM      6  C   UNL     1       2.664   2.772  18.701  0.00  0.00    +0.000 A 
ATOM      7  C   UNL     1       1.353   2.376  18.972  0.00  0.00    +0.000 A 
ATOM      8  C   UNL     1       0.579   3.090  19.891  0.00  0.00    +0.000 A 
ATOM      9  C   UNL     1       1.121   4.187  20.562  0.00  0.00    +0.000 A 
ATOM     10  C   UNL     1       2.433   4.586  20.298  0.00  0.00    +0.000 A 
ENDBRANCH   2   5
ENDBRANCH   1   2
BRANCH   1  11
ATOM     11  C   UNL     1       3.678   5.820  17.055  0.00  0.00    +0.000 C 
BRANCH  11  12
ATOM     12  C   UNL     1       3.881   7.300  17.398  0.00  0.00    +0.000 C 
BRANCH  12  13
ATOM     13  C   UNL     1       2.673   7.852  18.157  0.00  0.00    +0.000 C 
BRANCH  13  15
ATOM     14  C   UNL     1       1.050   9.571  18.074  0.00  0.00    +0.000 C 
ATOM     15  O   UNL     1       2.158   8.962  17.425  0.00  0.00    +0.000 OA
ENDBRANCH  13  15
ENDBRANCH  12  13
ENDBRANCH  11  12
ENDBRANCH   1  11
BRANCH   1  16
ATOM     16  C   UNL     1       6.159   5.739  17.101  0.00  0.00    +0.000 C 
BRANCH  16  17
ATOM     17  C   UNL     1       7.304   5.073  16.370  0.00  0.00    +0.000 C 
ATOM     18  O   UNL     1       7.531   5.241  15.182  0.00  0.00    +0.000 OA
BRANCH  17  19
ATOM     19  O   UNL     1       7.952   4.141  17.106  0.00  0.00    +0.000 OA
ATOM     20  H   UNL     1       7.730   4.233  18.055  0.00  0.00    +0.000 HD
ENDBRANCH  17  19
ENDBRANCH  16  17
ENDBRANCH   1  16
TORSDOF 9
ENDMDL
MODEL 5
REMARK VINA RESULT:      -6.0      2.051      4.382
REMARK  Name = 
REMARK  10 active torsions:
REMARK  status: ('A' for Active; 'I' for Inactive)
REMARK    1  A    between atoms: C_1  and  O_2
REMARK    2  A    between atoms: O_2  and  C_3
REMARK    3  A    between atoms: C_3  and  C_4
REMARK    4  A    between atoms: C_4  and  C_5
REMARK    5  A    between atoms: C_5  and  N_6
REMARK    6  A    between atoms: N_6  and  C_7
REMARK    7  A    between atoms: N_6  and  S_11
REMARK    8  A    between atoms: C_7  and  C_8
REMARK    9  A    between atoms: C_8  and  O_10
REMARK   10  A    between atoms: S_11  and  C_14
REMARK                            x       y       z     vdW  Elec       q    Type
REMARK                         _______ _______ _______ _____ _____    ______ ____
ROOT
ATOM      1  N   UNL     1       5.606   4.378  17.629  0.00  0.00    +0.000 NA
ENDROOT
BRANCH   1   2
ATOM      2  S   UNL     1       4.579   5.470  18.542  0.00  0.00    +0.000 S 
ATOM      3  O   UNL     1       5.300   5.764  19.760  0.00  0.00    +0.000 OA
ATOM      4  O   UNL     1       4.163   6.518  17.639  0.00  0.00    +0.000 OA
BRANCH   2   5
ATOM      5  C   UNL     1       3.146   4.514  18.986  0.00  0.00    +0.000 A 
ATOM      6  C   UNL     1       2.670   4.540  20.299  0.00  0.00    +0.000 A 
ATOM      7  C   UNL     1       1.533   3.801  20.632  0.00  0.00    +0.000 A 
ATOM      8  C   UNL     1       0.868   3.054  19.655  0.00  0.00    +0.000 A 
ATOM      9  C   UNL     1       1.322   3.063  18.336  0.00  0.00    +0.000 A 
ATOM     10  C   UNL     1       2.457   3.802  17.995  0.00  0.00    +0.000 A 
ENDBRANCH   2   5
ENDBRANCH   1   2
BRANCH   1  11
ATOM     11  C   UNL     1       5.343   4.485  16.138  0.00  0.00    +0.000 C 
BRANCH  11  12
ATOM     12  C   UNL     1       6.293   3.642  15.280  0.00  0.00    +0.000 C 
BRANCH  12  13
ATOM     13  C   UNL     1       6.410   4.221  13.870  0.00  0.00    +0.000 C 
BRANCH  13  15
ATOM     14  C   UNL     1       5.430   3.167  11.991  0.00  0.00    +0.000 C 
ATOM     15  O   UNL     1       5.202   3.930  13.169  0.00  0.00    +0.000 OA
ENDBRANCH  13  15
ENDBRANCH  12  13
ENDBRANCH  11  12
ENDBRANCH   1  11
BRANCH   1  16
ATOM     16  C   UNL     1       7.067   4.699  17.911  0.00  0.00    +0.000 C 
BRANCH  16  17
ATOM     17  C   UNL     1       7.552   6.124  17.761  0.00  0.00    +0.000 C 
ATOM     18  O   UNL     1       7.580   6.715  16.693  0.00  0.00    +0.000 OA
BRANCH  17  19
ATOM     19  O   UNL     1       8.112   6.631  18.883  0.00  0.00    +0.000 OA
ATOM     20  H   UNL     1       8.938   7.112  18.671  0.00  0.00    +0.000 HD
ENDBRANCH  17  19
ENDBRANCH  16  17
ENDBRANCH   1  16
TORSDOF 9
ENDMDL
MODEL 6
REMARK VINA RESULT:      -6.0      2.363      4.420
REMARK  Name = 
REMARK  10 active torsions:
REMARK  status: ('A' for Active; 'I' for Inactive)
REMARK    1  A    between atoms: C_1  and  O_2
REMARK    2  A    between atoms: O_2  and  C_3
REMARK    3  A    between atoms: C_3  and  C_4
REMARK    4  A    between atoms: C_4  and  C_5
REMARK    5  A    between atoms: C_5  and  N_6
REMARK    6  A    between atoms: N_6  and  C_7
REMARK    7  A    between atoms: N_6  and  S_11
REMARK    8  A    between atoms: C_7  and  C_8
REMARK    9  A    between atoms: C_8  and  O_10
REMARK   10  A    between atoms: S_11  and  C_14
REMARK                            x       y       z     vdW  Elec       q    Type
REMARK                         _______ _______ _______ _____ _____    ______ ____
ROOT
ATOM      1  N   UNL     1       5.195   4.175  17.706  0.00  0.00    +0.000 NA
ENDROOT
BRANCH   1   2
ATOM      2  S   UNL     1       3.477   4.537  17.700  0.00  0.00    +0.000 S 
ATOM      3  O   UNL     1       3.377   5.978  17.758  0.00  0.00    +0.000 OA
ATOM      4  O   UNL     1       2.887   3.782  16.619  0.00  0.00    +0.000 OA
BRANCH   2   5
ATOM      5  C   UNL     1       2.852   3.896  19.237  0.00  0.00    +0.000 A 
ATOM      6  C   UNL     1       1.565   4.235  19.663  0.00  0.00    +0.000 A 
ATOM      7  C   UNL     1       1.077   3.711  20.861  0.00  0.00    +0.000 A 
ATOM      8  C   UNL     1       1.864   2.840  21.620  0.00  0.00    +0.000 A 
ATOM      9  C   UNL     1       3.132   2.470  21.172  0.00  0.00    +0.000 A 
ATOM     10  C   UNL     1       3.626   2.989  19.973  0.00  0.00    +0.000 A 
ENDBRANCH   2   5
ENDBRANCH   1   2
BRANCH   1  11
ATOM     11  C   UNL     1       5.703   3.875  16.308  0.00  0.00    +0.000 C 
BRANCH  11  12
ATOM     12  C   UNL     1       5.973   5.127  15.466  0.00  0.00    +0.000 C 
BRANCH  12  13
ATOM     13  C   UNL     1       6.746   4.771  14.196  0.00  0.00    +0.000 C 
BRANCH  13  15
ATOM     14  C   UNL     1       6.464   3.488  12.228  0.00  0.00    +0.000 C 
ATOM     15  O   UNL     1       6.122   3.635  13.599  0.00  0.00    +0.000 OA
ENDBRANCH  13  15
ENDBRANCH  12  13
ENDBRANCH  11  12
ENDBRANCH   1  11
BRANCH   1  16
ATOM     16  C   UNL     1       5.961   5.357  18.282  0.00  0.00    +0.000 C 
BRANCH  16  17
ATOM     17  C   UNL     1       7.345   5.133  18.851  0.00  0.00    +0.000 C 
ATOM     18  O   UNL     1       8.203   4.469  18.289  0.00  0.00    +0.000 OA
BRANCH  17  19
ATOM     19  O   UNL     1       7.495   5.587  20.117  0.00  0.00    +0.000 OA
ATOM     20  H   UNL     1       8.216   6.248  20.164  0.00  0.00    +0.000 HD
ENDBRANCH  17  19
ENDBRANCH  16  17
ENDBRANCH   1  16
TORSDOF 9
ENDMDL
MODEL 7
REMARK VINA RESULT:      -6.0      2.955      5.768
REMARK  Name = 
REMARK  10 active torsions:
REMARK  status: ('A' for Active; 'I' for Inactive)
REMARK    1  A    between atoms: C_1  and  O_2
REMARK    2  A    between atoms: O_2  and  C_3
REMARK    3  A    between atoms: C_3  and  C_4
REMARK    4  A    between atoms: C_4  and  C_5
REMARK    5  A    between atoms: C_5  and  N_6
REMARK    6  A    between atoms: N_6  and  C_7
REMARK    7  A    between atoms: N_6  and  S_11
REMARK    8  A    between atoms: C_7  and  C_8
REMARK    9  A    between atoms: C_8  and  O_10
REMARK   10  A    between atoms: S_11  and  C_14
REMARK                            x       y       z     vdW  Elec       q    Type
REMARK                         _______ _______ _______ _____ _____    ______ ____
ROOT
ATOM      1  N   UNL     1       2.826   4.409  18.826  0.00  0.00    +0.000 NA
ENDROOT
BRANCH   1   2
ATOM      2  S   UNL     1       3.420   3.200  17.700  0.00  0.00    +0.000 S 
ATOM      3  O   UNL     1       3.812   2.067  18.507  0.00  0.00    +0.000 OA
ATOM      4  O   UNL     1       2.434   3.076  16.650  0.00  0.00    +0.000 OA
BRANCH   2   5
ATOM      5  C   UNL     1       4.900   3.893  16.997  0.00  0.00    +0.000 A 
ATOM      6  C   UNL     1       4.988   4.096  15.618  0.00  0.00    +0.000 A 
ATOM      7  C   UNL     1       6.146   4.659  15.078  0.00  0.00    +0.000 A 
ATOM      8  C   UNL     1       7.203   5.031  15.915  0.00  0.00    +0.000 A 
ATOM      9  C   UNL     1       7.095   4.865  17.296  0.00  0.00    +0.000 A 
ATOM     10  C   UNL     1       5.938   4.305  17.843  0.00  0.00    +0.000 A 
ENDBRANCH   2   5
ENDBRANCH   1   2
BRANCH   1  11
ATOM     11  C   UNL     1       2.137   5.551  18.101  0.00  0.00    +0.000 C 
BRANCH  11  12
ATOM     12  C   UNL     1       2.943   6.855  18.095  0.00  0.00    +0.000 C 
BRANCH  12  13
ATOM     13  C   UNL     1       2.207   7.951  18.867  0.00  0.00    +0.000 C 
BRANCH  13  15
ATOM     14  C   UNL     1       1.228   8.405  20.972  0.00  0.00    +0.000 C 
ATOM     15  O   UNL     1       1.993   7.490  20.199  0.00  0.00    +0.000 OA
ENDBRANCH  13  15
ENDBRANCH  12  13
ENDBRANCH  11  12
ENDBRANCH   1  11
BRANCH   1  16
ATOM     16  C   UNL     1       1.850   3.761  19.797  0.00  0.00    +0.000 C 
BRANCH  16  17
ATOM     17  C   UNL     1       2.109   3.865  21.284  0.00  0.00    +0.000 C 
ATOM     18  O   UNL     1       1.826   2.981  22.079  0.00  0.00    +0.000 OA
BRANCH  17  19
ATOM     19  O   UNL     1       2.525   5.090  21.682  0.00  0.00    +0.000 OA
ATOM     20  H   UNL     1       1.822   5.756  21.542  0.00  0.00    +0.000 HD
ENDBRANCH  17  19
ENDBRANCH  16  17
ENDBRANCH   1  16
TORSDOF 9
ENDMDL
MODEL 8
REMARK VINA RESULT:      -6.0      2.010      3.922
REMARK  Name = 
REMARK  10 active torsions:
REMARK  status: ('A' for Active; 'I' for Inactive)
REMARK    1  A    between atoms: C_1  and  O_2
REMARK    2  A    between atoms: O_2  and  C_3
REMARK    3  A    between atoms: C_3  and  C_4
REMARK    4  A    between atoms: C_4  and  C_5
REMARK    5  A    between atoms: C_5  and  N_6
REMARK    6  A    between atoms: N_6  and  C_7
REMARK    7  A    between atoms: N_6  and  S_11
REMARK    8  A    between atoms: C_7  and  C_8
REMARK    9  A    between atoms: C_8  and  O_10
REMARK   10  A    between atoms: S_11  and  C_14
REMARK                            x       y       z     vdW  Elec       q    Type
REMARK                         _______ _______ _______ _____ _____    ______ ____
ROOT
ATOM      1  N   UNL     1       5.198   3.967  16.839  0.00  0.00    +0.000 NA
ENDROOT
BRANCH   1   2
ATOM      2  S   UNL     1       5.689   5.009  18.165  0.00  0.00    +0.000 S 
ATOM      3  O   UNL     1       5.828   4.145  19.315  0.00  0.00    +0.000 OA
ATOM      4  O   UNL     1       6.789   5.814  17.687  0.00  0.00    +0.000 OA
BRANCH   2   5
ATOM      5  C   UNL     1       4.301   6.081  18.465  0.00  0.00    +0.000 A 
ATOM      6  C   UNL     1       4.013   7.116  17.572  0.00  0.00    +0.000 A 
ATOM      7  C   UNL     1       2.911   7.939  17.806  0.00  0.00    +0.000 A 
ATOM      8  C   UNL     1       2.092   7.719  18.918  0.00  0.00    +0.000 A 
ATOM      9  C   UNL     1       2.358   6.659  19.785  0.00  0.00    +0.000 A 
ATOM     10  C   UNL     1       3.458   5.829  19.555  0.00  0.00    +0.000 A 
ENDBRANCH   2   5
ENDBRANCH   1   2
BRANCH   1  11
ATOM     11  C   UNL     1       3.759   3.509  16.998  0.00  0.00    +0.000 C 
BRANCH  11  12
ATOM     12  C   UNL     1       3.619   2.117  17.622  0.00  0.00    +0.000 C 
BRANCH  12  13
ATOM     13  C   UNL     1       2.876   2.193  18.957  0.00  0.00    +0.000 C 
BRANCH  13  15
ATOM     14  C   UNL     1       0.850   3.103  19.773  0.00  0.00    +0.000 C 
ATOM     15  O   UNL     1       1.501   2.460  18.685  0.00  0.00    +0.000 OA
ENDBRANCH  13  15
ENDBRANCH  12  13
ENDBRANCH  11  12
ENDBRANCH   1  11
BRANCH   1  16
ATOM     16  C   UNL     1       5.350   4.714  15.523  0.00  0.00    +0.000 C 
BRANCH  16  17
ATOM     17  C   UNL     1       6.547   4.425  14.644  0.00  0.00    +0.000 C 
ATOM     18  O   UNL     1       7.512   5.169  14.556  0.00  0.00    +0.000 OA
BRANCH  17  19
ATOM     19  O   UNL     1       6.383   3.355  13.832  0.00  0.00    +0.000 OA
ATOM     20  H   UNL     1       6.219   2.545  14.355  0.00  0.00    +0.000 HD
ENDBRANCH  17  19
ENDBRANCH  16  17
ENDBRANCH   1  16
TORSDOF 9
ENDMDL
MODEL 9
REMARK VINA RESULT:      -6.0      2.064      4.311
REMARK  Name = 
REMARK  10 active torsions:
REMARK  status: ('A' for Active; 'I' for Inactive)
REMARK    1  A    between atoms: C_1  and  O_2
REMARK    2  A    between atoms: O_2  and  C_3
REMARK    3  A    between atoms: C_3  and  C_4
REMARK    4  A    between atoms: C_4  and  C_5
REMARK    5  A    between atoms: C_5  and  N_6
REMARK    6  A    between atoms: N_6  and  C_7
REMARK    7  A    between atoms: N_6  and  S_11
REMARK    8  A    between atoms: C_7  and  C_8
REMARK    9  A    between atoms: C_8  and  O_10
REMARK   10  A    between atoms: S_11  and  C_14
REMARK                            x       y       z     vdW  Elec       q    Type
REMARK                         _______ _______ _______ _____ _____    ______ ____
ROOT
ATOM      1  N   UNL     1       5.679   4.545  18.185  0.00  0.00    +0.000 NA
ENDROOT
BRANCH   1   2
ATOM      2  S   UNL     1       3.989   4.620  17.715  0.00  0.00    +0.000 S 
ATOM      3  O   UNL     1       3.685   6.024  17.558  0.00  0.00    +0.000 OA
ATOM      4  O   UNL     1       3.807   3.681  16.632  0.00  0.00    +0.000 OA
BRANCH   2   5
ATOM      5  C   UNL     1       3.079   4.030  19.125  0.00  0.00    +0.000 A 
ATOM      6  C   UNL     1       3.636   3.057  19.958  0.00  0.00    +0.000 A 
ATOM      7  C   UNL     1       2.922   2.615  21.073  0.00  0.00    +0.000 A 
ATOM      8  C   UNL     1       1.664   3.153  21.361  0.00  0.00    +0.000 A 
ATOM      9  C   UNL     1       1.128   4.154  20.550  0.00  0.00    +0.000 A 
ATOM     10  C   UNL     1       1.839   4.604  19.435  0.00  0.00    +0.000 A 
ENDBRANCH   2   5
ENDBRANCH   1   2
BRANCH   1  11
ATOM     11  C   UNL     1       6.574   4.250  16.994  0.00  0.00    +0.000 C 
BRANCH  11  12
ATOM     12  C   UNL     1       6.571   5.354  15.931  0.00  0.00    +0.000 C 
BRANCH  12  13
ATOM     13  C   UNL     1       6.971   4.794  14.565  0.00  0.00    +0.000 C 
BRANCH  13  15
ATOM     14  C   UNL     1       6.113   3.557  12.740  0.00  0.00    +0.000 C 
ATOM     15  O   UNL     1       5.821   4.183  13.982  0.00  0.00    +0.000 OA
ENDBRANCH  13  15
ENDBRANCH  12  13
ENDBRANCH  11  12
ENDBRANCH   1  11
BRANCH   1  16
ATOM     16  C   UNL     1       6.091   5.868  18.813  0.00  0.00    +0.000 C 
BRANCH  16  17
ATOM     17  C   UNL     1       7.511   6.041  19.308  0.00  0.00    +0.000 C 
ATOM     18  O   UNL     1       8.344   6.723  18.732  0.00  0.00    +0.000 OA
BRANCH  17  19
ATOM     19  O   UNL     1       7.827   5.238  20.350  0.00  0.00    +0.000 OA
ATOM     20  H   UNL     1       8.753   4.928  20.279  0.00  0.00    +0.000 HD
ENDBRANCH  17  19
ENDBRANCH  16  17
ENDBRANCH   1  16
TORSDOF 9
ENDMDL
