MODEL 1
REMARK VINA RESULT:      -7.5      0.000      0.000
REMARK  Name = 
REMARK  12 active torsions:
REMARK  status: ('A' for Active; 'I' for Inactive)
REMARK    1  A    between atoms: C_1  and  C_2
REMARK    2  A    between atoms: C_2  and  S_3
REMARK    3  A    between atoms: S_3  and  C_4
REMARK    4  A    between atoms: C_4  and  C_5
REMARK    5  A    between atoms: C_5  and  C_6
REMARK    6  A    between atoms: C_6  and  N_7
REMARK    7  A    between atoms: C_6  and  C_8
REMARK    8  A    between atoms: C_8  and  O_9
REMARK    9  A    between atoms: C_8  and  C_10
REMARK   10  A    between atoms: N_12  and  C_13
REMARK   11  A    between atoms: N_12  and  C_14
REMARK   12  A    between atoms: C_14  and  C_15
REMARK                            x       y       z     vdW  Elec       q    Type
REMARK                         _______ _______ _______ _____ _____    ______ ____
ROOT
ATOM      1  C   UNL     1       6.780   4.769  16.244  0.00  0.00    +0.000 C 
ATOM      2  O   UNL     1       7.603   5.251  15.460  0.00  0.00    +0.000 OA
ATOM      3  N   UNL     1       5.475   4.489  15.844  0.00  0.00    +0.000 N 
ATOM      4  C   UNL     1       5.071   4.764  14.470  0.00  0.00    +0.000 C 
ENDROOT
BRANCH   1   5
ATOM      5  C   UNL     1       7.168   4.461  17.719  0.00  0.00    +0.000 C 
BRANCH   5   6
ATOM      6  O   UNL     1       8.495   3.945  17.759  0.00  0.00    +0.000 OA
ATOM      7  H   UNL     1       8.490   3.080  17.312  0.00  0.00    +0.000 HD
ENDBRANCH   5   6
BRANCH   5   8
ATOM      8  C   UNL     1       7.053   5.687  18.669  0.00  0.00    +0.000 C 
BRANCH   8   9
ATOM      9  N   UNL     1       8.091   5.704  19.718  0.00  0.00    +0.000 NA
ATOM     10  H   UNL     1       7.867   6.401  20.428  0.00  0.00    +0.000 HD
ATOM     11  H   UNL     1       8.972   6.016  19.291  0.00  0.00    +0.000 HD
ENDBRANCH   8   9
BRANCH   8  12
ATOM     12  C   UNL     1       7.151   7.050  17.935  0.00  0.00    +0.000 C 
BRANCH  12  13
ATOM     13  C   UNL     1       8.442   7.828  18.194  0.00  0.00    +0.000 C 
BRANCH  13  14
ATOM     14  S   UNL     1       8.175   9.619  17.987  0.00  0.00    +0.000 S 
BRANCH  14  16
ATOM     15  C   UNL     1       9.801  11.574  19.004  0.00  0.00    +0.000 C 
ATOM     16  C   UNL     1       9.253  10.199  19.334  0.00  0.00    +0.000 C 
ENDBRANCH  14  16
ENDBRANCH  13  14
ENDBRANCH  12  13
ENDBRANCH   8  12
ENDBRANCH   5   8
ENDBRANCH   1   5
BRANCH   3  17
ATOM     17  C   UNL     1       4.486   3.815  16.690  0.00  0.00    +0.000 C 
BRANCH  17  18
ATOM     18  C   UNL     1       3.642   4.732  17.563  0.00  0.00    +0.000 A 
ATOM     19  C   UNL     1       3.706   6.133  17.427  0.00  0.00    +0.000 A 
ATOM     20  C   UNL     1       2.989   6.975  18.265  0.00  0.00    +0.000 A 
ATOM     21  C   UNL     1       2.208   6.432  19.277  0.00  0.00    +0.000 A 
ATOM     22  C   UNL     1       2.100   5.044  19.437  0.00  0.00    +0.000 A 
ATOM     23  C   UNL     1       1.314   4.518  20.473  0.00  0.00    +0.000 A 
ATOM     24  C   UNL     1       1.158   3.142  20.630  0.00  0.00    +0.000 A 
ATOM     25  C   UNL     1       1.766   2.274  19.736  0.00  0.00    +0.000 A 
ATOM     26  C   UNL     1       2.570   2.782  18.713  0.00  0.00    +0.000 A 
ATOM     27  C   UNL     1       2.783   4.171  18.552  0.00  0.00    +0.000 A 
ENDBRANCH  17  18
ENDBRANCH   3  17
TORSDOF 10
ENDMDL
MODEL 2
REMARK VINA RESULT:      -7.4      3.185      5.431
REMARK  Name = 
REMARK  12 active torsions:
REMARK  status: ('A' for Active; 'I' for Inactive)
REMARK    1  A    between atoms: C_1  and  C_2
REMARK    2  A    between atoms: C_2  and  S_3
REMARK    3  A    between atoms: S_3  and  C_4
REMARK    4  A    between atoms: C_4  and  C_5
REMARK    5  A    between atoms: C_5  and  C_6
REMARK    6  A    between atoms: C_6  and  N_7
REMARK    7  A    between atoms: C_6  and  C_8
REMARK    8  A    between atoms: C_8  and  O_9
REMARK    9  A    between atoms: C_8  and  C_10
REMARK   10  A    between atoms: N_12  and  C_13
REMARK   11  A    between atoms: N_12  and  C_14
REMARK   12  A    between atoms: C_14  and  C_15
REMARK                            x       y       z     vdW  Elec       q    Type
REMARK                         _______ _______ _______ _____ _____    ______ ____
ROOT
ATOM      1  C   UNL     1       6.899   4.998  17.111  0.00  0.00    +0.000 C 
ATOM      2  O   UNL     1       7.986   4.618  17.554  0.00  0.00    +0.000 OA
ATOM      3  N   UNL     1       5.846   5.331  17.961  0.00  0.00    +0.000 N 
ATOM      4  C   UNL     1       6.030   5.235  19.404  0.00  0.00    +0.000 C 
ENDROOT
BRANCH   1   5
ATOM      5  C   UNL     1       6.658   5.114  15.578  0.00  0.00    +0.000 C 
BRANCH   5   6
ATOM      6  O   UNL     1       7.784   5.740  14.970  0.00  0.00    +0.000 OA
ATOM      7  H   UNL     1       7.697   6.700  15.105  0.00  0.00    +0.000 HD
ENDBRANCH   5   6
BRANCH   5   8
ATOM      8  C   UNL     1       6.375   3.752  14.881  0.00  0.00    +0.000 C 
BRANCH   8   9
ATOM      9  N   UNL     1       5.641   2.805  15.743  0.00  0.00    +0.000 NA
ATOM     10  H   UNL     1       6.287   2.145  16.175  0.00  0.00    +0.000 HD
ATOM     11  H   UNL     1       5.026   2.240  15.145  0.00  0.00    +0.000 HD
ENDBRANCH   8   9
BRANCH   8  12
ATOM     12  C   UNL     1       5.549   3.885  13.575  0.00  0.00    +0.000 C 
BRANCH  12  13
ATOM     13  C   UNL     1       6.275   3.433  12.307  0.00  0.00    +0.000 C 
BRANCH  13  14
ATOM     14  S   UNL     1       5.290   2.199  11.397  0.00  0.00    +0.000 S 
BRANCH  14  16
ATOM     15  C   UNL     1       6.105  -0.414  11.294  0.00  0.00    +0.000 C 
ATOM     16  C   UNL     1       6.617   0.997  11.073  0.00  0.00    +0.000 C 
ENDBRANCH  14  16
ENDBRANCH  13  14
ENDBRANCH  12  13
ENDBRANCH   8  12
ENDBRANCH   5   8
ENDBRANCH   1   5
BRANCH   3  17
ATOM     17  C   UNL     1       4.572   5.895  17.504  0.00  0.00    +0.000 C 
BRANCH  17  18
ATOM     18  C   UNL     1       3.416   5.772  18.486  0.00  0.00    +0.000 A 
ATOM     19  C   UNL     1       3.066   6.838  19.339  0.00  0.00    +0.000 A 
ATOM     20  C   UNL     1       2.056   6.708  20.283  0.00  0.00    +0.000 A 
ATOM     21  C   UNL     1       1.388   5.497  20.409  0.00  0.00    +0.000 A 
ATOM     22  C   UNL     1       1.690   4.417  19.567  0.00  0.00    +0.000 A 
ATOM     23  C   UNL     1       1.011   3.199  19.721  0.00  0.00    +0.000 A 
ATOM     24  C   UNL     1       1.263   2.122  18.874  0.00  0.00    +0.000 A 
ATOM     25  C   UNL     1       2.183   2.258  17.845  0.00  0.00    +0.000 A 
ATOM     26  C   UNL     1       2.884   3.456  17.693  0.00  0.00    +0.000 A 
ATOM     27  C   UNL     1       2.682   4.553  18.563  0.00  0.00    +0.000 A 
ENDBRANCH  17  18
ENDBRANCH   3  17
TORSDOF 10
ENDMDL
MODEL 3
REMARK VINA RESULT:      -7.2      2.821      4.626
REMARK  Name = 
REMARK  12 active torsions:
REMARK  status: ('A' for Active; 'I' for Inactive)
REMARK    1  A    between atoms: C_1  and  C_2
REMARK    2  A    between atoms: C_2  and  S_3
REMARK    3  A    between atoms: S_3  and  C_4
REMARK    4  A    between atoms: C_4  and  C_5
REMARK    5  A    between atoms: C_5  and  C_6
REMARK    6  A    between atoms: C_6  and  N_7
REMARK    7  A    between atoms: C_6  and  C_8
REMARK    8  A    between atoms: C_8  and  O_9
REMARK    9  A    between atoms: C_8  and  C_10
REMARK   10  A    between atoms: N_12  and  C_13
REMARK   11  A    between atoms: N_12  and  C_14
REMARK   12  A    between atoms: C_14  and  C_15
REMARK                            x       y       z     vdW  Elec       q    Type
REMARK                         _______ _______ _______ _____ _____    ______ ____
ROOT
ATOM      1  C   UNL     1       3.064   3.511  19.158  0.00  0.00    +0.000 C 
ATOM      2  O   UNL     1       2.585   2.411  18.866  0.00  0.00    +0.000 OA
ATOM      3  N   UNL     1       2.308   4.479  19.817  0.00  0.00    +0.000 N 
ATOM      4  C   UNL     1       0.924   4.188  20.175  0.00  0.00    +0.000 C 
ENDROOT
BRANCH   1   5
ATOM      5  C   UNL     1       4.535   3.864  18.794  0.00  0.00    +0.000 C 
BRANCH   5   6
ATOM      6  O   UNL     1       5.414   2.957  19.454  0.00  0.00    +0.000 OA
ATOM      7  H   UNL     1       6.229   2.898  18.924  0.00  0.00    +0.000 HD
ENDBRANCH   5   6
BRANCH   5   8
ATOM      8  C   UNL     1       4.824   3.856  17.265  0.00  0.00    +0.000 C 
BRANCH   8   9
ATOM      9  N   UNL     1       3.599   3.756  16.448  0.00  0.00    +0.000 NA
ATOM     10  H   UNL     1       3.776   3.204  15.609  0.00  0.00    +0.000 HD
ATOM     11  H   UNL     1       3.360   4.699  16.114  0.00  0.00    +0.000 HD
ENDBRANCH   8   9
BRANCH   8  12
ATOM     12  C   UNL     1       5.578   5.118  16.772  0.00  0.00    +0.000 C 
BRANCH  12  13
ATOM     13  C   UNL     1       7.081   5.120  17.054  0.00  0.00    +0.000 C 
BRANCH  13  14
ATOM     14  S   UNL     1       7.489   6.281  18.398  0.00  0.00    +0.000 S 
BRANCH  14  16
ATOM     15  C   UNL     1       8.332   8.873  18.122  0.00  0.00    +0.000 C 
ATOM     16  C   UNL     1       7.501   7.816  17.419  0.00  0.00    +0.000 C 
ENDBRANCH  14  16
ENDBRANCH  13  14
ENDBRANCH  12  13
ENDBRANCH   8  12
ENDBRANCH   5   8
ENDBRANCH   1   5
BRANCH   3  17
ATOM     17  C   UNL     1       2.847   5.757  20.291  0.00  0.00    +0.000 C 
BRANCH  17  18
ATOM     18  C   UNL     1       2.420   6.981  19.494  0.00  0.00    +0.000 A 
ATOM     19  C   UNL     1       2.820   7.157  18.155  0.00  0.00    +0.000 A 
ATOM     20  C   UNL     1       2.488   8.303  17.445  0.00  0.00    +0.000 A 
ATOM     21  C   UNL     1       1.767   9.312  18.071  0.00  0.00    +0.000 A 
ATOM     22  C   UNL     1       1.333   9.170  19.396  0.00  0.00    +0.000 A 
ATOM     23  C   UNL     1       0.616  10.207  20.012  0.00  0.00    +0.000 A 
ATOM     24  C   UNL     1       0.139  10.078  21.315  0.00  0.00    +0.000 A 
ATOM     25  C   UNL     1       0.351   8.897  22.010  0.00  0.00    +0.000 A 
ATOM     26  C   UNL     1       1.082   7.864  21.419  0.00  0.00    +0.000 A 
ATOM     27  C   UNL     1       1.617   7.982  20.115  0.00  0.00    +0.000 A 
ENDBRANCH  17  18
ENDBRANCH   3  17
TORSDOF 10
ENDMDL
MODEL 4
REMARK VINA RESULT:      -7.1      3.554      5.658
REMARK  Name = 
REMARK  12 active torsions:
REMARK  status: ('A' for Active; 'I' for Inactive)
REMARK    1  A    between atoms: C_1  and  C_2
REMARK    2  A    between atoms: C_2  and  S_3
REMARK    3  A    between atoms: S_3  and  C_4
REMARK    4  A    between atoms: C_4  and  C_5
REMARK    5  A    between atoms: C_5  and  C_6
REMARK    6  A    between atoms: C_6  and  N_7
REMARK    7  A    between atoms: C_6  and  C_8
REMARK    8  A    between atoms: C_8  and  O_9
REMARK    9  A    between atoms: C_8  and  C_10
REMARK   10  A    between atoms: N_12  and  C_13
REMARK   11  A    between atoms: N_12  and  C_14
REMARK   12  A    between atoms: C_14  and  C_15
REMARK                            x       y       z     vdW  Elec       q    Type
REMARK                         _______ _______ _______ _____ _____    ______ ____
ROOT
ATOM      1  C   UNL     1       2.784   3.272  19.449  0.00  0.00    +0.000 C 
ATOM      2  O   UNL     1       2.194   2.210  19.234  0.00  0.00    +0.000 OA
ATOM      3  N   UNL     1       2.124   4.370  19.999  0.00  0.00    +0.000 N 
ATOM      4  C   UNL     1       0.709   4.263  20.334  0.00  0.00    +0.000 C 
ENDROOT
BRANCH   1   5
ATOM      5  C   UNL     1       4.294   3.431  19.106  0.00  0.00    +0.000 C 
BRANCH   5   6
ATOM      6  O   UNL     1       5.038   2.416  19.773  0.00  0.00    +0.000 OA
ATOM      7  H   UNL     1       4.566   2.197  20.596  0.00  0.00    +0.000 HD
ENDBRANCH   5   6
BRANCH   5   8
ATOM      8  C   UNL     1       4.599   3.390  17.581  0.00  0.00    +0.000 C 
BRANCH   8   9
ATOM      9  N   UNL     1       3.421   3.698  16.748  0.00  0.00    +0.000 NA
ATOM     10  H   UNL     1       2.578   3.307  17.168  0.00  0.00    +0.000 HD
ATOM     11  H   UNL     1       3.532   3.216  15.847  0.00  0.00    +0.000 HD
ENDBRANCH   8   9
BRANCH   8  12
ATOM     12  C   UNL     1       5.713   4.379  17.146  0.00  0.00    +0.000 C 
BRANCH  12  13
ATOM     13  C   UNL     1       5.427   5.141  15.852  0.00  0.00    +0.000 C 
BRANCH  13  14
ATOM     14  S   UNL     1       6.636   4.706  14.559  0.00  0.00    +0.000 S 
BRANCH  14  16
ATOM     15  C   UNL     1       6.225   3.270  12.263  0.00  0.00    +0.000 C 
ATOM     16  C   UNL     1       5.471   4.045  13.327  0.00  0.00    +0.000 C 
ENDBRANCH  14  16
ENDBRANCH  13  14
ENDBRANCH  12  13
ENDBRANCH   8  12
ENDBRANCH   5   8
ENDBRANCH   1   5
BRANCH   3  17
ATOM     17  C   UNL     1       2.790   5.618  20.382  0.00  0.00    +0.000 C 
BRANCH  17  18
ATOM     18  C   UNL     1       2.462   6.825  19.516  0.00  0.00    +0.000 A 
ATOM     19  C   UNL     1       2.946   6.929  18.196  0.00  0.00    +0.000 A 
ATOM     20  C   UNL     1       2.706   8.058  17.424  0.00  0.00    +0.000 A 
ATOM     21  C   UNL     1       1.995   9.120  17.967  0.00  0.00    +0.000 A 
ATOM     22  C   UNL     1       1.478   9.051  19.269  0.00  0.00    +0.000 A 
ATOM     23  C   UNL     1       0.773  10.141  19.800  0.00  0.00    +0.000 A 
ATOM     24  C   UNL     1       0.216  10.084  21.076  0.00  0.00    +0.000 A 
ATOM     25  C   UNL     1       0.337   8.925  21.828  0.00  0.00    +0.000 A 
ATOM     26  C   UNL     1       1.055   7.840  21.322  0.00  0.00    +0.000 A 
ATOM     27  C   UNL     1       1.669   7.882  20.048  0.00  0.00    +0.000 A 
ENDBRANCH  17  18
ENDBRANCH   3  17
TORSDOF 10
ENDMDL
MODEL 5
REMARK VINA RESULT:      -7.0      2.938      5.137
REMARK  Name = 
REMARK  12 active torsions:
REMARK  status: ('A' for Active; 'I' for Inactive)
REMARK    1  A    between atoms: C_1  and  C_2
REMARK    2  A    between atoms: C_2  and  S_3
REMARK    3  A    between atoms: S_3  and  C_4
REMARK    4  A    between atoms: C_4  and  C_5
REMARK    5  A    between atoms: C_5  and  C_6
REMARK    6  A    between atoms: C_6  and  N_7
REMARK    7  A    between atoms: C_6  and  C_8
REMARK    8  A    between atoms: C_8  and  O_9
REMARK    9  A    between atoms: C_8  and  C_10
REMARK   10  A    between atoms: N_12  and  C_13
REMARK   11  A    between atoms: N_12  and  C_14
REMARK   12  A    between atoms: C_14  and  C_15
REMARK                            x       y       z     vdW  Elec       q    Type
REMARK                         _______ _______ _______ _____ _____    ______ ____
ROOT
ATOM      1  C   UNL     1       2.730   3.334  19.397  0.00  0.00    +0.000 C 
ATOM      2  O   UNL     1       2.100   2.275  19.334  0.00  0.00    +0.000 OA
ATOM      3  N   UNL     1       2.232   4.433  20.094  0.00  0.00    +0.000 N 
ATOM      4  C   UNL     1       0.944   4.331  20.770  0.00  0.00    +0.000 C 
ENDROOT
BRANCH   1   5
ATOM      5  C   UNL     1       4.108   3.487  18.690  0.00  0.00    +0.000 C 
BRANCH   5   6
ATOM      6  O   UNL     1       5.056   2.628  19.317  0.00  0.00    +0.000 OA
ATOM      7  H   UNL     1       4.566   1.887  19.714  0.00  0.00    +0.000 HD
ENDBRANCH   5   6
BRANCH   5   8
ATOM      8  C   UNL     1       4.067   3.198  17.162  0.00  0.00    +0.000 C 
BRANCH   8   9
ATOM      9  N   UNL     1       2.700   2.960  16.657  0.00  0.00    +0.000 NA
ATOM     10  H   UNL     1       2.068   3.686  16.992  0.00  0.00    +0.000 HD
ATOM     11  H   UNL     1       2.357   2.082  17.066  0.00  0.00    +0.000 HD
ENDBRANCH   8   9
BRANCH   8  12
ATOM     12  C   UNL     1       4.660   4.342  16.300  0.00  0.00    +0.000 C 
BRANCH  12  13
ATOM     13  C   UNL     1       6.122   4.150  15.894  0.00  0.00    +0.000 C 
BRANCH  13  14
ATOM     14  S   UNL     1       7.150   5.532  16.492  0.00  0.00    +0.000 S 
BRANCH  14  16
ATOM     15  C   UNL     1       7.245   5.644  19.227  0.00  0.00    +0.000 C 
ATOM     16  C   UNL     1       7.697   4.787  18.060  0.00  0.00    +0.000 C 
ENDBRANCH  14  16
ENDBRANCH  13  14
ENDBRANCH  12  13
ENDBRANCH   8  12
ENDBRANCH   5   8
ENDBRANCH   1   5
BRANCH   3  17
ATOM     17  C   UNL     1       2.978   5.678  20.302  0.00  0.00    +0.000 C 
BRANCH  17  18
ATOM     18  C   UNL     1       2.540   6.852  19.439  0.00  0.00    +0.000 A 
ATOM     19  C   UNL     1       2.933   6.953  18.090  0.00  0.00    +0.000 A 
ATOM     20  C   UNL     1       2.592   8.055  17.317  0.00  0.00    +0.000 A 
ATOM     21  C   UNL     1       1.869   9.095  17.888  0.00  0.00    +0.000 A 
ATOM     22  C   UNL     1       1.442   9.027  19.222  0.00  0.00    +0.000 A 
ATOM     23  C   UNL     1       0.723  10.094  19.781  0.00  0.00    +0.000 A 
ATOM     24  C   UNL     1       0.252  10.037  21.092  0.00  0.00    +0.000 A 
ATOM     25  C   UNL     1       0.475   8.898  21.852  0.00  0.00    +0.000 A 
ATOM     26  C   UNL     1       1.208   7.838  21.317  0.00  0.00    +0.000 A 
ATOM     27  C   UNL     1       1.736   7.883  20.006  0.00  0.00    +0.000 A 
ENDBRANCH  17  18
ENDBRANCH   3  17
TORSDOF 10
ENDMDL
MODEL 6
REMARK VINA RESULT:      -7.0      3.125      5.297
REMARK  Name = 
REMARK  12 active torsions:
REMARK  status: ('A' for Active; 'I' for Inactive)
REMARK    1  A    between atoms: C_1  and  C_2
REMARK    2  A    between atoms: C_2  and  S_3
REMARK    3  A    between atoms: S_3  and  C_4
REMARK    4  A    between atoms: C_4  and  C_5
REMARK    5  A    between atoms: C_5  and  C_6
REMARK    6  A    between atoms: C_6  and  N_7
REMARK    7  A    between atoms: C_6  and  C_8
REMARK    8  A    between atoms: C_8  and  O_9
REMARK    9  A    between atoms: C_8  and  C_10
REMARK   10  A    between atoms: N_12  and  C_13
REMARK   11  A    between atoms: N_12  and  C_14
REMARK   12  A    between atoms: C_14  and  C_15
REMARK                            x       y       z     vdW  Elec       q    Type
REMARK                         _______ _______ _______ _____ _____    ______ ____
ROOT
ATOM      1  C   UNL     1       3.985   4.333  18.182  0.00  0.00    +0.000 C 
ATOM      2  O   UNL     1       3.909   3.331  17.465  0.00  0.00    +0.000 OA
ATOM      3  N   UNL     1       2.852   4.889  18.775  0.00  0.00    +0.000 N 
ATOM      4  C   UNL     1       1.550   4.273  18.550  0.00  0.00    +0.000 C 
ENDROOT
BRANCH   1   5
ATOM      5  C   UNL     1       5.354   5.023  18.448  0.00  0.00    +0.000 C 
BRANCH   5   6
ATOM      6  O   UNL     1       6.267   4.068  18.981  0.00  0.00    +0.000 OA
ATOM      7  H   UNL     1       7.119   4.186  18.523  0.00  0.00    +0.000 HD
ENDBRANCH   5   6
BRANCH   5   8
ATOM      8  C   UNL     1       5.974   5.696  17.190  0.00  0.00    +0.000 C 
BRANCH   8   9
ATOM      9  N   UNL     1       6.569   7.016  17.476  0.00  0.00    +0.000 NA
ATOM     10  H   UNL     1       5.859   7.745  17.418  0.00  0.00    +0.000 HD
ATOM     11  H   UNL     1       7.246   7.229  16.732  0.00  0.00    +0.000 HD
ENDBRANCH   8   9
BRANCH   8  12
ATOM     12  C   UNL     1       7.088   4.849  16.521  0.00  0.00    +0.000 C 
BRANCH  12  13
ATOM     13  C   UNL     1       7.095   4.888  14.992  0.00  0.00    +0.000 C 
BRANCH  13  14
ATOM     14  S   UNL     1       5.539   4.220  14.317  0.00  0.00    +0.000 S 
BRANCH  14  16
ATOM     15  C   UNL     1       5.071   3.144  11.843  0.00  0.00    +0.000 C 
ATOM     16  C   UNL     1       6.206   3.519  12.776  0.00  0.00    +0.000 C 
ENDBRANCH  14  16
ENDBRANCH  13  14
ENDBRANCH  12  13
ENDBRANCH   8  12
ENDBRANCH   5   8
ENDBRANCH   1   5
BRANCH   3  17
ATOM     17  C   UNL     1       2.889   6.005  19.723  0.00  0.00    +0.000 C 
BRANCH  17  18
ATOM     18  C   UNL     1       2.377   7.334  19.186  0.00  0.00    +0.000 A 
ATOM     19  C   UNL     1       2.724   7.782  17.896  0.00  0.00    +0.000 A 
ATOM     20  C   UNL     1       2.315   9.023  17.427  0.00  0.00    +0.000 A 
ATOM     21  C   UNL     1       1.569   9.855  18.251  0.00  0.00    +0.000 A 
ATOM     22  C   UNL     1       1.185   9.442  19.534  0.00  0.00    +0.000 A 
ATOM     23  C   UNL     1       0.441  10.304  20.354  0.00  0.00    +0.000 A 
ATOM     24  C   UNL     1       0.014   9.904  21.618  0.00  0.00    +0.000 A 
ATOM     25  C   UNL     1       0.305   8.625  22.070  0.00  0.00    +0.000 A 
ATOM     26  C   UNL     1       1.064   7.764  21.275  0.00  0.00    +0.000 A 
ATOM     27  C   UNL     1       1.549   8.155  20.006  0.00  0.00    +0.000 A 
ENDBRANCH  17  18
ENDBRANCH   3  17
TORSDOF 10
ENDMDL
MODEL 7
REMARK VINA RESULT:      -6.9      3.123      5.902
REMARK  Name = 
REMARK  12 active torsions:
REMARK  status: ('A' for Active; 'I' for Inactive)
REMARK    1  A    between atoms: C_1  and  C_2
REMARK    2  A    between atoms: C_2  and  S_3
REMARK    3  A    between atoms: S_3  and  C_4
REMARK    4  A    between atoms: C_4  and  C_5
REMARK    5  A    between atoms: C_5  and  C_6
REMARK    6  A    between atoms: C_6  and  N_7
REMARK    7  A    between atoms: C_6  and  C_8
REMARK    8  A    between atoms: C_8  and  O_9
REMARK    9  A    between atoms: C_8  and  C_10
REMARK   10  A    between atoms: N_12  and  C_13
REMARK   11  A    between atoms: N_12  and  C_14
REMARK   12  A    between atoms: C_14  and  C_15
REMARK                            x       y       z     vdW  Elec       q    Type
REMARK                         _______ _______ _______ _____ _____    ______ ____
ROOT
ATOM      1  C   UNL     1       2.558   2.364  19.341  0.00  0.00    +0.000 C 
ATOM      2  O   UNL     1       1.644   1.536  19.286  0.00  0.00    +0.000 OA
ATOM      3  N   UNL     1       2.540   3.403  20.269  0.00  0.00    +0.000 N 
ATOM      4  C   UNL     1       1.423   3.515  21.200  0.00  0.00    +0.000 C 
ENDROOT
BRANCH   1   5
ATOM      5  C   UNL     1       3.769   2.283  18.367  0.00  0.00    +0.000 C 
BRANCH   5   6
ATOM      6  O   UNL     1       4.244   0.941  18.317  0.00  0.00    +0.000 OA
ATOM      7  H   UNL     1       3.695   0.457  17.674  0.00  0.00    +0.000 HD
ENDBRANCH   5   6
BRANCH   5   8
ATOM      8  C   UNL     1       3.453   2.782  16.928  0.00  0.00    +0.000 C 
BRANCH   8   9
ATOM      9  N   UNL     1       2.095   3.346  16.798  0.00  0.00    +0.000 NA
ATOM     10  H   UNL     1       2.143   4.330  16.537  0.00  0.00    +0.000 HD
ATOM     11  H   UNL     1       1.652   3.326  17.725  0.00  0.00    +0.000 HD
ENDBRANCH   8   9
BRANCH   8  12
ATOM     12  C   UNL     1       4.430   3.874  16.422  0.00  0.00    +0.000 C 
BRANCH  12  13
ATOM     13  C   UNL     1       5.759   3.347  15.879  0.00  0.00    +0.000 C 
BRANCH  13  14
ATOM     14  S   UNL     1       6.427   4.460  14.599  0.00  0.00    +0.000 S 
BRANCH  14  16
ATOM     15  C   UNL     1       6.507   3.343  12.100  0.00  0.00    +0.000 C 
ATOM     16  C   UNL     1       5.526   3.781  13.171  0.00  0.00    +0.000 C 
ENDBRANCH  14  16
ENDBRANCH  13  14
ENDBRANCH  12  13
ENDBRANCH   8  12
ENDBRANCH   5   8
ENDBRANCH   1   5
BRANCH   3  17
ATOM     17  C   UNL     1       3.644   4.349  20.461  0.00  0.00    +0.000 C 
BRANCH  17  18
ATOM     18  C   UNL     1       3.711   5.486  19.453  0.00  0.00    +0.000 A 
ATOM     19  C   UNL     1       2.547   6.167  19.043  0.00  0.00    +0.000 A 
ATOM     20  C   UNL     1       2.594   7.160  18.073  0.00  0.00    +0.000 A 
ATOM     21  C   UNL     1       3.807   7.478  17.475  0.00  0.00    +0.000 A 
ATOM     22  C   UNL     1       4.992   6.839  17.867  0.00  0.00    +0.000 A 
ATOM     23  C   UNL     1       6.204   7.167  17.241  0.00  0.00    +0.000 A 
ATOM     24  C   UNL     1       7.402   6.576  17.638  0.00  0.00    +0.000 A 
ATOM     25  C   UNL     1       7.406   5.666  18.685  0.00  0.00    +0.000 A 
ATOM     26  C   UNL     1       6.205   5.312  19.302  0.00  0.00    +0.000 A 
ATOM     27  C   UNL     1       4.967   5.861  18.895  0.00  0.00    +0.000 A 
ENDBRANCH  17  18
ENDBRANCH   3  17
TORSDOF 10
ENDMDL
MODEL 8
REMARK VINA RESULT:      -6.8      3.578      6.145
REMARK  Name = 
REMARK  12 active torsions:
REMARK  status: ('A' for Active; 'I' for Inactive)
REMARK    1  A    between atoms: C_1  and  C_2
REMARK    2  A    between atoms: C_2  and  S_3
REMARK    3  A    between atoms: S_3  and  C_4
REMARK    4  A    between atoms: C_4  and  C_5
REMARK    5  A    between atoms: C_5  and  C_6
REMARK    6  A    between atoms: C_6  and  N_7
REMARK    7  A    between atoms: C_6  and  C_8
REMARK    8  A    between atoms: C_8  and  O_9
REMARK    9  A    between atoms: C_8  and  C_10
REMARK   10  A    between atoms: N_12  and  C_13
REMARK   11  A    between atoms: N_12  and  C_14
REMARK   12  A    between atoms: C_14  and  C_15
REMARK                            x       y       z     vdW  Elec       q    Type
REMARK                         _______ _______ _______ _____ _____    ______ ____
ROOT
ATOM      1  C   UNL     1       2.589   2.798  20.334  0.00  0.00    +0.000 C 
ATOM      2  O   UNL     1       2.385   2.286  21.439  0.00  0.00    +0.000 OA
ATOM      3  N   UNL     1       3.766   2.558  19.629  0.00  0.00    +0.000 N 
ATOM      4  C   UNL     1       4.779   1.678  20.202  0.00  0.00    +0.000 C 
ENDROOT
BRANCH   1   5
ATOM      5  C   UNL     1       1.536   3.744  19.686  0.00  0.00    +0.000 C 
BRANCH   5   6
ATOM      6  O   UNL     1       0.229   3.237  19.940  0.00  0.00    +0.000 OA
ATOM      7  H   UNL     1       0.298   2.592  20.666  0.00  0.00    +0.000 HD
ENDBRANCH   5   6
BRANCH   5   8
ATOM      8  C   UNL     1       1.631   5.219  20.174  0.00  0.00    +0.000 C 
BRANCH   8   9
ATOM      9  N   UNL     1       2.351   5.357  21.455  0.00  0.00    +0.000 NA
ATOM     10  H   UNL     1       2.268   4.501  22.002  0.00  0.00    +0.000 HD
ATOM     11  H   UNL     1       1.882   6.086  22.007  0.00  0.00    +0.000 HD
ENDBRANCH   8   9
BRANCH   8  12
ATOM     12  C   UNL     1       2.344   6.158  19.167  0.00  0.00    +0.000 C 
BRANCH  12  13
ATOM     13  C   UNL     1       2.117   7.651  19.409  0.00  0.00    +0.000 C 
BRANCH  13  14
ATOM     14  S   UNL     1       2.245   8.590  17.852  0.00  0.00    +0.000 S 
BRANCH  14  16
ATOM     15  C   UNL     1       1.107  10.732  19.124  0.00  0.00    +0.000 C 
ATOM     16  C   UNL     1       0.800   9.672  18.084  0.00  0.00    +0.000 C 
ENDBRANCH  14  16
ENDBRANCH  13  14
ENDBRANCH  12  13
ENDBRANCH   8  12
ENDBRANCH   5   8
ENDBRANCH   1   5
BRANCH   3  17
ATOM     17  C   UNL     1       4.020   3.042  18.269  0.00  0.00    +0.000 C 
BRANCH  17  18
ATOM     18  C   UNL     1       5.174   4.025  18.132  0.00  0.00    +0.000 A 
ATOM     19  C   UNL     1       5.667   4.732  19.246  0.00  0.00    +0.000 A 
ATOM     20  C   UNL     1       6.674   5.679  19.115  0.00  0.00    +0.000 A 
ATOM     21  C   UNL     1       7.194   5.956  17.857  0.00  0.00    +0.000 A 
ATOM     22  C   UNL     1       6.747   5.261  16.724  0.00  0.00    +0.000 A 
ATOM     23  C   UNL     1       7.279   5.566  15.462  0.00  0.00    +0.000 A 
ATOM     24  C   UNL     1       6.881   4.865  14.326  0.00  0.00    +0.000 A 
ATOM     25  C   UNL     1       5.962   3.832  14.442  0.00  0.00    +0.000 A 
ATOM     26  C   UNL     1       5.407   3.532  15.687  0.00  0.00    +0.000 A 
ATOM     27  C   UNL     1       5.758   4.253  16.852  0.00  0.00    +0.000 A 
ENDBRANCH  17  18
ENDBRANCH   3  17
TORSDOF 10
ENDMDL
MODEL 9
REMARK VINA RESULT:      -6.6      1.390      2.438
REMARK  Name = 
REMARK  12 active torsions:
REMARK  status: ('A' for Active; 'I' for Inactive)
REMARK    1  A    between atoms: C_1  and  C_2
REMARK    2  A    between atoms: C_2  and  S_3
REMARK    3  A    between atoms: S_3  and  C_4
REMARK    4  A    between atoms: C_4  and  C_5
REMARK    5  A    between atoms: C_5  and  C_6
REMARK    6  A    between atoms: C_6  and  N_7
REMARK    7  A    between atoms: C_6  and  C_8
REMARK    8  A    between atoms: C_8  and  O_9
REMARK    9  A    between atoms: C_8  and  C_10
REMARK   10  A    between atoms: N_12  and  C_13
REMARK   11  A    between atoms: N_12  and  C_14
REMARK   12  A    between atoms: C_14  and  C_15
REMARK                            x       y       z     vdW  Elec       q    Type
REMARK                         _______ _______ _______ _____ _____    ______ ____
ROOT
ATOM      1  C   UNL     1       7.048   4.880  16.839  0.00  0.00    +0.000 C 
ATOM      2  O   UNL     1       8.058   4.293  16.438  0.00  0.00    +0.000 OA
ATOM      3  N   UNL     1       5.796   4.635  16.278  0.00  0.00    +0.000 N 
ATOM      4  C   UNL     1       5.671   3.661  15.199  0.00  0.00    +0.000 C 
ENDROOT
BRANCH   1   5
ATOM      5  C   UNL     1       7.136   5.927  17.986  0.00  0.00    +0.000 C 
BRANCH   5   6
ATOM      6  O   UNL     1       7.945   5.407  19.038  0.00  0.00    +0.000 OA
ATOM      7  H   UNL     1       7.585   4.537  19.285  0.00  0.00    +0.000 HD
ENDBRANCH   5   6
BRANCH   5   8
ATOM      8  C   UNL     1       7.688   7.310  17.534  0.00  0.00    +0.000 C 
BRANCH   8   9
ATOM      9  N   UNL     1       6.643   8.195  16.983  0.00  0.00    +0.000 NA
ATOM     10  H   UNL     1       6.344   7.862  16.067  0.00  0.00    +0.000 HD
ATOM     11  H   UNL     1       7.062   9.119  16.818  0.00  0.00    +0.000 HD
ENDBRANCH   8   9
BRANCH   8  12
ATOM     12  C   UNL     1       8.377   8.104  18.675  0.00  0.00    +0.000 C 
BRANCH  12  13
ATOM     13  C   UNL     1       8.718   9.555  18.333  0.00  0.00    +0.000 C 
BRANCH  13  14
ATOM     14  S   UNL     1       9.219  10.475  19.824  0.00  0.00    +0.000 S 
BRANCH  14  16
ATOM     15  C   UNL     1      10.570  11.459  17.654  0.00  0.00    +0.000 C 
ATOM     16  C   UNL     1      10.017  11.888  19.000  0.00  0.00    +0.000 C 
ENDBRANCH  14  16
ENDBRANCH  13  14
ENDBRANCH  12  13
ENDBRANCH   8  12
ENDBRANCH   5   8
ENDBRANCH   1   5
BRANCH   3  17
ATOM     17  C   UNL     1       4.547   5.212  16.781  0.00  0.00    +0.000 C 
BRANCH  17  18
ATOM     18  C   UNL     1       3.751   4.322  17.725  0.00  0.00    +0.000 A 
ATOM     19  C   UNL     1       3.722   2.923  17.558  0.00  0.00    +0.000 A 
ATOM     20  C   UNL     1       2.944   2.113  18.375  0.00  0.00    +0.000 A 
ATOM     21  C   UNL     1       2.158   2.691  19.364  0.00  0.00    +0.000 A 
ATOM     22  C   UNL     1       2.172   4.076  19.577  0.00  0.00    +0.000 A 
ATOM     23  C   UNL     1       1.361   4.639  20.574  0.00  0.00    +0.000 A 
ATOM     24  C   UNL     1       1.383   6.008  20.833  0.00  0.00    +0.000 A 
ATOM     25  C   UNL     1       2.238   6.829  20.113  0.00  0.00    +0.000 A 
ATOM     26  C   UNL     1       3.035   6.288  19.102  0.00  0.00    +0.000 A 
ATOM     27  C   UNL     1       3.003   4.910  18.786  0.00  0.00    +0.000 A 
ENDBRANCH  17  18
ENDBRANCH   3  17
TORSDOF 10
ENDMDL
