MODEL 1
REMARK VINA RESULT:      -7.4      0.000      0.000
REMARK  Name = 
REMARK  7 active torsions:
REMARK  status: ('A' for Active; 'I' for Inactive)
REMARK    1  A    between atoms: C_2  and  C_3
REMARK    2  A    between atoms: C_8  and  O_9
REMARK    3  A    between atoms: O_9  and  C_10
REMARK    4  A    between atoms: C_10  and  C_11
REMARK    5  A    between atoms: N_13  and  C_14
REMARK    6  A    between atoms: C_18  and  S_19
REMARK    7  A    between atoms: S_19  and  N_22
REMARK                            x       y       z     vdW  Elec       q    Type
REMARK                         _______ _______ _______ _____ _____    ______ ____
ROOT
ATOM      1  C   UNL     1       2.403   3.683  21.061  0.00  0.00    +0.000 C 
ATOM      2  O   UNL     1       2.267   3.340  22.240  0.00  0.00    +0.000 OA
ATOM      3  N   UNL     1       3.422   3.126  20.331  0.00  0.00    +0.000 N 
ATOM      4  H   UNL     1       4.094   2.639  20.914  0.00  0.00    +0.000 HD
ENDROOT
BRANCH   3   5
ATOM      5  C   UNL     1       3.741   3.312  18.979  0.00  0.00    +0.000 A 
ATOM      6  C   UNL     1       3.076   2.627  17.959  0.00  0.00    +0.000 A 
ATOM      7  C   UNL     1       3.443   2.810  16.623  0.00  0.00    +0.000 A 
ATOM      8  C   UNL     1       4.531   3.620  16.305  0.00  0.00    +0.000 A 
ATOM      9  C   UNL     1       5.240   4.243  17.335  0.00  0.00    +0.000 A 
ATOM     10  C   UNL     1       4.832   4.120  18.668  0.00  0.00    +0.000 A 
BRANCH   9  11
ATOM     11  S   UNL     1       6.721   5.144  16.955  0.00  0.00    +0.000 S 
ATOM     12  O   UNL     1       7.845   4.285  17.257  0.00  0.00    +0.000 OA
ATOM     13  O   UNL     1       6.561   5.735  15.641  0.00  0.00    +0.000 OA
BRANCH  11  14
ATOM     14  N   UNL     1       6.712   6.424  18.089  0.00  0.00    +0.000 NA
ATOM     15  C   UNL     1       6.447   7.796  17.593  0.00  0.00    +0.000 C 
ATOM     16  C   UNL     1       7.809   8.446  17.476  0.00  0.00    +0.000 C 
ATOM     17  C   UNL     1       8.572   7.877  18.654  0.00  0.00    +0.000 C 
ATOM     18  C   UNL     1       7.954   6.504  18.918  0.00  0.00    +0.000 C 
ENDBRANCH  11  14
ENDBRANCH   9  11
ENDBRANCH   3   5
BRANCH   1  19
ATOM     19  C   UNL     1       1.531   4.778  20.449  0.00  0.00    +0.000 C 
BRANCH  19  20
ATOM     20  O   UNL     1       1.903   6.056  20.943  0.00  0.00    +0.000 OA
BRANCH  20  26
ATOM     21  C   UNL     1       1.247   8.399  20.281  0.00  0.00    +0.000 A 
ATOM     22  C   UNL     1       1.328   9.362  19.261  0.00  0.00    +0.000 A 
ATOM     23  C   UNL     1       2.012   9.099  18.077  0.00  0.00    +0.000 A 
ATOM     24  C   UNL     1       2.624   7.867  17.901  0.00  0.00    +0.000 A 
ATOM     25  C   UNL     1       2.548   6.901  18.906  0.00  0.00    +0.000 A 
ATOM     26  C   UNL     1       1.859   7.147  20.111  0.00  0.00    +0.000 A 
BRANCH  21  28
ATOM     27  N   UNL     1      -0.084   9.104  22.393  0.00  0.00    +0.000 NA
ATOM     28  C   UNL     1       0.502   8.788  21.445  0.00  0.00    +0.000 C 
ENDBRANCH  21  28
ENDBRANCH  20  26
ENDBRANCH  19  20
ENDBRANCH   1  19
TORSDOF 7
ENDMDL
MODEL 2
REMARK VINA RESULT:      -7.3      2.841      5.185
REMARK  Name = 
REMARK  7 active torsions:
REMARK  status: ('A' for Active; 'I' for Inactive)
REMARK    1  A    between atoms: C_2  and  C_3
REMARK    2  A    between atoms: C_8  and  O_9
REMARK    3  A    between atoms: O_9  and  C_10
REMARK    4  A    between atoms: C_10  and  C_11
REMARK    5  A    between atoms: N_13  and  C_14
REMARK    6  A    between atoms: C_18  and  S_19
REMARK    7  A    between atoms: S_19  and  N_22
REMARK                            x       y       z     vdW  Elec       q    Type
REMARK                         _______ _______ _______ _____ _____    ______ ____
ROOT
ATOM      1  C   UNL     1       2.678   8.260  17.933  0.00  0.00    +0.000 C 
ATOM      2  O   UNL     1       2.339   9.225  17.241  0.00  0.00    +0.000 OA
ATOM      3  N   UNL     1       3.482   7.301  17.371  0.00  0.00    +0.000 N 
ATOM      4  H   UNL     1       3.541   7.390  16.362  0.00  0.00    +0.000 HD
ENDROOT
BRANCH   3   5
ATOM      5  C   UNL     1       4.036   6.158  17.961  0.00  0.00    +0.000 A 
ATOM      6  C   UNL     1       5.352   6.130  18.433  0.00  0.00    +0.000 A 
ATOM      7  C   UNL     1       5.884   4.962  18.985  0.00  0.00    +0.000 A 
ATOM      8  C   UNL     1       5.129   3.792  18.997  0.00  0.00    +0.000 A 
ATOM      9  C   UNL     1       3.841   3.806  18.456  0.00  0.00    +0.000 A 
ATOM     10  C   UNL     1       3.278   4.991  17.967  0.00  0.00    +0.000 A 
BRANCH   9  11
ATOM     11  S   UNL     1       2.933   2.288  18.321  0.00  0.00    +0.000 S 
ATOM     12  O   UNL     1       2.031   2.417  17.197  0.00  0.00    +0.000 OA
ATOM     13  O   UNL     1       3.878   1.192  18.401  0.00  0.00    +0.000 OA
BRANCH  11  14
ATOM     14  N   UNL     1       1.996   2.253  19.751  0.00  0.00    +0.000 NA
ATOM     15  C   UNL     1       0.743   3.046  19.785  0.00  0.00    +0.000 C 
ATOM     16  C   UNL     1       1.098   4.316  20.529  0.00  0.00    +0.000 C 
ATOM     17  C   UNL     1       2.080   3.844  21.582  0.00  0.00    +0.000 C 
ATOM     18  C   UNL     1       2.762   2.614  20.983  0.00  0.00    +0.000 C 
ENDBRANCH  11  14
ENDBRANCH   9  11
ENDBRANCH   3   5
BRANCH   1  19
ATOM     19  C   UNL     1       2.135   8.070  19.349  0.00  0.00    +0.000 C 
BRANCH  19  20
ATOM     20  O   UNL     1       0.790   8.515  19.438  0.00  0.00    +0.000 OA
BRANCH  20  26
ATOM     21  C   UNL     1       0.470  10.721  20.617  0.00  0.00    +0.000 A 
ATOM     22  C   UNL     1       0.028  11.327  21.804  0.00  0.00    +0.000 A 
ATOM     23  C   UNL     1      -0.481  10.566  22.853  0.00  0.00    +0.000 A 
ATOM     24  C   UNL     1      -0.552   9.186  22.725  0.00  0.00    +0.000 A 
ATOM     25  C   UNL     1      -0.112   8.573  21.551  0.00  0.00    +0.000 A 
ATOM     26  C   UNL     1       0.408   9.326  20.478  0.00  0.00    +0.000 A 
BRANCH  21  28
ATOM     27  N   UNL     1       1.390  12.350  18.818  0.00  0.00    +0.000 NA
ATOM     28  C   UNL     1       0.985  11.615  19.618  0.00  0.00    +0.000 C 
ENDBRANCH  21  28
ENDBRANCH  20  26
ENDBRANCH  19  20
ENDBRANCH   1  19
TORSDOF 7
ENDMDL
MODEL 3
REMARK VINA RESULT:      -6.9      3.530      6.683
REMARK  Name = 
REMARK  7 active torsions:
REMARK  status: ('A' for Active; 'I' for Inactive)
REMARK    1  A    between atoms: C_2  and  C_3
REMARK    2  A    between atoms: C_8  and  O_9
REMARK    3  A    between atoms: O_9  and  C_10
REMARK    4  A    between atoms: C_10  and  C_11
REMARK    5  A    between atoms: N_13  and  C_14
REMARK    6  A    between atoms: C_18  and  S_19
REMARK    7  A    between atoms: S_19  and  N_22
REMARK                            x       y       z     vdW  Elec       q    Type
REMARK                         _______ _______ _______ _____ _____    ______ ____
ROOT
ATOM      1  C   UNL     1       1.886   4.265  21.187  0.00  0.00    +0.000 C 
ATOM      2  O   UNL     1       2.202   3.491  22.096  0.00  0.00    +0.000 OA
ATOM      3  N   UNL     1       2.263   5.580  21.287  0.00  0.00    +0.000 N 
ATOM      4  H   UNL     1       2.588   5.820  22.217  0.00  0.00    +0.000 HD
ENDROOT
BRANCH   3   5
ATOM      5  C   UNL     1       2.073   6.623  20.371  0.00  0.00    +0.000 A 
ATOM      6  C   UNL     1       2.677   6.624  19.110  0.00  0.00    +0.000 A 
ATOM      7  C   UNL     1       2.493   7.697  18.235  0.00  0.00    +0.000 A 
ATOM      8  C   UNL     1       1.767   8.813  18.645  0.00  0.00    +0.000 A 
ATOM      9  C   UNL     1       1.229   8.840  19.934  0.00  0.00    +0.000 A 
ATOM     10  C   UNL     1       1.349   7.738  20.788  0.00  0.00    +0.000 A 
BRANCH   9  11
ATOM     11  S   UNL     1       0.442  10.318  20.522  0.00  0.00    +0.000 S 
ATOM     12  O   UNL     1      -0.949  10.258  20.129  0.00  0.00    +0.000 OA
ATOM     13  O   UNL     1       0.822  10.506  21.908  0.00  0.00    +0.000 OA
BRANCH  11  14
ATOM     14  N   UNL     1       1.196  11.559  19.619  0.00  0.00    +0.000 NA
ATOM     15  C   UNL     1       1.881  12.645  20.359  0.00  0.00    +0.000 C 
ATOM     16  C   UNL     1       0.901  13.800  20.367  0.00  0.00    +0.000 C 
ATOM     17  C   UNL     1       0.233  13.702  19.010  0.00  0.00    +0.000 C 
ATOM     18  C   UNL     1       0.289  12.222  18.632  0.00  0.00    +0.000 C 
ENDBRANCH  11  14
ENDBRANCH   9  11
ENDBRANCH   3   5
BRANCH   1  19
ATOM     19  C   UNL     1       1.006   3.805  20.026  0.00  0.00    +0.000 C 
BRANCH  19  20
ATOM     20  O   UNL     1       1.657   2.799  19.266  0.00  0.00    +0.000 OA
BRANCH  20  26
ATOM     21  C   UNL     1       4.149   2.882  18.890  0.00  0.00    +0.000 A 
ATOM     22  C   UNL     1       5.157   3.310  18.010  0.00  0.00    +0.000 A 
ATOM     23  C   UNL     1       4.843   3.951  16.814  0.00  0.00    +0.000 A 
ATOM     24  C   UNL     1       3.513   4.171  16.485  0.00  0.00    +0.000 A 
ATOM     25  C   UNL     1       2.503   3.753  17.354  0.00  0.00    +0.000 A 
ATOM     26  C   UNL     1       2.801   3.105  18.570  0.00  0.00    +0.000 A 
BRANCH  21  28
ATOM     27  N   UNL     1       4.976   1.720  21.057  0.00  0.00    +0.000 NA
ATOM     28  C   UNL     1       4.605   2.248  20.094  0.00  0.00    +0.000 C 
ENDBRANCH  21  28
ENDBRANCH  20  26
ENDBRANCH  19  20
ENDBRANCH   1  19
TORSDOF 7
ENDMDL
MODEL 4
REMARK VINA RESULT:      -6.8      3.018      7.117
REMARK  Name = 
REMARK  7 active torsions:
REMARK  status: ('A' for Active; 'I' for Inactive)
REMARK    1  A    between atoms: C_2  and  C_3
REMARK    2  A    between atoms: C_8  and  O_9
REMARK    3  A    between atoms: O_9  and  C_10
REMARK    4  A    between atoms: C_10  and  C_11
REMARK    5  A    between atoms: N_13  and  C_14
REMARK    6  A    between atoms: C_18  and  S_19
REMARK    7  A    between atoms: S_19  and  N_22
REMARK                            x       y       z     vdW  Elec       q    Type
REMARK                         _______ _______ _______ _____ _____    ______ ____
ROOT
ATOM      1  C   UNL     1       7.356   6.209  18.450  0.00  0.00    +0.000 C 
ATOM      2  O   UNL     1       8.376   6.459  19.100  0.00  0.00    +0.000 OA
ATOM      3  N   UNL     1       6.256   5.731  19.116  0.00  0.00    +0.000 N 
ATOM      4  H   UNL     1       6.476   5.433  20.061  0.00  0.00    +0.000 HD
ENDROOT
BRANCH   3   5
ATOM      5  C   UNL     1       4.984   5.429  18.614  0.00  0.00    +0.000 A 
ATOM      6  C   UNL     1       4.089   6.425  18.212  0.00  0.00    +0.000 A 
ATOM      7  C   UNL     1       2.815   6.090  17.748  0.00  0.00    +0.000 A 
ATOM      8  C   UNL     1       2.398   4.761  17.756  0.00  0.00    +0.000 A 
ATOM      9  C   UNL     1       3.270   3.777  18.229  0.00  0.00    +0.000 A 
ATOM     10  C   UNL     1       4.572   4.099  18.628  0.00  0.00    +0.000 A 
BRANCH   9  11
ATOM     11  S   UNL     1       2.694   2.107  18.394  0.00  0.00    +0.000 S 
ATOM     12  O   UNL     1       1.704   1.882  17.363  0.00  0.00    +0.000 OA
ATOM     13  O   UNL     1       3.852   1.244  18.522  0.00  0.00    +0.000 OA
BRANCH  11  14
ATOM     14  N   UNL     1       1.894   2.107  19.906  0.00  0.00    +0.000 NA
ATOM     15  C   UNL     1       0.670   2.931  20.049  0.00  0.00    +0.000 C 
ATOM     16  C   UNL     1       1.122   4.198  20.743  0.00  0.00    +0.000 C 
ATOM     17  C   UNL     1       2.187   3.710  21.704  0.00  0.00    +0.000 C 
ATOM     18  C   UNL     1       2.781   2.459  21.057  0.00  0.00    +0.000 C 
ENDBRANCH  11  14
ENDBRANCH   9  11
ENDBRANCH   3   5
BRANCH   1  19
ATOM     19  C   UNL     1       7.340   6.324  16.927  0.00  0.00    +0.000 C 
BRANCH  19  20
ATOM     20  O   UNL     1       7.697   5.090  16.323  0.00  0.00    +0.000 OA
BRANCH  20  26
ATOM     21  C   UNL     1       7.353   4.884  13.833  0.00  0.00    +0.000 A 
ATOM     22  C   UNL     1       6.510   4.364  12.837  0.00  0.00    +0.000 A 
ATOM     23  C   UNL     1       5.370   3.636  13.168  0.00  0.00    +0.000 A 
ATOM     24  C   UNL     1       5.061   3.419  14.503  0.00  0.00    +0.000 A 
ATOM     25  C   UNL     1       5.890   3.933  15.501  0.00  0.00    +0.000 A 
ATOM     26  C   UNL     1       7.047   4.674  15.187  0.00  0.00    +0.000 A 
BRANCH  21  28
ATOM     27  N   UNL     1       9.391   6.238  12.970  0.00  0.00    +0.000 NA
ATOM     28  C   UNL     1       8.487   5.627  13.362  0.00  0.00    +0.000 C 
ENDBRANCH  21  28
ENDBRANCH  20  26
ENDBRANCH  19  20
ENDBRANCH   1  19
TORSDOF 7
ENDMDL
MODEL 5
REMARK VINA RESULT:      -6.8      3.183      7.181
REMARK  Name = 
REMARK  7 active torsions:
REMARK  status: ('A' for Active; 'I' for Inactive)
REMARK    1  A    between atoms: C_2  and  C_3
REMARK    2  A    between atoms: C_8  and  O_9
REMARK    3  A    between atoms: O_9  and  C_10
REMARK    4  A    between atoms: C_10  and  C_11
REMARK    5  A    between atoms: N_13  and  C_14
REMARK    6  A    between atoms: C_18  and  S_19
REMARK    7  A    between atoms: S_19  and  N_22
REMARK                            x       y       z     vdW  Elec       q    Type
REMARK                         _______ _______ _______ _____ _____    ______ ____
ROOT
ATOM      1  C   UNL     1       2.749   4.545  20.267  0.00  0.00    +0.000 C 
ATOM      2  O   UNL     1       2.881   3.661  21.119  0.00  0.00    +0.000 OA
ATOM      3  N   UNL     1       2.262   5.766  20.660  0.00  0.00    +0.000 N 
ATOM      4  H   UNL     1       1.860   5.740  21.591  0.00  0.00    +0.000 HD
ENDROOT
BRANCH   3   5
ATOM      5  C   UNL     1       2.077   6.928  19.900  0.00  0.00    +0.000 A 
ATOM      6  C   UNL     1       2.687   7.104  18.654  0.00  0.00    +0.000 A 
ATOM      7  C   UNL     1       2.509   8.290  17.938  0.00  0.00    +0.000 A 
ATOM      8  C   UNL     1       1.783   9.339  18.498  0.00  0.00    +0.000 A 
ATOM      9  C   UNL     1       1.239   9.185  19.775  0.00  0.00    +0.000 A 
ATOM     10  C   UNL     1       1.354   7.974  20.466  0.00  0.00    +0.000 A 
BRANCH   9  11
ATOM     11  S   UNL     1       0.452  10.568  20.562  0.00  0.00    +0.000 S 
ATOM     12  O   UNL     1      -0.596  10.047  21.413  0.00  0.00    +0.000 OA
ATOM     13  O   UNL     1       1.488  11.431  21.093  0.00  0.00    +0.000 OA
BRANCH  11  14
ATOM     14  N   UNL     1      -0.284  11.401  19.263  0.00  0.00    +0.000 NA
ATOM     15  C   UNL     1      -0.596  12.840  19.442  0.00  0.00    +0.000 C 
ATOM     16  C   UNL     1      -2.071  12.888  19.780  0.00  0.00    +0.000 C 
ATOM     17  C   UNL     1      -2.660  11.775  18.937  0.00  0.00    +0.000 C 
ATOM     18  C   UNL     1      -1.536  10.754  18.763  0.00  0.00    +0.000 C 
ENDBRANCH  11  14
ENDBRANCH   9  11
ENDBRANCH   3   5
BRANCH   1  19
ATOM     19  C   UNL     1       3.017   4.266  18.789  0.00  0.00    +0.000 C 
BRANCH  19  20
ATOM     20  O   UNL     1       4.308   3.706  18.606  0.00  0.00    +0.000 OA
BRANCH  20  26
ATOM     21  C   UNL     1       6.357   4.929  17.788  0.00  0.00    +0.000 A 
ATOM     22  C   UNL     1       7.033   5.384  16.645  0.00  0.00    +0.000 A 
ATOM     23  C   UNL     1       6.528   5.148  15.369  0.00  0.00    +0.000 A 
ATOM     24  C   UNL     1       5.337   4.452  15.224  0.00  0.00    +0.000 A 
ATOM     25  C   UNL     1       4.654   3.997  16.353  0.00  0.00    +0.000 A 
ATOM     26  C   UNL     1       5.148   4.228  17.653  0.00  0.00    +0.000 A 
BRANCH  21  28
ATOM     27  N   UNL     1       7.489   5.505  20.051  0.00  0.00    +0.000 NA
ATOM     28  C   UNL     1       6.974   5.249  19.044  0.00  0.00    +0.000 C 
ENDBRANCH  21  28
ENDBRANCH  20  26
ENDBRANCH  19  20
ENDBRANCH   1  19
TORSDOF 7
ENDMDL
MODEL 6
REMARK VINA RESULT:      -6.8      1.180      1.655
REMARK  Name = 
REMARK  7 active torsions:
REMARK  status: ('A' for Active; 'I' for Inactive)
REMARK    1  A    between atoms: C_2  and  C_3
REMARK    2  A    between atoms: C_8  and  O_9
REMARK    3  A    between atoms: O_9  and  C_10
REMARK    4  A    between atoms: C_10  and  C_11
REMARK    5  A    between atoms: N_13  and  C_14
REMARK    6  A    between atoms: C_18  and  S_19
REMARK    7  A    between atoms: S_19  and  N_22
REMARK                            x       y       z     vdW  Elec       q    Type
REMARK                         _______ _______ _______ _____ _____    ______ ____
ROOT
ATOM      1  C   UNL     1       2.239   3.689  21.163  0.00  0.00    +0.000 C 
ATOM      2  O   UNL     1       1.876   3.314  22.283  0.00  0.00    +0.000 OA
ATOM      3  N   UNL     1       3.350   3.106  20.606  0.00  0.00    +0.000 N 
ATOM      4  H   UNL     1       3.882   2.567  21.280  0.00  0.00    +0.000 HD
ENDROOT
BRANCH   3   5
ATOM      5  C   UNL     1       3.918   3.320  19.344  0.00  0.00    +0.000 A 
ATOM      6  C   UNL     1       3.381   2.755  18.183  0.00  0.00    +0.000 A 
ATOM      7  C   UNL     1       3.993   2.961  16.944  0.00  0.00    +0.000 A 
ATOM      8  C   UNL     1       5.190   3.669  16.869  0.00  0.00    +0.000 A 
ATOM      9  C   UNL     1       5.762   4.169  18.041  0.00  0.00    +0.000 A 
ATOM     10  C   UNL     1       5.116   4.026  19.275  0.00  0.00    +0.000 A 
BRANCH   9  11
ATOM     11  S   UNL     1       7.363   4.931  17.977  0.00  0.00    +0.000 S 
ATOM     12  O   UNL     1       7.611   5.534  19.269  0.00  0.00    +0.000 OA
ATOM     13  O   UNL     1       8.291   3.976  17.406  0.00  0.00    +0.000 OA
BRANCH  11  14
ATOM     14  N   UNL     1       7.162   6.188  16.835  0.00  0.00    +0.000 NA
ATOM     15  C   UNL     1       6.140   7.226  17.110  0.00  0.00    +0.000 C 
ATOM     16  C   UNL     1       4.936   6.828  16.282  0.00  0.00    +0.000 C 
ATOM     17  C   UNL     1       5.552   6.257  15.021  0.00  0.00    +0.000 C 
ATOM     18  C   UNL     1       6.912   5.702  15.443  0.00  0.00    +0.000 C 
ENDBRANCH  11  14
ENDBRANCH   9  11
ENDBRANCH   3   5
BRANCH   1  19
ATOM     19  C   UNL     1       1.541   4.845  20.450  0.00  0.00    +0.000 C 
BRANCH  19  20
ATOM     20  O   UNL     1       2.041   6.094  20.903  0.00  0.00    +0.000 OA
BRANCH  20  26
ATOM     21  C   UNL     1       1.303   8.465  20.461  0.00  0.00    +0.000 A 
ATOM     22  C   UNL     1       1.210   9.467  19.482  0.00  0.00    +0.000 A 
ATOM     23  C   UNL     1       1.668   9.250  18.185  0.00  0.00    +0.000 A 
ATOM     24  C   UNL     1       2.226   8.024  17.854  0.00  0.00    +0.000 A 
ATOM     25  C   UNL     1       2.320   7.019  18.818  0.00  0.00    +0.000 A 
ATOM     26  C   UNL     1       1.861   7.218  20.135  0.00  0.00    +0.000 A 
BRANCH  21  28
ATOM     27  N   UNL     1       0.353   9.101  22.791  0.00  0.00    +0.000 NA
ATOM     28  C   UNL     1       0.782   8.809  21.754  0.00  0.00    +0.000 C 
ENDBRANCH  21  28
ENDBRANCH  20  26
ENDBRANCH  19  20
ENDBRANCH   1  19
TORSDOF 7
ENDMDL
MODEL 7
REMARK VINA RESULT:      -6.8      1.224      1.569
REMARK  Name = 
REMARK  7 active torsions:
REMARK  status: ('A' for Active; 'I' for Inactive)
REMARK    1  A    between atoms: C_2  and  C_3
REMARK    2  A    between atoms: C_8  and  O_9
REMARK    3  A    between atoms: O_9  and  C_10
REMARK    4  A    between atoms: C_10  and  C_11
REMARK    5  A    between atoms: N_13  and  C_14
REMARK    6  A    between atoms: C_18  and  S_19
REMARK    7  A    between atoms: S_19  and  N_22
REMARK                            x       y       z     vdW  Elec       q    Type
REMARK                         _______ _______ _______ _____ _____    ______ ____
ROOT
ATOM      1  C   UNL     1       2.457   4.185  20.997  0.00  0.00    +0.000 C 
ATOM      2  O   UNL     1       2.300   3.874  22.182  0.00  0.00    +0.000 OA
ATOM      3  N   UNL     1       3.428   3.540  20.274  0.00  0.00    +0.000 N 
ATOM      4  H   UNL     1       4.063   3.014  20.864  0.00  0.00    +0.000 HD
ENDROOT
BRANCH   3   5
ATOM      5  C   UNL     1       3.755   3.677  18.918  0.00  0.00    +0.000 A 
ATOM      6  C   UNL     1       3.750   2.589  18.040  0.00  0.00    +0.000 A 
ATOM      7  C   UNL     1       4.114   2.755  16.702  0.00  0.00    +0.000 A 
ATOM      8  C   UNL     1       4.562   3.995  16.251  0.00  0.00    +0.000 A 
ATOM      9  C   UNL     1       4.636   5.061  17.151  0.00  0.00    +0.000 A 
ATOM     10  C   UNL     1       4.204   4.918  18.474  0.00  0.00    +0.000 A 
BRANCH   9  11
ATOM     11  S   UNL     1       5.354   6.597  16.628  0.00  0.00    +0.000 S 
ATOM     12  O   UNL     1       5.141   6.716  15.202  0.00  0.00    +0.000 OA
ATOM     13  O   UNL     1       4.911   7.632  17.540  0.00  0.00    +0.000 OA
BRANCH  11  14
ATOM     14  N   UNL     1       7.027   6.369  16.897  0.00  0.00    +0.000 NA
ATOM     15  C   UNL     1       7.450   5.218  17.731  0.00  0.00    +0.000 C 
ATOM     16  C   UNL     1       7.720   5.799  19.103  0.00  0.00    +0.000 C 
ATOM     17  C   UNL     1       8.314   7.159  18.796  0.00  0.00    +0.000 C 
ATOM     18  C   UNL     1       7.719   7.573  17.451  0.00  0.00    +0.000 C 
ENDBRANCH  11  14
ENDBRANCH   9  11
ENDBRANCH   3   5
BRANCH   1  19
ATOM     19  C   UNL     1       1.666   5.331  20.368  0.00  0.00    +0.000 C 
BRANCH  19  20
ATOM     20  O   UNL     1       2.210   6.586  20.745  0.00  0.00    +0.000 OA
BRANCH  20  26
ATOM     21  C   UNL     1       1.233   8.908  20.611  0.00  0.00    +0.000 A 
ATOM     22  C   UNL     1       0.872   9.946  19.736  0.00  0.00    +0.000 A 
ATOM     23  C   UNL     1       1.069   9.829  18.363  0.00  0.00    +0.000 A 
ATOM     24  C   UNL     1       1.631   8.669  17.849  0.00  0.00    +0.000 A 
ATOM     25  C   UNL     1       1.991   7.630  18.709  0.00  0.00    +0.000 A 
ATOM     26  C   UNL     1       1.798   7.728  20.102  0.00  0.00    +0.000 A 
BRANCH  21  28
ATOM     27  N   UNL     1       0.740   9.323  23.125  0.00  0.00    +0.000 NA
ATOM     28  C   UNL     1       0.966   9.147  22.002  0.00  0.00    +0.000 C 
ENDBRANCH  21  28
ENDBRANCH  20  26
ENDBRANCH  19  20
ENDBRANCH   1  19
TORSDOF 7
ENDMDL
MODEL 8
REMARK VINA RESULT:      -6.7      3.618      5.397
REMARK  Name = 
REMARK  7 active torsions:
REMARK  status: ('A' for Active; 'I' for Inactive)
REMARK    1  A    between atoms: C_2  and  C_3
REMARK    2  A    between atoms: C_8  and  O_9
REMARK    3  A    between atoms: O_9  and  C_10
REMARK    4  A    between atoms: C_10  and  C_11
REMARK    5  A    between atoms: N_13  and  C_14
REMARK    6  A    between atoms: C_18  and  S_19
REMARK    7  A    between atoms: S_19  and  N_22
REMARK                            x       y       z     vdW  Elec       q    Type
REMARK                         _______ _______ _______ _____ _____    ______ ____
ROOT
ATOM      1  C   UNL     1       1.876   9.545  18.149  0.00  0.00    +0.000 C 
ATOM      2  O   UNL     1       2.343  10.481  17.492  0.00  0.00    +0.000 OA
ATOM      3  N   UNL     1       2.542   8.345  18.144  0.00  0.00    +0.000 N 
ATOM      4  H   UNL     1       3.249   8.299  17.419  0.00  0.00    +0.000 HD
ENDROOT
BRANCH   3   5
ATOM      5  C   UNL     1       2.244   7.170  18.845  0.00  0.00    +0.000 A 
ATOM      6  C   UNL     1       2.008   7.166  20.223  0.00  0.00    +0.000 A 
ATOM      7  C   UNL     1       1.747   5.970  20.896  0.00  0.00    +0.000 A 
ATOM      8  C   UNL     1       1.798   4.759  20.209  0.00  0.00    +0.000 A 
ATOM      9  C   UNL     1       2.109   4.762  18.847  0.00  0.00    +0.000 A 
ATOM     10  C   UNL     1       2.300   5.962  18.153  0.00  0.00    +0.000 A 
BRANCH   9  11
ATOM     11  S   UNL     1       2.334   3.219  17.999  0.00  0.00    +0.000 S 
ATOM     12  O   UNL     1       1.704   2.188  18.794  0.00  0.00    +0.000 OA
ATOM     13  O   UNL     1       1.976   3.415  16.608  0.00  0.00    +0.000 OA
BRANCH  11  14
ATOM     14  N   UNL     1       4.025   2.974  18.057  0.00  0.00    +0.000 NA
ATOM     15  C   UNL     1       4.736   3.296  19.318  0.00  0.00    +0.000 C 
ATOM     16  C   UNL     1       5.348   4.662  19.092  0.00  0.00    +0.000 C 
ATOM     17  C   UNL     1       5.748   4.630  17.631  0.00  0.00    +0.000 C 
ATOM     18  C   UNL     1       4.772   3.663  16.960  0.00  0.00    +0.000 C 
ENDBRANCH  11  14
ENDBRANCH   9  11
ENDBRANCH   3   5
BRANCH   1  19
ATOM     19  C   UNL     1       0.534   9.675  18.868  0.00  0.00    +0.000 C 
BRANCH  19  20
ATOM     20  O   UNL     1      -0.079  10.920  18.572  0.00  0.00    +0.000 OA
BRANCH  20  26
ATOM     21  C   UNL     1      -2.439  11.769  18.840  0.00  0.00    +0.000 A 
ATOM     22  C   UNL     1      -3.763  11.618  18.398  0.00  0.00    +0.000 A 
ATOM     23  C   UNL     1      -4.091  10.686  17.416  0.00  0.00    +0.000 A 
ATOM     24  C   UNL     1      -3.094   9.894  16.866  0.00  0.00    +0.000 A 
ATOM     25  C   UNL     1      -1.775  10.033  17.300  0.00  0.00    +0.000 A 
ATOM     26  C   UNL     1      -1.423  10.968  18.294  0.00  0.00    +0.000 A 
BRANCH  21  28
ATOM     27  N   UNL     1      -2.088  13.551  20.694  0.00  0.00    +0.000 NA
ATOM     28  C   UNL     1      -2.235  12.753  19.866  0.00  0.00    +0.000 C 
ENDBRANCH  21  28
ENDBRANCH  20  26
ENDBRANCH  19  20
ENDBRANCH   1  19
TORSDOF 7
ENDMDL
MODEL 9
REMARK VINA RESULT:      -6.7      4.267      8.727
REMARK  Name = 
REMARK  7 active torsions:
REMARK  status: ('A' for Active; 'I' for Inactive)
REMARK    1  A    between atoms: C_2  and  C_3
REMARK    2  A    between atoms: C_8  and  O_9
REMARK    3  A    between atoms: O_9  and  C_10
REMARK    4  A    between atoms: C_10  and  C_11
REMARK    5  A    between atoms: N_13  and  C_14
REMARK    6  A    between atoms: C_18  and  S_19
REMARK    7  A    between atoms: S_19  and  N_22
REMARK                            x       y       z     vdW  Elec       q    Type
REMARK                         _______ _______ _______ _____ _____    ______ ____
ROOT
ATOM      1  C   UNL     1       2.378   8.391  18.170  0.00  0.00    +0.000 C 
ATOM      2  O   UNL     1       3.342   8.074  17.465  0.00  0.00    +0.000 OA
ATOM      3  N   UNL     1       1.649   9.500  17.821  0.00  0.00    +0.000 N 
ATOM      4  H   UNL     1       2.118  10.068  17.124  0.00  0.00    +0.000 HD
ENDROOT
BRANCH   3   5
ATOM      5  C   UNL     1       0.496  10.021  18.423  0.00  0.00    +0.000 A 
ATOM      6  C   UNL     1      -0.732  10.070  17.757  0.00  0.00    +0.000 A 
ATOM      7  C   UNL     1      -1.854  10.628  18.374  0.00  0.00    +0.000 A 
ATOM      8  C   UNL     1      -1.736  11.214  19.633  0.00  0.00    +0.000 A 
ATOM      9  C   UNL     1      -0.489  11.229  20.263  0.00  0.00    +0.000 A 
ATOM     10  C   UNL     1       0.621  10.608  19.679  0.00  0.00    +0.000 A 
BRANCH   9  11
ATOM     11  S   UNL     1      -0.293  12.111  21.791  0.00  0.00    +0.000 S 
ATOM     12  O   UNL     1      -0.296  11.137  22.860  0.00  0.00    +0.000 OA
ATOM     13  O   UNL     1       0.804  13.045  21.631  0.00  0.00    +0.000 OA
BRANCH  11  14
ATOM     14  N   UNL     1      -1.729  13.032  21.908  0.00  0.00    +0.000 NA
ATOM     15  C   UNL     1      -1.606  14.501  22.071  0.00  0.00    +0.000 C 
ATOM     16  C   UNL     1      -1.801  14.754  23.551  0.00  0.00    +0.000 C 
ATOM     17  C   UNL     1      -2.844  13.729  23.947  0.00  0.00    +0.000 C 
ATOM     18  C   UNL     1      -2.661  12.561  22.978  0.00  0.00    +0.000 C 
ENDBRANCH  11  14
ENDBRANCH   9  11
ENDBRANCH   3   5
BRANCH   1  19
ATOM     19  C   UNL     1       2.060   7.639  19.461  0.00  0.00    +0.000 C 
BRANCH  19  20
ATOM     20  O   UNL     1       2.927   6.527  19.625  0.00  0.00    +0.000 OA
BRANCH  20  26
ATOM     21  C   UNL     1       2.792   4.323  18.407  0.00  0.00    +0.000 A 
ATOM     22  C   UNL     1       2.148   3.075  18.373  0.00  0.00    +0.000 A 
ATOM     23  C   UNL     1       1.178   2.741  19.315  0.00  0.00    +0.000 A 
ATOM     24  C   UNL     1       0.841   3.655  20.303  0.00  0.00    +0.000 A 
ATOM     25  C   UNL     1       1.473   4.900  20.344  0.00  0.00    +0.000 A 
ATOM     26  C   UNL     1       2.456   5.257  19.399  0.00  0.00    +0.000 A 
BRANCH  21  28
ATOM     27  N   UNL     1       4.543   4.715  16.532  0.00  0.00    +0.000 NA
ATOM     28  C   UNL     1       3.762   4.549  17.373  0.00  0.00    +0.000 C 
ENDBRANCH  21  28
ENDBRANCH  20  26
ENDBRANCH  19  20
ENDBRANCH   1  19
TORSDOF 7
ENDMDL
