MODEL 1
REMARK VINA RESULT:      -6.6      0.000      0.000
REMARK  Name = 
REMARK  4 active torsions:
REMARK  status: ('A' for Active; 'I' for Inactive)
REMARK    1  A    between atoms: C_1  and  N_2
REMARK    2  A    between atoms: C_3  and  C_4
REMARK    3  A    between atoms: C_4  and  C_5
REMARK    4  A    between atoms: C_5  and  C_6
REMARK                            x       y       z     vdW  Elec       q    Type
REMARK                         _______ _______ _______ _____ _____    ______ ____
ROOT
ATOM      1  C   UNL     1       7.315   6.595  17.965  0.00  0.00    +0.000 C 
ATOM      2  N   UNL     1       6.481   5.553  17.418  0.00  0.00    +0.000 N 
ATOM      3  C   UNL     1       5.500   4.811  18.044  0.00  0.00    +0.000 A 
ATOM      4  N   UNL     1       4.942   3.971  17.190  0.00  0.00    +0.000 NA
ATOM      5  C   UNL     1       5.577   4.163  15.993  0.00  0.00    +0.000 A 
ATOM      6  C   UNL     1       5.368   3.529  14.760  0.00  0.00    +0.000 A 
ATOM      7  C   UNL     1       6.153   3.912  13.663  0.00  0.00    +0.000 A 
ATOM      8 CL   UNL     1       5.864   3.103  12.162  0.00  0.00    +0.000 Cl
ATOM      9  C   UNL     1       7.126   4.913  13.792  0.00  0.00    +0.000 A 
ATOM     10 CL   UNL     1       8.114   5.418  12.463  0.00  0.00    +0.000 Cl
ATOM     11  C   UNL     1       7.339   5.557  15.020  0.00  0.00    +0.000 A 
ATOM     12  C   UNL     1       6.545   5.152  16.100  0.00  0.00    +0.000 A 
ENDROOT
BRANCH   3  13
ATOM     13  C   UNL     1       5.080   4.943  19.476  0.00  0.00    +0.000 C 
BRANCH  13  14
ATOM     14  C   UNL     1       3.675   5.527  19.631  0.00  0.00    +0.000 C 
BRANCH  14  15
ATOM     15  C   UNL     1       2.633   4.495  19.940  0.00  0.00    +0.000 A 
ATOM     16  N   UNL     1       2.380   4.007  21.140  0.00  0.00    +0.000 NA
ATOM     17  C   UNL     1       1.336   3.103  21.063  0.00  0.00    +0.000 A 
ATOM     18  C   UNL     1       0.794   2.921  19.810  0.00  0.00    +0.000 A 
ATOM     19  S   UNL     1       1.614   3.912  18.677  0.00  0.00    +0.000 S 
ENDBRANCH  14  15
ENDBRANCH  13  14
ENDBRANCH   3  13
TORSDOF 3
ENDMDL
MODEL 2
REMARK VINA RESULT:      -6.5      5.109      7.569
REMARK  Name = 
REMARK  4 active torsions:
REMARK  status: ('A' for Active; 'I' for Inactive)
REMARK    1  A    between atoms: C_1  and  N_2
REMARK    2  A    between atoms: C_3  and  C_4
REMARK    3  A    between atoms: C_4  and  C_5
REMARK    4  A    between atoms: C_5  and  C_6
REMARK                            x       y       z     vdW  Elec       q    Type
REMARK                         _______ _______ _______ _____ _____    ______ ____
ROOT
ATOM      1  C   UNL     1       2.953   4.942  20.217  0.00  0.00    +0.000 C 
ATOM      2  N   UNL     1       2.782   6.093  19.365  0.00  0.00    +0.000 N 
ATOM      3  C   UNL     1       3.210   6.280  18.067  0.00  0.00    +0.000 A 
ATOM      4  N   UNL     1       2.829   7.465  17.623  0.00  0.00    +0.000 NA
ATOM      5  C   UNL     1       2.150   8.061  18.651  0.00  0.00    +0.000 A 
ATOM      6  C   UNL     1       1.539   9.321  18.706  0.00  0.00    +0.000 A 
ATOM      7  C   UNL     1       0.891   9.705  19.889  0.00  0.00    +0.000 A 
ATOM      8 CL   UNL     1       0.152  11.269  19.913  0.00  0.00    +0.000 Cl
ATOM      9  C   UNL     1       0.850   8.846  20.996  0.00  0.00    +0.000 A 
ATOM     10 CL   UNL     1       0.058   9.281  22.473  0.00  0.00    +0.000 Cl
ATOM     11  C   UNL     1       1.454   7.581  20.949  0.00  0.00    +0.000 A 
ATOM     12  C   UNL     1       2.099   7.225  19.758  0.00  0.00    +0.000 A 
ENDROOT
BRANCH   3  13
ATOM     13  C   UNL     1       3.968   5.286  17.241  0.00  0.00    +0.000 C 
BRANCH  13  14
ATOM     14  C   UNL     1       5.044   5.936  16.370  0.00  0.00    +0.000 C 
BRANCH  14  15
ATOM     15  C   UNL     1       6.240   6.396  17.148  0.00  0.00    +0.000 A 
ATOM     16  N   UNL     1       6.867   7.543  16.969  0.00  0.00    +0.000 NA
ATOM     17  C   UNL     1       7.903   7.654  17.880  0.00  0.00    +0.000 A 
ATOM     18  C   UNL     1       8.045   6.600  18.753  0.00  0.00    +0.000 A 
ATOM     19  S   UNL     1       6.847   5.417  18.432  0.00  0.00    +0.000 S 
ENDBRANCH  14  15
ENDBRANCH  13  14
ENDBRANCH   3  13
TORSDOF 3
ENDMDL
MODEL 3
REMARK VINA RESULT:      -6.5      4.693      6.983
REMARK  Name = 
REMARK  4 active torsions:
REMARK  status: ('A' for Active; 'I' for Inactive)
REMARK    1  A    between atoms: C_1  and  N_2
REMARK    2  A    between atoms: C_3  and  C_4
REMARK    3  A    between atoms: C_4  and  C_5
REMARK    4  A    between atoms: C_5  and  C_6
REMARK                            x       y       z     vdW  Elec       q    Type
REMARK                         _______ _______ _______ _____ _____    ______ ____
ROOT
ATOM      1  C   UNL     1       2.202   4.680  21.105  0.00  0.00    +0.000 C 
ATOM      2  N   UNL     1       2.382   5.530  19.954  0.00  0.00    +0.000 N 
ATOM      3  C   UNL     1       2.934   5.221  18.727  0.00  0.00    +0.000 A 
ATOM      4  N   UNL     1       2.891   6.270  17.925  0.00  0.00    +0.000 NA
ATOM      5  C   UNL     1       2.311   7.280  18.644  0.00  0.00    +0.000 A 
ATOM      6  C   UNL     1       2.029   8.599  18.263  0.00  0.00    +0.000 A 
ATOM      7  C   UNL     1       1.415   9.452  19.192  0.00  0.00    +0.000 A 
ATOM      8 CL   UNL     1       1.087  11.071  18.681  0.00  0.00    +0.000 Cl
ATOM      9  C   UNL     1       1.084   8.996  20.476  0.00  0.00    +0.000 A 
ATOM     10 CL   UNL     1       0.324  10.015  21.650  0.00  0.00    +0.000 Cl
ATOM     11  C   UNL     1       1.358   7.677  20.864  0.00  0.00    +0.000 A 
ATOM     12  C   UNL     1       1.976   6.847  19.920  0.00  0.00    +0.000 A 
ENDROOT
BRANCH   3  13
ATOM     13  C   UNL     1       3.478   3.885  18.321  0.00  0.00    +0.000 C 
BRANCH  13  14
ATOM     14  C   UNL     1       4.807   3.554  19.000  0.00  0.00    +0.000 C 
BRANCH  14  15
ATOM     15  C   UNL     1       5.890   4.548  18.705  0.00  0.00    +0.000 A 
ATOM     16  N   UNL     1       6.613   5.175  19.613  0.00  0.00    +0.000 NA
ATOM     17  C   UNL     1       7.539   5.991  18.987  0.00  0.00    +0.000 A 
ATOM     18  C   UNL     1       7.522   5.967  17.610  0.00  0.00    +0.000 A 
ATOM     19  S   UNL     1       6.305   4.889  17.066  0.00  0.00    +0.000 S 
ENDBRANCH  14  15
ENDBRANCH  13  14
ENDBRANCH   3  13
TORSDOF 3
ENDMDL
MODEL 4
REMARK VINA RESULT:      -6.4      4.090      6.351
REMARK  Name = 
REMARK  4 active torsions:
REMARK  status: ('A' for Active; 'I' for Inactive)
REMARK    1  A    between atoms: C_1  and  N_2
REMARK    2  A    between atoms: C_3  and  C_4
REMARK    3  A    between atoms: C_4  and  C_5
REMARK    4  A    between atoms: C_5  and  C_6
REMARK                            x       y       z     vdW  Elec       q    Type
REMARK                         _______ _______ _______ _____ _____    ______ ____
ROOT
ATOM      1  C   UNL     1       4.320   7.075  16.492  0.00  0.00    +0.000 C 
ATOM      2  N   UNL     1       4.152   5.710  16.927  0.00  0.00    +0.000 N 
ATOM      3  C   UNL     1       4.665   4.555  16.374  0.00  0.00    +0.000 A 
ATOM      4  N   UNL     1       4.303   3.503  17.087  0.00  0.00    +0.000 NA
ATOM      5  C   UNL     1       3.536   3.980  18.115  0.00  0.00    +0.000 A 
ATOM      6  C   UNL     1       2.905   3.285  19.156  0.00  0.00    +0.000 A 
ATOM      7  C   UNL     1       2.170   4.012  20.103  0.00  0.00    +0.000 A 
ATOM      8 CL   UNL     1       1.406   3.114  21.369  0.00  0.00    +0.000 Cl
ATOM      9  C   UNL     1       2.069   5.407  20.017  0.00  0.00    +0.000 A 
ATOM     10 CL   UNL     1       1.175   6.341  21.167  0.00  0.00    +0.000 Cl
ATOM     11  C   UNL     1       2.701   6.112  18.982  0.00  0.00    +0.000 A 
ATOM     12  C   UNL     1       3.424   5.362  18.046  0.00  0.00    +0.000 A 
ENDROOT
BRANCH   3  13
ATOM     13  C   UNL     1       5.541   4.477  15.161  0.00  0.00    +0.000 C 
BRANCH  13  14
ATOM     14  C   UNL     1       7.031   4.475  15.504  0.00  0.00    +0.000 C 
BRANCH  14  15
ATOM     15  C   UNL     1       7.385   5.411  16.621  0.00  0.00    +0.000 A 
ATOM     16  N   UNL     1       7.516   6.718  16.503  0.00  0.00    +0.000 NA
ATOM     17  C   UNL     1       7.814   7.268  17.737  0.00  0.00    +0.000 A 
ATOM     18  C   UNL     1       7.892   6.378  18.784  0.00  0.00    +0.000 A 
ATOM     19  S   UNL     1       7.586   4.791  18.217  0.00  0.00    +0.000 S 
ENDBRANCH  14  15
ENDBRANCH  13  14
ENDBRANCH   3  13
TORSDOF 3
ENDMDL
MODEL 5
REMARK VINA RESULT:      -6.4      1.145      1.287
REMARK  Name = 
REMARK  4 active torsions:
REMARK  status: ('A' for Active; 'I' for Inactive)
REMARK    1  A    between atoms: C_1  and  N_2
REMARK    2  A    between atoms: C_3  and  C_4
REMARK    3  A    between atoms: C_4  and  C_5
REMARK    4  A    between atoms: C_5  and  C_6
REMARK                            x       y       z     vdW  Elec       q    Type
REMARK                         _______ _______ _______ _____ _____    ______ ____
ROOT
ATOM      1  C   UNL     1       7.480   5.804  18.216  0.00  0.00    +0.000 C 
ATOM      2  N   UNL     1       6.542   4.958  17.522  0.00  0.00    +0.000 N 
ATOM      3  C   UNL     1       5.484   4.234  18.035  0.00  0.00    +0.000 A 
ATOM      4  N   UNL     1       4.843   3.606  17.066  0.00  0.00    +0.000 NA
ATOM      5  C   UNL     1       5.499   3.918  15.905  0.00  0.00    +0.000 A 
ATOM      6  C   UNL     1       5.228   3.515  14.590  0.00  0.00    +0.000 A 
ATOM      7  C   UNL     1       6.054   3.982  13.558  0.00  0.00    +0.000 A 
ATOM      8 CL   UNL     1       5.685   3.458  11.952  0.00  0.00    +0.000 Cl
ATOM      9  C   UNL     1       7.128   4.840  13.832  0.00  0.00    +0.000 A 
ATOM     10 CL   UNL     1       8.169   5.442  12.587  0.00  0.00    +0.000 Cl
ATOM     11  C   UNL     1       7.404   5.253  15.144  0.00  0.00    +0.000 A 
ATOM     12  C   UNL     1       6.567   4.768  16.156  0.00  0.00    +0.000 A 
ENDROOT
BRANCH   3  13
ATOM     13  C   UNL     1       5.075   4.180  19.475  0.00  0.00    +0.000 C 
BRANCH  13  14
ATOM     14  C   UNL     1       4.412   2.856  19.854  0.00  0.00    +0.000 C 
BRANCH  14  15
ATOM     15  C   UNL     1       2.916   2.890  19.759  0.00  0.00    +0.000 A 
ATOM     16  N   UNL     1       2.196   2.222  18.878  0.00  0.00    +0.000 NA
ATOM     17  C   UNL     1       0.852   2.461  19.100  0.00  0.00    +0.000 A 
ATOM     18  C   UNL     1       0.560   3.297  20.155  0.00  0.00    +0.000 A 
ATOM     19  S   UNL     1       2.013   3.810  20.904  0.00  0.00    +0.000 S 
ENDBRANCH  14  15
ENDBRANCH  13  14
ENDBRANCH   3  13
TORSDOF 3
ENDMDL
MODEL 6
REMARK VINA RESULT:      -6.4      3.874      6.717
REMARK  Name = 
REMARK  4 active torsions:
REMARK  status: ('A' for Active; 'I' for Inactive)
REMARK    1  A    between atoms: C_1  and  N_2
REMARK    2  A    between atoms: C_3  and  C_4
REMARK    3  A    between atoms: C_4  and  C_5
REMARK    4  A    between atoms: C_5  and  C_6
REMARK                            x       y       z     vdW  Elec       q    Type
REMARK                         _______ _______ _______ _____ _____    ______ ____
ROOT
ATOM      1  C   UNL     1       6.490   5.369  19.464  0.00  0.00    +0.000 C 
ATOM      2  N   UNL     1       5.396   5.106  18.561  0.00  0.00    +0.000 N 
ATOM      3  C   UNL     1       5.281   5.425  17.224  0.00  0.00    +0.000 A 
ATOM      4  N   UNL     1       4.132   4.985  16.742  0.00  0.00    +0.000 NA
ATOM      5  C   UNL     1       3.486   4.377  17.785  0.00  0.00    +0.000 A 
ATOM      6  C   UNL     1       2.235   3.745  17.813  0.00  0.00    +0.000 A 
ATOM      7  C   UNL     1       1.791   3.185  19.020  0.00  0.00    +0.000 A 
ATOM      8 CL   UNL     1       0.241   2.416  19.010  0.00  0.00    +0.000 Cl
ATOM      9  C   UNL     1       2.581   3.250  20.175  0.00  0.00    +0.000 A 
ATOM     10 CL   UNL     1       2.070   2.570  21.683  0.00  0.00    +0.000 Cl
ATOM     11  C   UNL     1       3.836   3.876  20.156  0.00  0.00    +0.000 A 
ATOM     12  C   UNL     1       4.254   4.432  18.940  0.00  0.00    +0.000 A 
ENDROOT
BRANCH   3  13
ATOM     13  C   UNL     1       6.311   6.136  16.400  0.00  0.00    +0.000 C 
BRANCH  13  14
ATOM     14  C   UNL     1       7.388   5.197  15.856  0.00  0.00    +0.000 C 
BRANCH  14  15
ATOM     15  C   UNL     1       7.256   4.929  14.387  0.00  0.00    +0.000 A 
ATOM     16  N   UNL     1       7.965   5.516  13.442  0.00  0.00    +0.000 NA
ATOM     17  C   UNL     1       7.607   5.005  12.207  0.00  0.00    +0.000 A 
ATOM     18  C   UNL     1       6.640   4.025  12.224  0.00  0.00    +0.000 A 
ATOM     19  S   UNL     1       6.152   3.723  13.839  0.00  0.00    +0.000 S 
ENDBRANCH  14  15
ENDBRANCH  13  14
ENDBRANCH   3  13
TORSDOF 3
ENDMDL
MODEL 7
REMARK VINA RESULT:      -6.3      6.343      8.193
REMARK  Name = 
REMARK  4 active torsions:
REMARK  status: ('A' for Active; 'I' for Inactive)
REMARK    1  A    between atoms: C_1  and  N_2
REMARK    2  A    between atoms: C_3  and  C_4
REMARK    3  A    between atoms: C_4  and  C_5
REMARK    4  A    between atoms: C_5  and  C_6
REMARK                            x       y       z     vdW  Elec       q    Type
REMARK                         _______ _______ _______ _____ _____    ______ ____
ROOT
ATOM      1  C   UNL     1       2.079   9.216  17.708  0.00  0.00    +0.000 C 
ATOM      2  N   UNL     1       1.691   8.797  19.032  0.00  0.00    +0.000 N 
ATOM      3  C   UNL     1       2.043   7.650  19.715  0.00  0.00    +0.000 A 
ATOM      4  N   UNL     1       1.502   7.648  20.921  0.00  0.00    +0.000 NA
ATOM      5  C   UNL     1       0.779   8.806  21.020  0.00  0.00    +0.000 A 
ATOM      6  C   UNL     1       0.015   9.293  22.089  0.00  0.00    +0.000 A 
ATOM      7  C   UNL     1      -0.635  10.528  21.947  0.00  0.00    +0.000 A 
ATOM      8 CL   UNL     1      -1.569  11.089  23.290  0.00  0.00    +0.000 Cl
ATOM      9  C   UNL     1      -0.520  11.266  20.761  0.00  0.00    +0.000 A 
ATOM     10 CL   UNL     1      -1.303  12.794  20.545  0.00  0.00    +0.000 Cl
ATOM     11  C   UNL     1       0.246  10.790  19.687  0.00  0.00    +0.000 A 
ATOM     12  C   UNL     1       0.880   9.552  19.854  0.00  0.00    +0.000 A 
ENDROOT
BRANCH   3  13
ATOM     13  C   UNL     1       2.939   6.564  19.203  0.00  0.00    +0.000 C 
BRANCH  13  14
ATOM     14  C   UNL     1       2.265   5.687  18.148  0.00  0.00    +0.000 C 
BRANCH  14  15
ATOM     15  C   UNL     1       1.835   4.350  18.673  0.00  0.00    +0.000 A 
ATOM     16  N   UNL     1       1.262   3.401  17.956  0.00  0.00    +0.000 NA
ATOM     17  C   UNL     1       1.032   2.293  18.752  0.00  0.00    +0.000 A 
ATOM     18  C   UNL     1       1.445   2.401  20.060  0.00  0.00    +0.000 A 
ATOM     19  S   UNL     1       2.147   3.943  20.319  0.00  0.00    +0.000 S 
ENDBRANCH  14  15
ENDBRANCH  13  14
ENDBRANCH   3  13
TORSDOF 3
ENDMDL
MODEL 8
REMARK VINA RESULT:      -6.3      4.688      7.103
REMARK  Name = 
REMARK  4 active torsions:
REMARK  status: ('A' for Active; 'I' for Inactive)
REMARK    1  A    between atoms: C_1  and  N_2
REMARK    2  A    between atoms: C_3  and  C_4
REMARK    3  A    between atoms: C_4  and  C_5
REMARK    4  A    between atoms: C_5  and  C_6
REMARK                            x       y       z     vdW  Elec       q    Type
REMARK                         _______ _______ _______ _____ _____    ______ ____
ROOT
ATOM      1  C   UNL     1       2.217   4.648  21.156  0.00  0.00    +0.000 C 
ATOM      2  N   UNL     1       2.411   5.490  20.002  0.00  0.00    +0.000 N 
ATOM      3  C   UNL     1       2.986   5.176  18.788  0.00  0.00    +0.000 A 
ATOM      4  N   UNL     1       2.951   6.219  17.977  0.00  0.00    +0.000 NA
ATOM      5  C   UNL     1       2.351   7.230  18.679  0.00  0.00    +0.000 A 
ATOM      6  C   UNL     1       2.067   8.545  18.283  0.00  0.00    +0.000 A 
ATOM      7  C   UNL     1       1.431   9.400  19.194  0.00  0.00    +0.000 A 
ATOM      8 CL   UNL     1       1.101  11.014  18.666  0.00  0.00    +0.000 Cl
ATOM      9  C   UNL     1       1.081   8.951  20.476  0.00  0.00    +0.000 A 
ATOM     10 CL   UNL     1       0.294   9.974  21.629  0.00  0.00    +0.000 Cl
ATOM     11  C   UNL     1       1.357   7.637  20.879  0.00  0.00    +0.000 A 
ATOM     12  C   UNL     1       1.997   6.805  19.951  0.00  0.00    +0.000 A 
ENDROOT
BRANCH   3  13
ATOM     13  C   UNL     1       3.546   3.841  18.401  0.00  0.00    +0.000 C 
BRANCH  13  14
ATOM     14  C   UNL     1       3.816   3.723  16.901  0.00  0.00    +0.000 C 
BRANCH  14  15
ATOM     15  C   UNL     1       5.197   4.156  16.509  0.00  0.00    +0.000 A 
ATOM     16  N   UNL     1       6.195   4.362  17.348  0.00  0.00    +0.000 NA
ATOM     17  C   UNL     1       7.330   4.719  16.642  0.00  0.00    +0.000 A 
ATOM     18  C   UNL     1       7.191   4.766  15.273  0.00  0.00    +0.000 A 
ATOM     19  S   UNL     1       5.585   4.354  14.841  0.00  0.00    +0.000 S 
ENDBRANCH  14  15
ENDBRANCH  13  14
ENDBRANCH   3  13
TORSDOF 3
ENDMDL
MODEL 9
REMARK VINA RESULT:      -6.3      4.941      6.512
REMARK  Name = 
REMARK  4 active torsions:
REMARK  status: ('A' for Active; 'I' for Inactive)
REMARK    1  A    between atoms: C_1  and  N_2
REMARK    2  A    between atoms: C_3  and  C_4
REMARK    3  A    between atoms: C_4  and  C_5
REMARK    4  A    between atoms: C_5  and  C_6
REMARK                            x       y       z     vdW  Elec       q    Type
REMARK                         _______ _______ _______ _____ _____    ______ ____
ROOT
ATOM      1  C   UNL     1       3.046   5.324  20.391  0.00  0.00    +0.000 C 
ATOM      2  N   UNL     1       3.004   6.317  19.347  0.00  0.00    +0.000 N 
ATOM      3  C   UNL     1       3.615   6.300  18.110  0.00  0.00    +0.000 A 
ATOM      4  N   UNL     1       3.307   7.389  17.429  0.00  0.00    +0.000 NA
ATOM      5  C   UNL     1       2.491   8.131  18.239  0.00  0.00    +0.000 A 
ATOM      6  C   UNL     1       1.884   9.372  18.000  0.00  0.00    +0.000 A 
ATOM      7  C   UNL     1       1.075   9.931  19.000  0.00  0.00    +0.000 A 
ATOM      8 CL   UNL     1       0.347  11.463  18.663  0.00  0.00    +0.000 Cl
ATOM      9  C   UNL     1       0.871   9.262  20.215  0.00  0.00    +0.000 A 
ATOM     10 CL   UNL     1      -0.122   9.916  21.473  0.00  0.00    +0.000 Cl
ATOM     11  C   UNL     1       1.470   8.018  20.462  0.00  0.00    +0.000 A 
ATOM     12  C   UNL     1       2.277   7.485  19.449  0.00  0.00    +0.000 A 
ENDROOT
BRANCH   3  13
ATOM     13  C   UNL     1       4.479   5.199  17.574  0.00  0.00    +0.000 C 
BRANCH  13  14
ATOM     14  C   UNL     1       3.687   4.154  16.788  0.00  0.00    +0.000 C 
BRANCH  14  15
ATOM     15  C   UNL     1       2.757   3.346  17.642  0.00  0.00    +0.000 A 
ATOM     16  N   UNL     1       1.452   3.524  17.722  0.00  0.00    +0.000 NA
ATOM     17  C   UNL     1       0.906   2.583  18.577  0.00  0.00    +0.000 A 
ATOM     18  C   UNL     1       1.797   1.690  19.128  0.00  0.00    +0.000 A 
ATOM     19  S   UNL     1       3.379   2.030  18.566  0.00  0.00    +0.000 S 
ENDBRANCH  14  15
ENDBRANCH  13  14
ENDBRANCH   3  13
TORSDOF 3
ENDMDL
