MODEL 1
REMARK VINA RESULT:      -8.8      0.000      0.000
REMARK  Name = 
REMARK  3 active torsions:
REMARK  status: ('A' for Active; 'I' for Inactive)
REMARK    1  A    between atoms: S_2  and  C_4
REMARK    2  A    between atoms: S_2  and  N_13
REMARK    3  A    between atoms: N_16  and  C_17
REMARK                            x       y       z     vdW  Elec       q    Type
REMARK                         _______ _______ _______ _____ _____    ______ ____
ROOT
ATOM      1  N   UNL     1       2.234   3.968  18.567  0.00  0.00    +0.000 NA
ATOM      2  C   UNL     1       1.309   4.165  19.740  0.00  0.00    +0.000 C 
ATOM      3  C   UNL     1       1.701   5.345  20.674  0.00  0.00    +0.000 C 
ATOM      4  N   UNL     1       2.063   6.533  19.889  0.00  0.00    +0.000 N 
ATOM      5  C   UNL     1       3.071   6.302  18.848  0.00  0.00    +0.000 C 
ATOM      6  C   UNL     1       2.511   5.264  17.868  0.00  0.00    +0.000 C 
ENDROOT
BRANCH   4   7
ATOM      7  C   UNL     1       1.641   7.809  20.192  0.00  0.00    +0.000 A 
ATOM      8  C   UNL     1       1.281   8.189  21.492  0.00  0.00    +0.000 A 
ATOM      9  C   UNL     1       0.852   9.491  21.776  0.00  0.00    +0.000 A 
ATOM     10  C   UNL     1       0.765  10.424  20.754  0.00  0.00    +0.000 A 
ATOM     11  F   UNL     1       0.344  11.666  21.022  0.00  0.00    +0.000 F 
ATOM     12  C   UNL     1       1.106  10.083  19.456  0.00  0.00    +0.000 A 
ATOM     13  C   UNL     1       1.543   8.785  19.184  0.00  0.00    +0.000 A 
ENDBRANCH   4   7
BRANCH   1  15
ATOM     14  O   UNL     1       3.352   1.732  18.161  0.00  0.00    +0.000 OA
ATOM     15  S   UNL     1       3.604   3.000  18.814  0.00  0.00    +0.000 S 
ATOM     16  O   UNL     1       3.978   3.044  20.210  0.00  0.00    +0.000 OA
BRANCH  15  17
ATOM     17  C   UNL     1       4.859   3.816  17.915  0.00  0.00    +0.000 A 
ATOM     18  C   UNL     1       4.885   3.773  16.504  0.00  0.00    +0.000 A 
ATOM     19  C   UNL     1       5.898   4.401  15.739  0.00  0.00    +0.000 A 
ATOM     20  C   UNL     1       6.961   5.117  16.321  0.00  0.00    +0.000 A 
ATOM     21  C   UNL     1       6.943   5.170  17.729  0.00  0.00    +0.000 A 
ATOM     22  N   UNL     1       7.802   5.774  18.558  0.00  0.00    +0.000 NA
ATOM     23  O   UNL     1       7.335   5.520  19.834  0.00  0.00    +0.000 OA
ATOM     24  N   UNL     1       6.175   4.766  19.818  0.00  0.00    +0.000 NA
ATOM     25  C   UNL     1       5.904   4.526  18.527  0.00  0.00    +0.000 A 
ENDBRANCH  15  17
ENDBRANCH   1  15
TORSDOF 3
ENDMDL
MODEL 2
REMARK VINA RESULT:      -8.5      0.638      1.163
REMARK  Name = 
REMARK  3 active torsions:
REMARK  status: ('A' for Active; 'I' for Inactive)
REMARK    1  A    between atoms: S_2  and  C_4
REMARK    2  A    between atoms: S_2  and  N_13
REMARK    3  A    between atoms: N_16  and  C_17
REMARK                            x       y       z     vdW  Elec       q    Type
REMARK                         _______ _______ _______ _____ _____    ______ ____
ROOT
ATOM      1  N   UNL     1       2.443   4.252  18.442  0.00  0.00    +0.000 NA
ATOM      2  C   UNL     1       1.505   4.310  19.620  0.00  0.00    +0.000 C 
ATOM      3  C   UNL     1       1.808   5.456  20.625  0.00  0.00    +0.000 C 
ATOM      4  N   UNL     1       2.083   6.713  19.916  0.00  0.00    +0.000 N 
ATOM      5  C   UNL     1       3.108   6.620  18.869  0.00  0.00    +0.000 C 
ATOM      6  C   UNL     1       2.626   5.605  17.825  0.00  0.00    +0.000 C 
ENDROOT
BRANCH   4   7
ATOM      7  C   UNL     1       1.570   7.934  20.292  0.00  0.00    +0.000 A 
ATOM      8  C   UNL     1       1.406   8.989  19.384  0.00  0.00    +0.000 A 
ATOM      9  C   UNL     1       0.885  10.224  19.790  0.00  0.00    +0.000 A 
ATOM     10  C   UNL     1       0.537  10.419  21.118  0.00  0.00    +0.000 A 
ATOM     11  F   UNL     1       0.050  11.603  21.510  0.00  0.00    +0.000 F 
ATOM     12  C   UNL     1       0.691   9.402  22.045  0.00  0.00    +0.000 A 
ATOM     13  C   UNL     1       1.200   8.171  21.629  0.00  0.00    +0.000 A 
ENDBRANCH   4   7
BRANCH   1  15
ATOM     14  O   UNL     1       3.603   2.010  18.234  0.00  0.00    +0.000 OA
ATOM     15  S   UNL     1       3.879   3.373  18.639  0.00  0.00    +0.000 S 
ATOM     16  O   UNL     1       4.437   3.650  19.944  0.00  0.00    +0.000 OA
BRANCH  15  17
ATOM     17  C   UNL     1       4.959   4.067  17.455  0.00  0.00    +0.000 A 
ATOM     18  C   UNL     1       4.831   3.752  16.084  0.00  0.00    +0.000 A 
ATOM     19  C   UNL     1       5.700   4.274  15.095  0.00  0.00    +0.000 A 
ATOM     20  C   UNL     1       6.762   5.147  15.398  0.00  0.00    +0.000 A 
ATOM     21  C   UNL     1       6.897   5.472  16.762  0.00  0.00    +0.000 A 
ATOM     22  N   UNL     1       7.794   6.271  17.351  0.00  0.00    +0.000 NA
ATOM     23  O   UNL     1       7.493   6.244  18.700  0.00  0.00    +0.000 OA
ATOM     24  N   UNL     1       6.400   5.439  18.969  0.00  0.00    +0.000 NA
ATOM     25  C   UNL     1       6.007   4.939  17.790  0.00  0.00    +0.000 A 
ENDBRANCH  15  17
ENDBRANCH   1  15
TORSDOF 3
ENDMDL
MODEL 3
REMARK VINA RESULT:      -8.3      1.433      1.913
REMARK  Name = 
REMARK  3 active torsions:
REMARK  status: ('A' for Active; 'I' for Inactive)
REMARK    1  A    between atoms: S_2  and  C_4
REMARK    2  A    between atoms: S_2  and  N_13
REMARK    3  A    between atoms: N_16  and  C_17
REMARK                            x       y       z     vdW  Elec       q    Type
REMARK                         _______ _______ _______ _____ _____    ______ ____
ROOT
ATOM      1  N   UNL     1       3.634   5.475  19.381  0.00  0.00    +0.000 NA
ATOM      2  C   UNL     1       3.767   6.888  18.874  0.00  0.00    +0.000 C 
ATOM      3  C   UNL     1       2.430   7.679  18.821  0.00  0.00    +0.000 C 
ATOM      4  N   UNL     1       1.653   7.471  20.050  0.00  0.00    +0.000 N 
ATOM      5  C   UNL     1       1.441   6.066  20.417  0.00  0.00    +0.000 C 
ATOM      6  C   UNL     1       2.815   5.422  20.635  0.00  0.00    +0.000 C 
ENDROOT
BRANCH   4   7
ATOM      7  C   UNL     1       1.010   8.481  20.730  0.00  0.00    +0.000 A 
ATOM      8  C   UNL     1       0.885   8.482  22.126  0.00  0.00    +0.000 A 
ATOM      9  C   UNL     1       0.224   9.518  22.797  0.00  0.00    +0.000 A 
ATOM     10  C   UNL     1      -0.334  10.559  22.071  0.00  0.00    +0.000 A 
ATOM     11  F   UNL     1      -0.976  11.545  22.710  0.00  0.00    +0.000 F 
ATOM     12  C   UNL     1      -0.236  10.590  20.690  0.00  0.00    +0.000 A 
ATOM     13  C   UNL     1       0.435   9.558  20.031  0.00  0.00    +0.000 A 
ENDBRANCH   4   7
BRANCH   1  15
ATOM     14  O   UNL     1       2.066   4.724  17.540  0.00  0.00    +0.000 OA
ATOM     15  S   UNL     1       3.250   4.277  18.244  0.00  0.00    +0.000 S 
ATOM     16  O   UNL     1       3.277   2.981  18.884  0.00  0.00    +0.000 OA
BRANCH  15  17
ATOM     17  C   UNL     1       4.584   4.328  17.118  0.00  0.00    +0.000 A 
ATOM     18  C   UNL     1       4.359   4.308  15.724  0.00  0.00    +0.000 A 
ATOM     19  C   UNL     1       5.413   4.323  14.779  0.00  0.00    +0.000 A 
ATOM     20  C   UNL     1       6.770   4.358  15.151  0.00  0.00    +0.000 A 
ATOM     21  C   UNL     1       7.007   4.383  16.539  0.00  0.00    +0.000 A 
ATOM     22  N   UNL     1       8.175   4.424  17.191  0.00  0.00    +0.000 NA
ATOM     23  O   UNL     1       7.854   4.427  18.537  0.00  0.00    +0.000 OA
ATOM     24  N   UNL     1       6.486   4.400  18.741  0.00  0.00    +0.000 NA
ATOM     25  C   UNL     1       5.928   4.367  17.523  0.00  0.00    +0.000 A 
ENDBRANCH  15  17
ENDBRANCH   1  15
TORSDOF 3
ENDMDL
MODEL 4
REMARK VINA RESULT:      -8.3      1.593      1.904
REMARK  Name = 
REMARK  3 active torsions:
REMARK  status: ('A' for Active; 'I' for Inactive)
REMARK    1  A    between atoms: S_2  and  C_4
REMARK    2  A    between atoms: S_2  and  N_13
REMARK    3  A    between atoms: N_16  and  C_17
REMARK                            x       y       z     vdW  Elec       q    Type
REMARK                         _______ _______ _______ _____ _____    ______ ____
ROOT
ATOM      1  N   UNL     1       2.642   4.245  18.325  0.00  0.00    +0.000 NA
ATOM      2  C   UNL     1       1.542   4.301  19.353  0.00  0.00    +0.000 C 
ATOM      3  C   UNL     1       1.740   5.388  20.446  0.00  0.00    +0.000 C 
ATOM      4  N   UNL     1       2.170   6.658  19.845  0.00  0.00    +0.000 N 
ATOM      5  C   UNL     1       3.334   6.558  18.957  0.00  0.00    +0.000 C 
ATOM      6  C   UNL     1       2.972   5.612  17.806  0.00  0.00    +0.000 C 
ENDROOT
BRANCH   4   7
ATOM      7  C   UNL     1       1.658   7.887  20.200  0.00  0.00    +0.000 A 
ATOM      8  C   UNL     1       1.273   8.185  21.515  0.00  0.00    +0.000 A 
ATOM      9  C   UNL     1       0.752   9.440  21.852  0.00  0.00    +0.000 A 
ATOM     10  C   UNL     1       0.595  10.405  20.869  0.00  0.00    +0.000 A 
ATOM     11  F   UNL     1       0.086  11.602  21.188  0.00  0.00    +0.000 F 
ATOM     12  C   UNL     1       0.958  10.144  19.559  0.00  0.00    +0.000 A 
ATOM     13  C   UNL     1       1.488   8.894  19.234  0.00  0.00    +0.000 A 
ENDBRANCH   4   7
BRANCH   1  15
ATOM     14  O   UNL     1       3.988   2.175  17.765  0.00  0.00    +0.000 OA
ATOM     15  S   UNL     1       3.995   3.290  18.688  0.00  0.00    +0.000 S 
ATOM     16  O   UNL     1       4.052   3.061  20.114  0.00  0.00    +0.000 OA
BRANCH  15  17
ATOM     17  C   UNL     1       5.349   4.310  18.272  0.00  0.00    +0.000 A 
ATOM     18  C   UNL     1       6.057   5.019  19.267  0.00  0.00    +0.000 A 
ATOM     19  C   UNL     1       7.146   5.875  18.968  0.00  0.00    +0.000 A 
ATOM     20  C   UNL     1       7.609   6.091  17.657  0.00  0.00    +0.000 A 
ATOM     21  C   UNL     1       6.913   5.385  16.656  0.00  0.00    +0.000 A 
ATOM     22  N   UNL     1       7.121   5.379  15.334  0.00  0.00    +0.000 NA
ATOM     23  O   UNL     1       6.164   4.529  14.807  0.00  0.00    +0.000 OA
ATOM     24  N   UNL     1       5.357   3.988  15.792  0.00  0.00    +0.000 NA
ATOM     25  C   UNL     1       5.790   4.500  16.952  0.00  0.00    +0.000 A 
ENDBRANCH  15  17
ENDBRANCH   1  15
TORSDOF 3
ENDMDL
MODEL 5
REMARK VINA RESULT:      -8.2      0.886      1.395
REMARK  Name = 
REMARK  3 active torsions:
REMARK  status: ('A' for Active; 'I' for Inactive)
REMARK    1  A    between atoms: S_2  and  C_4
REMARK    2  A    between atoms: S_2  and  N_13
REMARK    3  A    between atoms: N_16  and  C_17
REMARK                            x       y       z     vdW  Elec       q    Type
REMARK                         _______ _______ _______ _____ _____    ______ ____
ROOT
ATOM      1  N   UNL     1       2.477   3.436  19.119  0.00  0.00    +0.000 NA
ATOM      2  C   UNL     1       2.405   4.192  20.421  0.00  0.00    +0.000 C 
ATOM      3  C   UNL     1       2.970   5.638  20.355  0.00  0.00    +0.000 C 
ATOM      4  N   UNL     1       2.501   6.327  19.146  0.00  0.00    +0.000 N 
ATOM      5  C   UNL     1       2.725   5.596  17.893  0.00  0.00    +0.000 C 
ATOM      6  C   UNL     1       1.968   4.265  17.979  0.00  0.00    +0.000 C 
ENDROOT
BRANCH   4   7
ATOM      7  C   UNL     1       2.045   7.626  19.131  0.00  0.00    +0.000 A 
ATOM      8  C   UNL     1       2.144   8.442  17.996  0.00  0.00    +0.000 A 
ATOM      9  C   UNL     1       1.677   9.761  18.005  0.00  0.00    +0.000 A 
ATOM     10  C   UNL     1       1.117  10.284  19.162  0.00  0.00    +0.000 A 
ATOM     11  F   UNL     1       0.680  11.549  19.176  0.00  0.00    +0.000 F 
ATOM     12  C   UNL     1       1.009   9.510  20.305  0.00  0.00    +0.000 A 
ATOM     13  C   UNL     1       1.467   8.192  20.282  0.00  0.00    +0.000 A 
ENDBRANCH   4   7
BRANCH   1  15
ATOM     14  O   UNL     1       3.582   1.524  17.879  0.00  0.00    +0.000 OA
ATOM     15  S   UNL     1       3.916   2.601  18.788  0.00  0.00    +0.000 S 
ATOM     16  O   UNL     1       4.608   2.326  20.027  0.00  0.00    +0.000 OA
BRANCH  15  17
ATOM     17  C   UNL     1       4.877   3.760  17.903  0.00  0.00    +0.000 A 
ATOM     18  C   UNL     1       4.728   3.910  16.507  0.00  0.00    +0.000 A 
ATOM     19  C   UNL     1       5.505   4.820  15.749  0.00  0.00    +0.000 A 
ATOM     20  C   UNL     1       6.487   5.648  16.324  0.00  0.00    +0.000 A 
ATOM     21  C   UNL     1       6.641   5.510  17.718  0.00  0.00    +0.000 A 
ATOM     22  N   UNL     1       7.477   6.156  18.538  0.00  0.00    +0.000 NA
ATOM     23  O   UNL     1       7.231   5.648  19.801  0.00  0.00    +0.000 OA
ATOM     24  N   UNL     1       6.234   4.690  19.786  0.00  0.00    +0.000 NA
ATOM     25  C   UNL     1       5.847   4.574  18.509  0.00  0.00    +0.000 A 
ENDBRANCH  15  17
ENDBRANCH   1  15
TORSDOF 3
ENDMDL
MODEL 6
REMARK VINA RESULT:      -8.1      1.316      1.507
REMARK  Name = 
REMARK  3 active torsions:
REMARK  status: ('A' for Active; 'I' for Inactive)
REMARK    1  A    between atoms: S_2  and  C_4
REMARK    2  A    between atoms: S_2  and  N_13
REMARK    3  A    between atoms: N_16  and  C_17
REMARK                            x       y       z     vdW  Elec       q    Type
REMARK                         _______ _______ _______ _____ _____    ______ ____
ROOT
ATOM      1  N   UNL     1       2.790   4.808  18.703  0.00  0.00    +0.000 NA
ATOM      2  C   UNL     1       1.846   4.767  19.877  0.00  0.00    +0.000 C 
ATOM      3  C   UNL     1       1.912   6.018  20.797  0.00  0.00    +0.000 C 
ATOM      4  N   UNL     1       1.946   7.250  19.998  0.00  0.00    +0.000 N 
ATOM      5  C   UNL     1       2.980   7.284  18.957  0.00  0.00    +0.000 C 
ATOM      6  C   UNL     1       2.714   6.124  17.990  0.00  0.00    +0.000 C 
ENDROOT
BRANCH   4   7
ATOM      7  C   UNL     1       1.202   8.373  20.289  0.00  0.00    +0.000 A 
ATOM      8  C   UNL     1       0.559   8.546  21.522  0.00  0.00    +0.000 A 
ATOM      9  C   UNL     1      -0.195   9.694  21.795  0.00  0.00    +0.000 A 
ATOM     10  C   UNL     1      -0.326  10.676  20.824  0.00  0.00    +0.000 A 
ATOM     11  F   UNL     1      -1.056  11.768  21.078  0.00  0.00    +0.000 F 
ATOM     12  C   UNL     1       0.289  10.536  19.591  0.00  0.00    +0.000 A 
ATOM     13  C   UNL     1       1.048   9.393  19.333  0.00  0.00    +0.000 A 
ENDBRANCH   4   7
BRANCH   1  15
ATOM     14  O   UNL     1       4.268   2.822  19.234  0.00  0.00    +0.000 OA
ATOM     15  S   UNL     1       4.367   4.240  18.957  0.00  0.00    +0.000 S 
ATOM     16  O   UNL     1       5.053   5.120  19.875  0.00  0.00    +0.000 OA
BRANCH  15  17
ATOM     17  C   UNL     1       5.131   4.420  17.397  0.00  0.00    +0.000 A 
ATOM     18  C   UNL     1       4.755   3.606  16.306  0.00  0.00    +0.000 A 
ATOM     19  C   UNL     1       5.366   3.704  15.032  0.00  0.00    +0.000 A 
ATOM     20  C   UNL     1       6.398   4.618  14.749  0.00  0.00    +0.000 A 
ATOM     21  C   UNL     1       6.779   5.439  15.829  0.00  0.00    +0.000 A 
ATOM     22  N   UNL     1       7.714   6.396  15.868  0.00  0.00    +0.000 NA
ATOM     23  O   UNL     1       7.692   6.890  17.160  0.00  0.00    +0.000 OA
ATOM     24  N   UNL     1       6.740   6.256  17.938  0.00  0.00    +0.000 NA
ATOM     25  C   UNL     1       6.156   5.346  17.147  0.00  0.00    +0.000 A 
ENDBRANCH  15  17
ENDBRANCH   1  15
TORSDOF 3
ENDMDL
MODEL 7
REMARK VINA RESULT:      -8.0      1.356      1.877
REMARK  Name = 
REMARK  3 active torsions:
REMARK  status: ('A' for Active; 'I' for Inactive)
REMARK    1  A    between atoms: S_2  and  C_4
REMARK    2  A    between atoms: S_2  and  N_13
REMARK    3  A    between atoms: N_16  and  C_17
REMARK                            x       y       z     vdW  Elec       q    Type
REMARK                         _______ _______ _______ _____ _____    ______ ____
ROOT
ATOM      1  N   UNL     1       3.067   4.680  18.832  0.00  0.00    +0.000 NA
ATOM      2  C   UNL     1       2.187   4.734  20.055  0.00  0.00    +0.000 C 
ATOM      3  C   UNL     1       2.217   6.094  20.806  0.00  0.00    +0.000 C 
ATOM      4  N   UNL     1       2.130   7.214  19.860  0.00  0.00    +0.000 N 
ATOM      5  C   UNL     1       3.107   7.175  18.764  0.00  0.00    +0.000 C 
ATOM      6  C   UNL     1       2.870   5.887  17.966  0.00  0.00    +0.000 C 
ENDROOT
BRANCH   4   7
ATOM      7  C   UNL     1       1.330   8.319  20.050  0.00  0.00    +0.000 A 
ATOM      8  C   UNL     1       1.175   9.309  19.070  0.00  0.00    +0.000 A 
ATOM      9  C   UNL     1       0.359  10.425  19.286  0.00  0.00    +0.000 A 
ATOM     10  C   UNL     1      -0.300  10.570  20.498  0.00  0.00    +0.000 A 
ATOM     11  F   UNL     1      -1.071  11.643  20.712  0.00  0.00    +0.000 F 
ATOM     12  C   UNL     1      -0.165   9.617  21.493  0.00  0.00    +0.000 A 
ATOM     13  C   UNL     1       0.642   8.501  21.264  0.00  0.00    +0.000 A 
ENDBRANCH   4   7
BRANCH   1  15
ATOM     14  O   UNL     1       4.700   2.850  19.463  0.00  0.00    +0.000 OA
ATOM     15  S   UNL     1       4.689   4.242  19.064  0.00  0.00    +0.000 S 
ATOM     16  O   UNL     1       5.345   5.243  19.875  0.00  0.00    +0.000 OA
BRANCH  15  17
ATOM     17  C   UNL     1       5.379   4.338  17.463  0.00  0.00    +0.000 A 
ATOM     18  C   UNL     1       5.041   3.393  16.469  0.00  0.00    +0.000 A 
ATOM     19  C   UNL     1       5.597   3.421  15.167  0.00  0.00    +0.000 A 
ATOM     20  C   UNL     1       6.531   4.390  14.757  0.00  0.00    +0.000 A 
ATOM     21  C   UNL     1       6.872   5.341  15.738  0.00  0.00    +0.000 A 
ATOM     22  N   UNL     1       7.716   6.376  15.648  0.00  0.00    +0.000 NA
ATOM     23  O   UNL     1       7.694   6.988  16.888  0.00  0.00    +0.000 OA
ATOM     24  N   UNL     1       6.831   6.352  17.762  0.00  0.00    +0.000 NA
ATOM     25  C   UNL     1       6.306   5.322  17.084  0.00  0.00    +0.000 A 
ENDBRANCH  15  17
ENDBRANCH   1  15
TORSDOF 3
ENDMDL
MODEL 8
REMARK VINA RESULT:      -8.0      5.953      9.708
REMARK  Name = 
REMARK  3 active torsions:
REMARK  status: ('A' for Active; 'I' for Inactive)
REMARK    1  A    between atoms: S_2  and  C_4
REMARK    2  A    between atoms: S_2  and  N_13
REMARK    3  A    between atoms: N_16  and  C_17
REMARK                            x       y       z     vdW  Elec       q    Type
REMARK                         _______ _______ _______ _____ _____    ______ ____
ROOT
ATOM      1  N   UNL     1      -0.735  10.034  20.989  0.00  0.00    +0.000 NA
ATOM      2  C   UNL     1      -0.359  10.198  19.539  0.00  0.00    +0.000 C 
ATOM      3  C   UNL     1       1.119   9.842  19.216  0.00  0.00    +0.000 C 
ATOM      4  N   UNL     1       1.512   8.592  19.880  0.00  0.00    +0.000 N 
ATOM      5  C   UNL     1       1.242   8.548  21.322  0.00  0.00    +0.000 C 
ATOM      6  C   UNL     1      -0.268   8.716  21.527  0.00  0.00    +0.000 C 
ENDROOT
BRANCH   4   7
ATOM      7  C   UNL     1       2.235   7.593  19.267  0.00  0.00    +0.000 A 
ATOM      8  C   UNL     1       2.900   7.790  18.049  0.00  0.00    +0.000 A 
ATOM      9  C   UNL     1       3.627   6.759  17.443  0.00  0.00    +0.000 A 
ATOM     10  C   UNL     1       3.681   5.510  18.045  0.00  0.00    +0.000 A 
ATOM     11  F   UNL     1       4.365   4.519  17.460  0.00  0.00    +0.000 F 
ATOM     12  C   UNL     1       3.030   5.276  19.244  0.00  0.00    +0.000 A 
ATOM     13  C   UNL     1       2.318   6.314  19.848  0.00  0.00    +0.000 A 
ENDBRANCH   4   7
BRANCH   1  15
ATOM     14  O   UNL     1       0.657  12.098  21.451  0.00  0.00    +0.000 OA
ATOM     15  S   UNL     1      -0.446  11.351  22.018  0.00  0.00    +0.000 S 
ATOM     16  O   UNL     1      -0.392  10.889  23.386  0.00  0.00    +0.000 OA
BRANCH  15  17
ATOM     17  C   UNL     1      -1.883  12.329  21.857  0.00  0.00    +0.000 A 
ATOM     18  C   UNL     1      -2.011  13.264  20.806  0.00  0.00    +0.000 A 
ATOM     19  C   UNL     1      -3.150  14.092  20.654  0.00  0.00    +0.000 A 
ATOM     20  C   UNL     1      -4.245  14.054  21.538  0.00  0.00    +0.000 A 
ATOM     21  C   UNL     1      -4.130  13.122  22.588  0.00  0.00    +0.000 A 
ATOM     22  N   UNL     1      -4.998  12.852  23.570  0.00  0.00    +0.000 NA
ATOM     23  O   UNL     1      -4.404  11.865  24.336  0.00  0.00    +0.000 OA
ATOM     24  N   UNL     1      -3.167  11.500  23.837  0.00  0.00    +0.000 NA
ATOM     25  C   UNL     1      -2.961  12.263  22.754  0.00  0.00    +0.000 A 
ENDBRANCH  15  17
ENDBRANCH   1  15
TORSDOF 3
ENDMDL
MODEL 9
REMARK VINA RESULT:      -7.9      1.077      1.174
REMARK  Name = 
REMARK  3 active torsions:
REMARK  status: ('A' for Active; 'I' for Inactive)
REMARK    1  A    between atoms: S_2  and  C_4
REMARK    2  A    between atoms: S_2  and  N_13
REMARK    3  A    between atoms: N_16  and  C_17
REMARK                            x       y       z     vdW  Elec       q    Type
REMARK                         _______ _______ _______ _____ _____    ______ ____
ROOT
ATOM      1  N   UNL     1       2.250   4.176  18.404  0.00  0.00    +0.000 NA
ATOM      2  C   UNL     1       1.141   3.978  19.404  0.00  0.00    +0.000 C 
ATOM      3  C   UNL     1       1.309   4.790  20.719  0.00  0.00    +0.000 C 
ATOM      4  N   UNL     1       1.722   6.169  20.430  0.00  0.00    +0.000 N 
ATOM      5  C   UNL     1       2.895   6.294  19.557  0.00  0.00    +0.000 C 
ATOM      6  C   UNL     1       2.560   5.630  18.216  0.00  0.00    +0.000 C 
ENDROOT
BRANCH   4   7
ATOM      7  C   UNL     1       1.185   7.276  21.049  0.00  0.00    +0.000 A 
ATOM      8  C   UNL     1      -0.196   7.516  21.088  0.00  0.00    +0.000 A 
ATOM      9  C   UNL     1      -0.720   8.649  21.721  0.00  0.00    +0.000 A 
ATOM     10  C   UNL     1       0.139   9.566  22.309  0.00  0.00    +0.000 A 
ATOM     11  F   UNL     1      -0.360  10.656  22.904  0.00  0.00    +0.000 F 
ATOM     12  C   UNL     1       1.509   9.366  22.285  0.00  0.00    +0.000 A 
ATOM     13  C   UNL     1       2.021   8.227  21.661  0.00  0.00    +0.000 A 
ENDBRANCH   4   7
BRANCH   1  15
ATOM     14  O   UNL     1       3.365   1.990  17.777  0.00  0.00    +0.000 OA
ATOM     15  S   UNL     1       3.617   3.184  18.558  0.00  0.00    +0.000 S 
ATOM     16  O   UNL     1       3.984   3.084  19.952  0.00  0.00    +0.000 OA
BRANCH  15  17
ATOM     17  C   UNL     1       4.878   4.084  17.752  0.00  0.00    +0.000 A 
ATOM     18  C   UNL     1       4.903   4.196  16.344  0.00  0.00    +0.000 A 
ATOM     19  C   UNL     1       5.920   4.897  15.651  0.00  0.00    +0.000 A 
ATOM     20  C   UNL     1       6.989   5.535  16.307  0.00  0.00    +0.000 A 
ATOM     21  C   UNL     1       6.972   5.433  17.712  0.00  0.00    +0.000 A 
ATOM     22  N   UNL     1       7.838   5.935  18.601  0.00  0.00    +0.000 NA
ATOM     23  O   UNL     1       7.369   5.545  19.843  0.00  0.00    +0.000 OA
ATOM     24  N   UNL     1       6.203   4.808  19.745  0.00  0.00    +0.000 NA
ATOM     25  C   UNL     1       5.929   4.714  18.437  0.00  0.00    +0.000 A 
ENDBRANCH  15  17
ENDBRANCH   1  15
TORSDOF 3
ENDMDL
