MODEL 1
REMARK VINA RESULT:      -7.1      0.000      0.000
REMARK  Name = 
REMARK  7 active torsions:
REMARK  status: ('A' for Active; 'I' for Inactive)
REMARK    1  A    between atoms: C_1  and  C_2
REMARK    2  A    between atoms: C_2  and  O_3
REMARK    3  A    between atoms: O_3  and  C_4
REMARK    4  A    between atoms: C_6  and  O_7
REMARK    5  A    between atoms: C_12  and  C_14
REMARK    6  A    between atoms: C_14  and  N_15
REMARK    7  A    between atoms: C_18  and  C_19
REMARK                            x       y       z     vdW  Elec       q    Type
REMARK                         _______ _______ _______ _____ _____    ______ ____
ROOT
ATOM      1  C   UNL     1       5.848   3.428  13.155  0.00  0.00    +0.000 C 
ATOM      2  C   UNL     1       7.148   3.903  12.452  0.00  0.00    +0.000 C 
ATOM      3  C   UNL     1       7.037   5.205  13.277  0.00  0.00    +0.000 C 
ATOM      4  C   UNL     1       6.259   4.374  14.356  0.00  0.00    +0.000 C 
ATOM      5  C   UNL     1       5.076   5.105  15.013  0.00  0.00    +0.000 C 
ATOM      6  C   UNL     1       5.583   6.062  16.089  0.00  0.00    +0.000 C 
ATOM      7  N   UNL     1       6.371   5.329  17.080  0.00  0.00    +0.000 N 
ATOM      8  C   UNL     1       6.106   5.245  18.438  0.00  0.00    +0.000 C 
ATOM      9  O   UNL     1       6.870   4.660  19.215  0.00  0.00    +0.000 OA
ATOM     10  C   UNL     1       7.537   4.647  16.530  0.00  0.00    +0.000 C 
ATOM     11  C   UNL     1       7.116   3.667  15.432  0.00  0.00    +0.000 C 
ENDROOT
BRANCH   3  12
ATOM     12  O   UNL     1       8.270   5.832  13.663  0.00  0.00    +0.000 OA
ATOM     13  H   UNL     1       8.467   5.518  14.560  0.00  0.00    +0.000 HD
ENDBRANCH   3  12
BRANCH   1  14
ATOM     14  O   UNL     1       4.606   3.763  12.484  0.00  0.00    +0.000 OA
BRANCH  14  16
ATOM     15  C   UNL     1       3.402   3.833  10.408  0.00  0.00    +0.000 C 
ATOM     16  C   UNL     1       4.283   3.004  11.320  0.00  0.00    +0.000 C 
ENDBRANCH  14  16
ENDBRANCH   1  14
BRANCH   8  17
ATOM     17  C   UNL     1       4.842   5.912  18.996  0.00  0.00    +0.000 C 
BRANCH  17  18
ATOM     18  N   UNL     1       3.660   5.048  19.061  0.00  0.00    +0.000 N 
ATOM     19  C   UNL     1       3.742   3.834  19.725  0.00  0.00    +0.000 A 
ATOM     20  C   UNL     1       2.734   2.951  19.688  0.00  0.00    +0.000 A 
ATOM     21  C   UNL     1       1.539   3.234  18.925  0.00  0.00    +0.000 A 
ATOM     22  C   UNL     1       0.486   2.175  18.801  0.00  0.00    +0.000 C 
ATOM     23  C   UNL     1       1.417   4.422  18.311  0.00  0.00    +0.000 A 
ATOM     24  C   UNL     1       2.520   5.420  18.354  0.00  0.00    +0.000 A 
ATOM     25  O   UNL     1       2.383   6.478  17.744  0.00  0.00    +0.000 OA
ENDBRANCH  17  18
ENDBRANCH   8  17
TORSDOF 5
ENDMDL
MODEL 2
REMARK VINA RESULT:      -6.7      1.125      1.192
REMARK  Name = 
REMARK  7 active torsions:
REMARK  status: ('A' for Active; 'I' for Inactive)
REMARK    1  A    between atoms: C_1  and  C_2
REMARK    2  A    between atoms: C_2  and  O_3
REMARK    3  A    between atoms: O_3  and  C_4
REMARK    4  A    between atoms: C_6  and  O_7
REMARK    5  A    between atoms: C_12  and  C_14
REMARK    6  A    between atoms: C_14  and  N_15
REMARK    7  A    between atoms: C_18  and  C_19
REMARK                            x       y       z     vdW  Elec       q    Type
REMARK                         _______ _______ _______ _____ _____    ______ ____
ROOT
ATOM      1  C   UNL     1       5.788   3.434  12.799  0.00  0.00    +0.000 C 
ATOM      2  C   UNL     1       7.175   3.833  12.225  0.00  0.00    +0.000 C 
ATOM      3  C   UNL     1       7.049   5.151  13.021  0.00  0.00    +0.000 C 
ATOM      4  C   UNL     1       6.125   4.376  14.025  0.00  0.00    +0.000 C 
ATOM      5  C   UNL     1       4.923   5.176  14.553  0.00  0.00    +0.000 C 
ATOM      6  C   UNL     1       5.368   6.122  15.665  0.00  0.00    +0.000 C 
ATOM      7  N   UNL     1       6.015   5.367  16.737  0.00  0.00    +0.000 N 
ATOM      8  C   UNL     1       5.612   5.317  18.062  0.00  0.00    +0.000 C 
ATOM      9  O   UNL     1       6.264   4.706  18.918  0.00  0.00    +0.000 OA
ATOM     10  C   UNL     1       7.193   4.619  16.314  0.00  0.00    +0.000 C 
ATOM     11  C   UNL     1       6.833   3.644  15.188  0.00  0.00    +0.000 C 
ENDROOT
BRANCH   3  12
ATOM     12  O   UNL     1       8.268   5.721  13.522  0.00  0.00    +0.000 OA
ATOM     13  H   UNL     1       8.112   5.918  14.459  0.00  0.00    +0.000 HD
ENDBRANCH   3  12
BRANCH   1  14
ATOM     14  O   UNL     1       4.638   3.821  12.003  0.00  0.00    +0.000 OA
BRANCH  14  16
ATOM     15  C   UNL     1       3.241   3.547  10.069  0.00  0.00    +0.000 C 
ATOM     16  C   UNL     1       4.162   2.864  11.059  0.00  0.00    +0.000 C 
ENDBRANCH  14  16
ENDBRANCH   1  14
BRANCH   8  17
ATOM     17  C   UNL     1       4.335   6.055  18.484  0.00  0.00    +0.000 C 
BRANCH  17  18
ATOM     18  N   UNL     1       3.332   5.226  19.160  0.00  0.00    +0.000 N 
ATOM     19  C   UNL     1       3.040   5.466  20.493  0.00  0.00    +0.000 A 
ATOM     20  C   UNL     1       2.239   4.647  21.189  0.00  0.00    +0.000 A 
ATOM     21  C   UNL     1       1.679   3.467  20.567  0.00  0.00    +0.000 A 
ATOM     22  C   UNL     1       0.891   2.506  21.405  0.00  0.00    +0.000 C 
ATOM     23  C   UNL     1       1.910   3.238  19.264  0.00  0.00    +0.000 A 
ATOM     24  C   UNL     1       2.785   4.145  18.473  0.00  0.00    +0.000 A 
ATOM     25  O   UNL     1       3.003   3.876  17.295  0.00  0.00    +0.000 OA
ENDBRANCH  17  18
ENDBRANCH   8  17
TORSDOF 5
ENDMDL
MODEL 3
REMARK VINA RESULT:      -6.7      2.035      7.102
REMARK  Name = 
REMARK  7 active torsions:
REMARK  status: ('A' for Active; 'I' for Inactive)
REMARK    1  A    between atoms: C_1  and  C_2
REMARK    2  A    between atoms: C_2  and  O_3
REMARK    3  A    between atoms: O_3  and  C_4
REMARK    4  A    between atoms: C_6  and  O_7
REMARK    5  A    between atoms: C_12  and  C_14
REMARK    6  A    between atoms: C_14  and  N_15
REMARK    7  A    between atoms: C_18  and  C_19
REMARK                            x       y       z     vdW  Elec       q    Type
REMARK                         _______ _______ _______ _____ _____    ______ ____
ROOT
ATOM      1  C   UNL     1       2.539   6.562  20.134  0.00  0.00    +0.000 C 
ATOM      2  C   UNL     1       1.801   5.268  20.573  0.00  0.00    +0.000 C 
ATOM      3  C   UNL     1       2.084   4.709  19.161  0.00  0.00    +0.000 C 
ATOM      4  C   UNL     1       3.337   5.653  19.113  0.00  0.00    +0.000 C 
ATOM      5  C   UNL     1       3.598   6.318  17.751  0.00  0.00    +0.000 C 
ATOM      6  C   UNL     1       4.283   5.331  16.808  0.00  0.00    +0.000 C 
ATOM      7  N   UNL     1       5.524   4.843  17.408  0.00  0.00    +0.000 N 
ATOM      8  C   UNL     1       6.796   4.971  16.876  0.00  0.00    +0.000 C 
ATOM      9  O   UNL     1       7.785   4.463  17.420  0.00  0.00    +0.000 OA
ATOM     10  C   UNL     1       5.342   4.160  18.684  0.00  0.00    +0.000 C 
ATOM     11  C   UNL     1       4.652   5.083  19.692  0.00  0.00    +0.000 C 
ENDROOT
BRANCH   3  12
ATOM     12  O   UNL     1       2.297   3.293  19.058  0.00  0.00    +0.000 OA
ATOM     13  H   UNL     1       1.630   2.875  19.625  0.00  0.00    +0.000 HD
ENDBRANCH   3  12
BRANCH   1  14
ATOM     14  O   UNL     1       1.708   7.596  19.545  0.00  0.00    +0.000 OA
BRANCH  14  16
ATOM     15  C   UNL     1       0.368   8.443  21.348  0.00  0.00    +0.000 C 
ATOM     16  C   UNL     1       1.460   8.750  20.344  0.00  0.00    +0.000 C 
ENDBRANCH  14  16
ENDBRANCH   1  14
BRANCH   8  17
ATOM     17  C   UNL     1       6.985   5.748  15.566  0.00  0.00    +0.000 C 
BRANCH  17  18
ATOM     18  N   UNL     1       6.733   4.978  14.345  0.00  0.00    +0.000 N 
ATOM     19  C   UNL     1       5.694   4.060  14.323  0.00  0.00    +0.000 A 
ATOM     20  C   UNL     1       5.515   3.235  13.282  0.00  0.00    +0.000 A 
ATOM     21  C   UNL     1       6.427   3.263  12.160  0.00  0.00    +0.000 A 
ATOM     22  C   UNL     1       6.275   2.244  11.072  0.00  0.00    +0.000 C 
ATOM     23  C   UNL     1       7.413   4.175  12.136  0.00  0.00    +0.000 A 
ATOM     24  C   UNL     1       7.617   5.108  13.277  0.00  0.00    +0.000 A 
ATOM     25  O   UNL     1       8.556   5.899  13.233  0.00  0.00    +0.000 OA
ENDBRANCH  17  18
ENDBRANCH   8  17
TORSDOF 5
ENDMDL
MODEL 4
REMARK VINA RESULT:      -6.5      1.877      6.810
REMARK  Name = 
REMARK  7 active torsions:
REMARK  status: ('A' for Active; 'I' for Inactive)
REMARK    1  A    between atoms: C_1  and  C_2
REMARK    2  A    between atoms: C_2  and  O_3
REMARK    3  A    between atoms: O_3  and  C_4
REMARK    4  A    between atoms: C_6  and  O_7
REMARK    5  A    between atoms: C_12  and  C_14
REMARK    6  A    between atoms: C_14  and  N_15
REMARK    7  A    between atoms: C_18  and  C_19
REMARK                            x       y       z     vdW  Elec       q    Type
REMARK                         _______ _______ _______ _____ _____    ______ ____
ROOT
ATOM      1  C   UNL     1       2.856   4.334  20.350  0.00  0.00    +0.000 C 
ATOM      2  C   UNL     1       3.380   3.044  21.037  0.00  0.00    +0.000 C 
ATOM      3  C   UNL     1       3.786   2.543  19.634  0.00  0.00    +0.000 C 
ATOM      4  C   UNL     1       3.914   4.048  19.208  0.00  0.00    +0.000 C 
ATOM      5  C   UNL     1       3.411   4.368  17.791  0.00  0.00    +0.000 C 
ATOM      6  C   UNL     1       4.462   3.969  16.758  0.00  0.00    +0.000 C 
ATOM      7  N   UNL     1       5.726   4.649  17.040  0.00  0.00    +0.000 N 
ATOM      8  C   UNL     1       6.401   5.508  16.188  0.00  0.00    +0.000 C 
ATOM      9  O   UNL     1       7.505   5.984  16.483  0.00  0.00    +0.000 OA
ATOM     10  C   UNL     1       6.283   4.352  18.355  0.00  0.00    +0.000 C 
ATOM     11  C   UNL     1       5.284   4.720  19.456  0.00  0.00    +0.000 C 
ENDROOT
BRANCH   3  12
ATOM     12  O   UNL     1       4.957   1.715  19.557  0.00  0.00    +0.000 OA
ATOM     13  H   UNL     1       4.641   0.808  19.416  0.00  0.00    +0.000 HD
ENDBRANCH   3  12
BRANCH   1  14
ATOM     14  O   UNL     1       1.463   4.312  19.941  0.00  0.00    +0.000 OA
BRANCH  14  16
ATOM     15  C   UNL     1       0.379   2.451  18.880  0.00  0.00    +0.000 C 
ATOM     16  C   UNL     1       0.740   3.109  20.196  0.00  0.00    +0.000 C 
ENDBRANCH  14  16
ENDBRANCH   1  14
BRANCH   8  17
ATOM     17  C   UNL     1       5.775   5.864  14.834  0.00  0.00    +0.000 C 
BRANCH  17  18
ATOM     18  N   UNL     1       6.079   4.933  13.743  0.00  0.00    +0.000 N 
ATOM     19  C   UNL     1       5.147   3.966  13.396  0.00  0.00    +0.000 A 
ATOM     20  C   UNL     1       5.438   3.007  12.506  0.00  0.00    +0.000 A 
ATOM     21  C   UNL     1       6.750   2.939  11.904  0.00  0.00    +0.000 A 
ATOM     22  C   UNL     1       7.083   1.783  11.011  0.00  0.00    +0.000 C 
ATOM     23  C   UNL     1       7.655   3.890  12.189  0.00  0.00    +0.000 A 
ATOM     24  C   UNL     1       7.344   4.971  13.164  0.00  0.00    +0.000 A 
ATOM     25  O   UNL     1       8.215   5.797  13.427  0.00  0.00    +0.000 OA
ENDBRANCH  17  18
ENDBRANCH   8  17
TORSDOF 5
ENDMDL
MODEL 5
REMARK VINA RESULT:      -6.3      3.327      4.620
REMARK  Name = 
REMARK  7 active torsions:
REMARK  status: ('A' for Active; 'I' for Inactive)
REMARK    1  A    between atoms: C_1  and  C_2
REMARK    2  A    between atoms: C_2  and  O_3
REMARK    3  A    between atoms: O_3  and  C_4
REMARK    4  A    between atoms: C_6  and  O_7
REMARK    5  A    between atoms: C_12  and  C_14
REMARK    6  A    between atoms: C_14  and  N_15
REMARK    7  A    between atoms: C_18  and  C_19
REMARK                            x       y       z     vdW  Elec       q    Type
REMARK                         _______ _______ _______ _____ _____    ______ ____
ROOT
ATOM      1  C   UNL     1       6.009   4.528  14.920  0.00  0.00    +0.000 C 
ATOM      2  C   UNL     1       7.031   3.689  15.734  0.00  0.00    +0.000 C 
ATOM      3  C   UNL     1       6.943   4.772  16.832  0.00  0.00    +0.000 C 
ATOM      4  C   UNL     1       5.497   5.086  16.310  0.00  0.00    +0.000 C 
ATOM      5  C   UNL     1       5.123   6.578  16.290  0.00  0.00    +0.000 C 
ATOM      6  C   UNL     1       4.737   7.041  17.692  0.00  0.00    +0.000 C 
ATOM      7  N   UNL     1       3.638   6.225  18.206  0.00  0.00    +0.000 N 
ATOM      8  C   UNL     1       2.391   6.685  18.599  0.00  0.00    +0.000 C 
ATOM      9  O   UNL     1       1.544   5.928  19.090  0.00  0.00    +0.000 OA
ATOM     10  C   UNL     1       3.942   4.801  18.294  0.00  0.00    +0.000 C 
ATOM     11  C   UNL     1       4.347   4.254  16.922  0.00  0.00    +0.000 C 
ENDROOT
BRANCH   3  12
ATOM     12  O   UNL     1       7.093   4.328  18.190  0.00  0.00    +0.000 OA
ATOM     13  H   UNL     1       6.611   4.966  18.740  0.00  0.00    +0.000 HD
ENDBRANCH   3  12
BRANCH   1  14
ATOM     14  O   UNL     1       6.575   5.512  14.015  0.00  0.00    +0.000 OA
BRANCH  14  16
ATOM     15  C   UNL     1       6.930   4.084  12.117  0.00  0.00    +0.000 C 
ATOM     16  C   UNL     1       7.566   5.045  13.101  0.00  0.00    +0.000 C 
ENDBRANCH  14  16
ENDBRANCH   1  14
BRANCH   8  17
ATOM     17  C   UNL     1       2.058   8.174  18.442  0.00  0.00    +0.000 C 
BRANCH  17  18
ATOM     18  N   UNL     1       1.444   8.801  19.615  0.00  0.00    +0.000 N 
ATOM     19  C   UNL     1       1.693   8.277  20.874  0.00  0.00    +0.000 A 
ATOM     20  C   UNL     1       1.042   8.727  21.957  0.00  0.00    +0.000 A 
ATOM     21  C   UNL     1       0.036   9.758  21.832  0.00  0.00    +0.000 A 
ATOM     22  C   UNL     1      -0.760  10.149  23.039  0.00  0.00    +0.000 C 
ATOM     23  C   UNL     1      -0.189  10.314  20.630  0.00  0.00    +0.000 A 
ATOM     24  C   UNL     1       0.534   9.837  19.420  0.00  0.00    +0.000 A 
ATOM     25  O   UNL     1       0.267  10.345  18.334  0.00  0.00    +0.000 OA
ENDBRANCH  17  18
ENDBRANCH   8  17
TORSDOF 5
ENDMDL
MODEL 6
REMARK VINA RESULT:      -6.2      3.375      5.104
REMARK  Name = 
REMARK  7 active torsions:
REMARK  status: ('A' for Active; 'I' for Inactive)
REMARK    1  A    between atoms: C_1  and  C_2
REMARK    2  A    between atoms: C_2  and  O_3
REMARK    3  A    between atoms: O_3  and  C_4
REMARK    4  A    between atoms: C_6  and  O_7
REMARK    5  A    between atoms: C_12  and  C_14
REMARK    6  A    between atoms: C_14  and  N_15
REMARK    7  A    between atoms: C_18  and  C_19
REMARK                            x       y       z     vdW  Elec       q    Type
REMARK                         _______ _______ _______ _____ _____    ______ ____
ROOT
ATOM      1  C   UNL     1       6.965   4.588  16.575  0.00  0.00    +0.000 C 
ATOM      2  C   UNL     1       8.038   4.312  17.663  0.00  0.00    +0.000 C 
ATOM      3  C   UNL     1       7.495   5.549  18.414  0.00  0.00    +0.000 C 
ATOM      4  C   UNL     1       6.115   5.282  17.716  0.00  0.00    +0.000 C 
ATOM      5  C   UNL     1       5.362   6.543  17.260  0.00  0.00    +0.000 C 
ATOM      6  C   UNL     1       4.656   7.190  18.449  0.00  0.00    +0.000 C 
ATOM      7  N   UNL     1       3.751   6.230  19.079  0.00  0.00    +0.000 N 
ATOM      8  C   UNL     1       2.382   6.375  19.234  0.00  0.00    +0.000 C 
ATOM      9  O   UNL     1       1.704   5.540  19.846  0.00  0.00    +0.000 OA
ATOM     10  C   UNL     1       4.409   5.027  19.576  0.00  0.00    +0.000 C 
ATOM     11  C   UNL     1       5.152   4.315  18.441  0.00  0.00    +0.000 C 
ENDROOT
BRANCH   3  12
ATOM     12  O   UNL     1       7.549   5.508  19.848  0.00  0.00    +0.000 OA
ATOM     13  H   UNL     1       6.837   6.087  20.165  0.00  0.00    +0.000 HD
ENDBRANCH   3  12
BRANCH   1  14
ATOM     14  O   UNL     1       7.378   5.449  15.482  0.00  0.00    +0.000 OA
BRANCH  14  16
ATOM     15  C   UNL     1       6.015   3.931  14.216  0.00  0.00    +0.000 C 
ATOM     16  C   UNL     1       7.103   4.984  14.162  0.00  0.00    +0.000 C 
ENDBRANCH  14  16
ENDBRANCH   1  14
BRANCH   8  17
ATOM     17  C   UNL     1       1.689   7.613  18.651  0.00  0.00    +0.000 C 
BRANCH  17  18
ATOM     18  N   UNL     1       1.213   8.584  19.641  0.00  0.00    +0.000 N 
ATOM     19  C   UNL     1       1.381   8.315  20.991  0.00  0.00    +0.000 A 
ATOM     20  C   UNL     1       0.836   9.102  21.930  0.00  0.00    +0.000 A 
ATOM     21  C   UNL     1       0.031  10.242  21.554  0.00  0.00    +0.000 A 
ATOM     22  C   UNL     1      -0.666  11.026  22.624  0.00  0.00    +0.000 C 
ATOM     23  C   UNL     1      -0.108  10.550  20.254  0.00  0.00    +0.000 A 
ATOM     24  C   UNL     1       0.502   9.696  19.199  0.00  0.00    +0.000 A 
ATOM     25  O   UNL     1       0.316   9.991  18.021  0.00  0.00    +0.000 OA
ENDBRANCH  17  18
ENDBRANCH   8  17
TORSDOF 5
ENDMDL
MODEL 7
REMARK VINA RESULT:      -6.2      2.033      6.944
REMARK  Name = 
REMARK  7 active torsions:
REMARK  status: ('A' for Active; 'I' for Inactive)
REMARK    1  A    between atoms: C_1  and  C_2
REMARK    2  A    between atoms: C_2  and  O_3
REMARK    3  A    between atoms: O_3  and  C_4
REMARK    4  A    between atoms: C_6  and  O_7
REMARK    5  A    between atoms: C_12  and  C_14
REMARK    6  A    between atoms: C_14  and  N_15
REMARK    7  A    between atoms: C_18  and  C_19
REMARK                            x       y       z     vdW  Elec       q    Type
REMARK                         _______ _______ _______ _____ _____    ______ ____
ROOT
ATOM      1  C   UNL     1       2.835   4.061  20.399  0.00  0.00    +0.000 C 
ATOM      2  C   UNL     1       3.358   2.748  21.043  0.00  0.00    +0.000 C 
ATOM      3  C   UNL     1       3.750   2.288  19.622  0.00  0.00    +0.000 C 
ATOM      4  C   UNL     1       3.883   3.804  19.241  0.00  0.00    +0.000 C 
ATOM      5  C   UNL     1       3.371   4.170  17.838  0.00  0.00    +0.000 C 
ATOM      6  C   UNL     1       4.412   3.797  16.786  0.00  0.00    +0.000 C 
ATOM      7  N   UNL     1       5.681   4.462  17.078  0.00  0.00    +0.000 N 
ATOM      8  C   UNL     1       6.354   5.343  16.247  0.00  0.00    +0.000 C 
ATOM      9  O   UNL     1       7.463   5.804  16.548  0.00  0.00    +0.000 OA
ATOM     10  C   UNL     1       6.247   4.123  18.379  0.00  0.00    +0.000 C 
ATOM     11  C   UNL     1       5.258   4.462  19.498  0.00  0.00    +0.000 C 
ENDROOT
BRANCH   3  12
ATOM     12  O   UNL     1       4.916   1.457  19.511  0.00  0.00    +0.000 OA
ATOM     13  H   UNL     1       5.503   1.893  18.874  0.00  0.00    +0.000 HD
ENDBRANCH   3  12
BRANCH   1  14
ATOM     14  O   UNL     1       1.439   4.058  20.000  0.00  0.00    +0.000 OA
BRANCH  14  16
ATOM     15  C   UNL     1       1.601   6.359  20.667  0.00  0.00    +0.000 C 
ATOM     16  C   UNL     1       0.670   5.206  20.356  0.00  0.00    +0.000 C 
ENDBRANCH  14  16
ENDBRANCH   1  14
BRANCH   8  17
ATOM     17  C   UNL     1       5.720   5.743  14.909  0.00  0.00    +0.000 C 
BRANCH  17  18
ATOM     18  N   UNL     1       6.028   4.856  13.784  0.00  0.00    +0.000 N 
ATOM     19  C   UNL     1       5.104   3.894  13.405  0.00  0.00    +0.000 A 
ATOM     20  C   UNL     1       5.401   2.971  12.479  0.00  0.00    +0.000 A 
ATOM     21  C   UNL     1       6.711   2.938  11.870  0.00  0.00    +0.000 A 
ATOM     22  C   UNL     1       7.052   1.819  10.933  0.00  0.00    +0.000 C 
ATOM     23  C   UNL     1       7.607   3.887  12.186  0.00  0.00    +0.000 A 
ATOM     24  C   UNL     1       7.290   4.928  13.201  0.00  0.00    +0.000 A 
ATOM     25  O   UNL     1       8.154   5.753  13.491  0.00  0.00    +0.000 OA
ENDBRANCH  17  18
ENDBRANCH   8  17
TORSDOF 5
ENDMDL
MODEL 8
REMARK VINA RESULT:      -6.1      1.049      1.438
REMARK  Name = 
REMARK  7 active torsions:
REMARK  status: ('A' for Active; 'I' for Inactive)
REMARK    1  A    between atoms: C_1  and  C_2
REMARK    2  A    between atoms: C_2  and  O_3
REMARK    3  A    between atoms: O_3  and  C_4
REMARK    4  A    between atoms: C_6  and  O_7
REMARK    5  A    between atoms: C_12  and  C_14
REMARK    6  A    between atoms: C_14  and  N_15
REMARK    7  A    between atoms: C_18  and  C_19
REMARK                            x       y       z     vdW  Elec       q    Type
REMARK                         _______ _______ _______ _____ _____    ______ ____
ROOT
ATOM      1  C   UNL     1       5.808   3.322  12.842  0.00  0.00    +0.000 C 
ATOM      2  C   UNL     1       7.000   3.923  12.050  0.00  0.00    +0.000 C 
ATOM      3  C   UNL     1       6.838   5.198  12.907  0.00  0.00    +0.000 C 
ATOM      4  C   UNL     1       6.226   4.285  14.027  0.00  0.00    +0.000 C 
ATOM      5  C   UNL     1       5.039   4.896  14.789  0.00  0.00    +0.000 C 
ATOM      6  C   UNL     1       5.542   5.880  15.841  0.00  0.00    +0.000 C 
ATOM      7  N   UNL     1       6.469   5.210  16.752  0.00  0.00    +0.000 N 
ATOM      8  C   UNL     1       6.321   5.084  18.124  0.00  0.00    +0.000 C 
ATOM      9  O   UNL     1       7.195   4.561  18.828  0.00  0.00    +0.000 OA
ATOM     10  C   UNL     1       7.644   4.645  16.099  0.00  0.00    +0.000 C 
ATOM     11  C   UNL     1       7.226   3.645  15.017  0.00  0.00    +0.000 C 
ENDROOT
BRANCH   3  12
ATOM     12  O   UNL     1       8.036   5.930  13.208  0.00  0.00    +0.000 OA
ATOM     13  H   UNL     1       8.480   5.445  13.922  0.00  0.00    +0.000 HD
ENDBRANCH   3  12
BRANCH   1  14
ATOM     14  O   UNL     1       4.491   3.551  12.277  0.00  0.00    +0.000 OA
BRANCH  14  16
ATOM     15  C   UNL     1       3.280   3.814  10.220  0.00  0.00    +0.000 C 
ATOM     16  C   UNL     1       4.218   2.933  11.020  0.00  0.00    +0.000 C 
ENDBRANCH  14  16
ENDBRANCH   1  14
BRANCH   8  17
ATOM     17  C   UNL     1       5.052   5.625  18.794  0.00  0.00    +0.000 C 
BRANCH  17  18
ATOM     18  N   UNL     1       3.884   4.742  18.717  0.00  0.00    +0.000 N 
ATOM     19  C   UNL     1       2.738   5.186  18.076  0.00  0.00    +0.000 A 
ATOM     20  C   UNL     1       1.603   4.473  18.105  0.00  0.00    +0.000 A 
ATOM     21  C   UNL     1       1.539   3.228  18.837  0.00  0.00    +0.000 A 
ATOM     22  C   UNL     1       0.224   2.519  18.956  0.00  0.00    +0.000 C 
ATOM     23  C   UNL     1       2.648   2.754  19.427  0.00  0.00    +0.000 A 
ATOM     24  C   UNL     1       3.920   3.525  19.392  0.00  0.00    +0.000 A 
ATOM     25  O   UNL     1       4.900   3.074  19.980  0.00  0.00    +0.000 OA
ENDBRANCH  17  18
ENDBRANCH   8  17
TORSDOF 5
ENDMDL
MODEL 9
REMARK VINA RESULT:      -6.1      2.063      6.960
REMARK  Name = 
REMARK  7 active torsions:
REMARK  status: ('A' for Active; 'I' for Inactive)
REMARK    1  A    between atoms: C_1  and  C_2
REMARK    2  A    between atoms: C_2  and  O_3
REMARK    3  A    between atoms: O_3  and  C_4
REMARK    4  A    between atoms: C_6  and  O_7
REMARK    5  A    between atoms: C_12  and  C_14
REMARK    6  A    between atoms: C_14  and  N_15
REMARK    7  A    between atoms: C_18  and  C_19
REMARK                            x       y       z     vdW  Elec       q    Type
REMARK                         _______ _______ _______ _____ _____    ______ ____
ROOT
ATOM      1  C   UNL     1       1.541   4.252  19.568  0.00  0.00    +0.000 C 
ATOM      2  C   UNL     1       1.115   5.374  20.553  0.00  0.00    +0.000 C 
ATOM      3  C   UNL     1       2.569   5.891  20.485  0.00  0.00    +0.000 C 
ATOM      4  C   UNL     1       2.659   5.249  19.056  0.00  0.00    +0.000 C 
ATOM      5  C   UNL     1       4.001   4.574  18.729  0.00  0.00    +0.000 C 
ATOM      6  C   UNL     1       5.037   5.626  18.341  0.00  0.00    +0.000 C 
ATOM      7  N   UNL     1       4.550   6.416  17.210  0.00  0.00    +0.000 N 
ATOM      8  C   UNL     1       5.163   6.540  15.974  0.00  0.00    +0.000 C 
ATOM      9  O   UNL     1       4.714   7.290  15.097  0.00  0.00    +0.000 OA
ATOM     10  C   UNL     1       3.299   7.121  17.469  0.00  0.00    +0.000 C 
ATOM     11  C   UNL     1       2.201   6.133  17.874  0.00  0.00    +0.000 C 
ENDROOT
BRANCH   3  12
ATOM     12  O   UNL     1       2.756   7.310  20.604  0.00  0.00    +0.000 OA
ATOM     13  H   UNL     1       3.368   7.565  19.895  0.00  0.00    +0.000 HD
ENDBRANCH   3  12
BRANCH   1  14
ATOM     14  O   UNL     1       2.020   3.024  20.175  0.00  0.00    +0.000 OA
BRANCH  14  16
ATOM     15  C   UNL     1       0.580   1.974  18.565  0.00  0.00    +0.000 C 
ATOM     16  C   UNL     1       1.809   1.821  19.438  0.00  0.00    +0.000 C 
ENDBRANCH  14  16
ENDBRANCH   1  14
BRANCH   8  17
ATOM     17  C   UNL     1       6.443   5.744  15.689  0.00  0.00    +0.000 C 
BRANCH  17  18
ATOM     18  N   UNL     1       6.438   4.986  14.435  0.00  0.00    +0.000 N 
ATOM     19  C   UNL     1       5.392   4.115  14.172  0.00  0.00    +0.000 A 
ATOM     20  C   UNL     1       5.416   3.299  13.109  0.00  0.00    +0.000 A 
ATOM     21  C   UNL     1       6.557   3.286  12.220  0.00  0.00    +0.000 A 
ATOM     22  C   UNL     1       6.609   2.275  11.116  0.00  0.00    +0.000 C 
ATOM     23  C   UNL     1       7.561   4.154  12.427  0.00  0.00    +0.000 A 
ATOM     24  C   UNL     1       7.544   5.077  13.594  0.00  0.00    +0.000 A 
ATOM     25  O   UNL     1       8.502   5.825  13.769  0.00  0.00    +0.000 OA
ENDBRANCH  17  18
ENDBRANCH   8  17
TORSDOF 5
ENDMDL
