MODEL 1
REMARK VINA RESULT:      -7.8      0.000      0.000
REMARK  Name = 
REMARK  14 active torsions:
REMARK  status: ('A' for Active; 'I' for Inactive)
REMARK    1  A    between atoms: C_1  and  C_2
REMARK    2  A    between atoms: C_2  and  N_3
REMARK    3  A    between atoms: N_3  and  C_4
REMARK    4  A    between atoms: N_3  and  C_6
REMARK    5  A    between atoms: C_4  and  C_5
REMARK    6  A    between atoms: C_6  and  C_7
REMARK    7  A    between atoms: C_7  and  C_8
REMARK    8  A    between atoms: C_8  and  N_9
REMARK    9  A    between atoms: C_10  and  S_11
REMARK   10  A    between atoms: N_12  and  C_13
REMARK   11  A    between atoms: N_12  and  C_19
REMARK   12  A    between atoms: C_13  and  C_14
REMARK   13  A    between atoms: C_19  and  C_20
REMARK   14  A    between atoms: C_29  and  O_30
REMARK                            x       y       z     vdW  Elec       q    Type
REMARK                         _______ _______ _______ _____ _____    ______ ____
ROOT
ATOM      1  N   UNL     1       7.355   7.427  17.340  0.00  0.00    +0.000 NA
ATOM      2  C   UNL     1       7.059   6.188  17.540  0.00  0.00    +0.000 C 
ATOM      3  N   UNL     1       6.220   5.495  16.676  0.00  0.00    +0.000 N 
ENDROOT
BRANCH   2   4
ATOM      4  S   UNL     1       7.692   5.242  18.897  0.00  0.00    +0.000 S 
ATOM      5  H   UNL     1       6.658   4.421  19.085  0.00  0.00    +0.000 HD
ENDBRANCH   2   4
BRANCH   1   6
ATOM      6  C   UNL     1       8.234   8.196  18.217  0.00  0.00    +0.000 C 
BRANCH   6   7
ATOM      7  C   UNL     1       8.107   9.670  17.834  0.00  0.00    +0.000 C 
BRANCH   7   8
ATOM      8  C   UNL     1       9.352  10.505  18.178  0.00  0.00    +0.000 C 
BRANCH   8   9
ATOM      9  N   UNL     1       9.146  11.603  19.144  0.00  0.00    +0.000 NA
BRANCH   9  11
ATOM     10  C   UNL     1      11.572  11.746  19.840  0.00  0.00    +0.000 C 
ATOM     11  C   UNL     1      10.117  11.551  20.250  0.00  0.00    +0.000 C 
ENDBRANCH   9  11
BRANCH   9  12
ATOM     12  C   UNL     1       9.084  12.912  18.465  0.00  0.00    +0.000 C 
ATOM     13  C   UNL     1       7.910  13.135  17.514  0.00  0.00    +0.000 C 
ENDBRANCH   9  12
ENDBRANCH   8   9
ENDBRANCH   7   8
ENDBRANCH   6   7
ENDBRANCH   1   6
BRANCH   3  14
ATOM     14  C   UNL     1       5.974   6.019  15.322  0.00  0.00    +0.000 C 
BRANCH  14  15
ATOM     15  C   UNL     1       6.166   5.065  14.182  0.00  0.00    +0.000 A 
ATOM     16  C   UNL     1       5.471   3.962  13.727  0.00  0.00    +0.000 A 
ATOM     17  C   UNL     1       6.217   3.424  12.651  0.00  0.00    +0.000 A 
ATOM     18  C   UNL     1       7.315   4.238  12.503  0.00  0.00    +0.000 A 
ATOM     19  O   UNL     1       7.290   5.240  13.421  0.00  0.00    +0.000 OA
ENDBRANCH  14  15
ENDBRANCH   3  14
BRANCH   3  20
ATOM     20  C   UNL     1       5.115   4.688  17.226  0.00  0.00    +0.000 C 
BRANCH  20  21
ATOM     21  C   UNL     1       4.131   5.506  18.012  0.00  0.00    +0.000 A 
ATOM     22  C   UNL     1       3.637   6.736  17.575  0.00  0.00    +0.000 A 
ATOM     23  C   UNL     1       2.767   7.478  18.378  0.00  0.00    +0.000 A 
ATOM     24  C   UNL     1       2.268   8.713  17.950  0.00  0.00    +0.000 A 
ATOM     25  C   UNL     1       1.422   9.444  18.778  0.00  0.00    +0.000 A 
ATOM     26  C   UNL     1       1.093   8.946  20.039  0.00  0.00    +0.000 A 
ATOM     27  C   UNL     1       1.567   7.702  20.450  0.00  0.00    +0.000 A 
ATOM     28  C   UNL     1       2.410   6.953  19.641  0.00  0.00    +0.000 A 
ATOM     29  N   UNL     1       2.873   5.770  20.080  0.00  0.00    +0.000 NA
ATOM     30  C   UNL     1       3.708   5.099  19.266  0.00  0.00    +0.000 A 
ATOM     31  O   UNL     1       0.301   9.630  20.926  0.00  0.00    +0.000 OA
ATOM     32  C   UNL     1       0.178  11.009  20.557  0.00  0.00    +0.000 C 
ATOM     33  C   UNL     1      -0.124  11.139  19.073  0.00  0.00    +0.000 C 
ATOM     34  O   UNL     1       0.968  10.640  18.293  0.00  0.00    +0.000 OA
BRANCH  30  35
ATOM     35  O   UNL     1       4.140   3.931  19.809  0.00  0.00    +0.000 OA
ATOM     36  H   UNL     1       3.379   3.361  19.588  0.00  0.00    +0.000 HD
ENDBRANCH  30  35
ENDBRANCH  20  21
ENDBRANCH   3  20
TORSDOF 12
ENDMDL
MODEL 2
REMARK VINA RESULT:      -7.7      0.815      1.463
REMARK  Name = 
REMARK  14 active torsions:
REMARK  status: ('A' for Active; 'I' for Inactive)
REMARK    1  A    between atoms: C_1  and  C_2
REMARK    2  A    between atoms: C_2  and  N_3
REMARK    3  A    between atoms: N_3  and  C_4
REMARK    4  A    between atoms: N_3  and  C_6
REMARK    5  A    between atoms: C_4  and  C_5
REMARK    6  A    between atoms: C_6  and  C_7
REMARK    7  A    between atoms: C_7  and  C_8
REMARK    8  A    between atoms: C_8  and  N_9
REMARK    9  A    between atoms: C_10  and  S_11
REMARK   10  A    between atoms: N_12  and  C_13
REMARK   11  A    between atoms: N_12  and  C_19
REMARK   12  A    between atoms: C_13  and  C_14
REMARK   13  A    between atoms: C_19  and  C_20
REMARK   14  A    between atoms: C_29  and  O_30
REMARK                            x       y       z     vdW  Elec       q    Type
REMARK                         _______ _______ _______ _____ _____    ______ ____
ROOT
ATOM      1  N   UNL     1       7.530   7.267  17.319  0.00  0.00    +0.000 NA
ATOM      2  C   UNL     1       7.334   5.997  17.426  0.00  0.00    +0.000 C 
ATOM      3  N   UNL     1       6.648   5.285  16.450  0.00  0.00    +0.000 N 
ENDROOT
BRANCH   2   4
ATOM      4  S   UNL     1       7.925   5.031  18.789  0.00  0.00    +0.000 S 
ATOM      5  H   UNL     1       8.719   4.191  18.124  0.00  0.00    +0.000 HD
ENDBRANCH   2   4
BRANCH   1   6
ATOM      6  C   UNL     1       8.247   8.057  18.316  0.00  0.00    +0.000 C 
BRANCH   6   7
ATOM      7  C   UNL     1       8.250   9.512  17.849  0.00  0.00    +0.000 C 
BRANCH   7   8
ATOM      8  C   UNL     1       9.199  10.416  18.654  0.00  0.00    +0.000 C 
BRANCH   8   9
ATOM      9  N   UNL     1       9.473  11.745  18.071  0.00  0.00    +0.000 NA
BRANCH   9  11
ATOM     10  C   UNL     1       8.012  13.803  17.927  0.00  0.00    +0.000 C 
ATOM     11  C   UNL     1       8.258  12.358  17.507  0.00  0.00    +0.000 C 
ENDBRANCH   9  11
BRANCH   9  12
ATOM     12  C   UNL     1      10.192  12.612  19.024  0.00  0.00    +0.000 C 
ATOM     13  C   UNL     1      11.019  11.910  20.100  0.00  0.00    +0.000 C 
ENDBRANCH   9  12
ENDBRANCH   8   9
ENDBRANCH   7   8
ENDBRANCH   6   7
ENDBRANCH   1   6
BRANCH   3  14
ATOM     14  C   UNL     1       6.481   5.865  15.106  0.00  0.00    +0.000 C 
BRANCH  14  15
ATOM     15  C   UNL     1       6.438   4.905  13.956  0.00  0.00    +0.000 A 
ATOM     16  C   UNL     1       5.656   3.808  13.651  0.00  0.00    +0.000 A 
ATOM     17  C   UNL     1       6.173   3.260  12.453  0.00  0.00    +0.000 A 
ATOM     18  C   UNL     1       7.229   4.061  12.089  0.00  0.00    +0.000 A 
ATOM     19  O   UNL     1       7.394   5.066  12.990  0.00  0.00    +0.000 OA
ENDBRANCH  14  15
ENDBRANCH   3  14
BRANCH   3  20
ATOM     20  C   UNL     1       5.578   4.352  16.847  0.00  0.00    +0.000 C 
BRANCH  20  21
ATOM     21  C   UNL     1       4.580   4.973  17.782  0.00  0.00    +0.000 A 
ATOM     22  C   UNL     1       3.961   6.199  17.534  0.00  0.00    +0.000 A 
ATOM     23  C   UNL     1       3.084   6.753  18.470  0.00  0.00    +0.000 A 
ATOM     24  C   UNL     1       2.459   7.983  18.232  0.00  0.00    +0.000 A 
ATOM     25  C   UNL     1       1.608   8.525  19.190  0.00  0.00    +0.000 A 
ATOM     26  C   UNL     1       1.399   7.846  20.390  0.00  0.00    +0.000 A 
ATOM     27  C   UNL     1       1.999   6.607  20.612  0.00  0.00    +0.000 A 
ATOM     28  C   UNL     1       2.849   6.044  19.670  0.00  0.00    +0.000 A 
ATOM     29  N   UNL     1       3.434   4.862  19.927  0.00  0.00    +0.000 NA
ATOM     30  C   UNL     1       4.270   4.376  18.992  0.00  0.00    +0.000 A 
ATOM     31  O   UNL     1       0.609   8.339  21.398  0.00  0.00    +0.000 OA
ATOM     32  C   UNL     1       0.351   9.737  21.218  0.00  0.00    +0.000 C 
ATOM     33  C   UNL     1      -0.051  10.024  19.781  0.00  0.00    +0.000 C 
ATOM     34  O   UNL     1       1.028   9.727  18.889  0.00  0.00    +0.000 OA
BRANCH  30  35
ATOM     35  O   UNL     1       4.829   3.193  19.355  0.00  0.00    +0.000 OA
ATOM     36  H   UNL     1       4.579   2.653  18.582  0.00  0.00    +0.000 HD
ENDBRANCH  30  35
ENDBRANCH  20  21
ENDBRANCH   3  20
TORSDOF 12
ENDMDL
MODEL 3
REMARK VINA RESULT:      -7.5      0.599      1.160
REMARK  Name = 
REMARK  14 active torsions:
REMARK  status: ('A' for Active; 'I' for Inactive)
REMARK    1  A    between atoms: C_1  and  C_2
REMARK    2  A    between atoms: C_2  and  N_3
REMARK    3  A    between atoms: N_3  and  C_4
REMARK    4  A    between atoms: N_3  and  C_6
REMARK    5  A    between atoms: C_4  and  C_5
REMARK    6  A    between atoms: C_6  and  C_7
REMARK    7  A    between atoms: C_7  and  C_8
REMARK    8  A    between atoms: C_8  and  N_9
REMARK    9  A    between atoms: C_10  and  S_11
REMARK   10  A    between atoms: N_12  and  C_13
REMARK   11  A    between atoms: N_12  and  C_19
REMARK   12  A    between atoms: C_13  and  C_14
REMARK   13  A    between atoms: C_19  and  C_20
REMARK   14  A    between atoms: C_29  and  O_30
REMARK                            x       y       z     vdW  Elec       q    Type
REMARK                         _______ _______ _______ _____ _____    ______ ____
ROOT
ATOM      1  N   UNL     1       7.058   7.322  17.263  0.00  0.00    +0.000 NA
ATOM      2  C   UNL     1       6.713   6.101  17.498  0.00  0.00    +0.000 C 
ATOM      3  N   UNL     1       5.820   5.430  16.671  0.00  0.00    +0.000 N 
ENDROOT
BRANCH   2   4
ATOM      4  S   UNL     1       7.341   5.156  18.857  0.00  0.00    +0.000 S 
ATOM      5  H   UNL     1       8.426   5.879  19.135  0.00  0.00    +0.000 HD
ENDBRANCH   2   4
BRANCH   1   6
ATOM      6  C   UNL     1       7.994   8.068  18.099  0.00  0.00    +0.000 C 
BRANCH   6   7
ATOM      7  C   UNL     1       8.359   9.356  17.363  0.00  0.00    +0.000 C 
BRANCH   7   8
ATOM      8  C   UNL     1       8.370  10.601  18.266  0.00  0.00    +0.000 C 
BRANCH   8   9
ATOM      9  N   UNL     1       9.702  11.148  18.594  0.00  0.00    +0.000 NA
BRANCH   9  11
ATOM     10  C   UNL     1      10.945  12.787  17.125  0.00  0.00    +0.000 C 
ATOM     11  C   UNL     1       9.845  12.546  18.154  0.00  0.00    +0.000 C 
ENDBRANCH   9  11
BRANCH   9  12
ATOM     12  C   UNL     1      10.037  10.932  20.015  0.00  0.00    +0.000 C 
ATOM     13  C   UNL     1      10.722  12.089  20.740  0.00  0.00    +0.000 C 
ENDBRANCH   9  12
ENDBRANCH   8   9
ENDBRANCH   7   8
ENDBRANCH   6   7
ENDBRANCH   1   6
BRANCH   3  14
ATOM     14  C   UNL     1       5.560   5.937  15.313  0.00  0.00    +0.000 C 
BRANCH  14  15
ATOM     15  C   UNL     1       6.002   5.071  14.172  0.00  0.00    +0.000 A 
ATOM     16  C   UNL     1       5.469   3.960  13.549  0.00  0.00    +0.000 A 
ATOM     17  C   UNL     1       6.417   3.539  12.586  0.00  0.00    +0.000 A 
ATOM     18  C   UNL     1       7.465   4.425  12.667  0.00  0.00    +0.000 A 
ATOM     19  O   UNL     1       7.220   5.362  13.620  0.00  0.00    +0.000 OA
ENDBRANCH  14  15
ENDBRANCH   3  14
BRANCH   3  20
ATOM     20  C   UNL     1       4.696   4.685  17.268  0.00  0.00    +0.000 C 
BRANCH  20  21
ATOM     21  C   UNL     1       3.791   5.556  18.091  0.00  0.00    +0.000 A 
ATOM     22  C   UNL     1       3.319   6.795  17.655  0.00  0.00    +0.000 A 
ATOM     23  C   UNL     1       2.526   7.587  18.491  0.00  0.00    +0.000 A 
ATOM     24  C   UNL     1       2.048   8.831  18.063  0.00  0.00    +0.000 A 
ATOM     25  C   UNL     1       1.280   9.611  18.922  0.00  0.00    +0.000 A 
ATOM     26  C   UNL     1       1.007   9.152  20.211  0.00  0.00    +0.000 A 
ATOM     27  C   UNL     1       1.458   7.899  20.623  0.00  0.00    +0.000 A 
ATOM     28  C   UNL     1       2.224   7.102  19.783  0.00  0.00    +0.000 A 
ATOM     29  N   UNL     1       2.667   5.911  20.222  0.00  0.00    +0.000 NA
ATOM     30  C   UNL     1       3.427   5.192  19.376  0.00  0.00    +0.000 A 
ATOM     31  O   UNL     1       0.294   9.884  21.126  0.00  0.00    +0.000 OA
ATOM     32  C   UNL     1       0.202  11.259  20.734  0.00  0.00    +0.000 C 
ATOM     33  C   UNL     1      -0.181  11.369  19.268  0.00  0.00    +0.000 C 
ATOM     34  O   UNL     1       0.844  10.813  18.437  0.00  0.00    +0.000 OA
BRANCH  30  35
ATOM     35  O   UNL     1       3.846   4.020  19.919  0.00  0.00    +0.000 OA
ATOM     36  H   UNL     1       3.093   3.839  20.512  0.00  0.00    +0.000 HD
ENDBRANCH  30  35
ENDBRANCH  20  21
ENDBRANCH   3  20
TORSDOF 12
ENDMDL
MODEL 4
REMARK VINA RESULT:      -7.3      0.862      1.136
REMARK  Name = 
REMARK  14 active torsions:
REMARK  status: ('A' for Active; 'I' for Inactive)
REMARK    1  A    between atoms: C_1  and  C_2
REMARK    2  A    between atoms: C_2  and  N_3
REMARK    3  A    between atoms: N_3  and  C_4
REMARK    4  A    between atoms: N_3  and  C_6
REMARK    5  A    between atoms: C_4  and  C_5
REMARK    6  A    between atoms: C_6  and  C_7
REMARK    7  A    between atoms: C_7  and  C_8
REMARK    8  A    between atoms: C_8  and  N_9
REMARK    9  A    between atoms: C_10  and  S_11
REMARK   10  A    between atoms: N_12  and  C_13
REMARK   11  A    between atoms: N_12  and  C_19
REMARK   12  A    between atoms: C_13  and  C_14
REMARK   13  A    between atoms: C_19  and  C_20
REMARK   14  A    between atoms: C_29  and  O_30
REMARK                            x       y       z     vdW  Elec       q    Type
REMARK                         _______ _______ _______ _____ _____    ______ ____
ROOT
ATOM      1  N   UNL     1       7.315   7.372  17.220  0.00  0.00    +0.000 NA
ATOM      2  C   UNL     1       7.040   6.129  17.429  0.00  0.00    +0.000 C 
ATOM      3  N   UNL     1       6.239   5.407  16.554  0.00  0.00    +0.000 N 
ENDROOT
BRANCH   2   4
ATOM      4  S   UNL     1       7.659   5.216  18.815  0.00  0.00    +0.000 S 
ATOM      5  H   UNL     1       7.882   6.228  19.654  0.00  0.00    +0.000 HD
ENDBRANCH   2   4
BRANCH   1   6
ATOM      6  C   UNL     1       8.154   8.171  18.108  0.00  0.00    +0.000 C 
BRANCH   6   7
ATOM      7  C   UNL     1       8.272   9.572  17.508  0.00  0.00    +0.000 C 
BRANCH   7   8
ATOM      8  C   UNL     1       8.123  10.700  18.543  0.00  0.00    +0.000 C 
BRANCH   8   9
ATOM      9  N   UNL     1       9.343  11.484  18.823  0.00  0.00    +0.000 NA
BRANCH   9  11
ATOM     10  C   UNL     1       9.614  12.224  21.225  0.00  0.00    +0.000 C 
ATOM     11  C   UNL     1       9.898  11.178  20.153  0.00  0.00    +0.000 C 
ENDBRANCH   9  11
BRANCH   9  12
ATOM     12  C   UNL     1      10.322  11.368  17.726  0.00  0.00    +0.000 C 
ATOM     13  C   UNL     1      11.711  11.949  17.983  0.00  0.00    +0.000 C 
ENDBRANCH   9  12
ENDBRANCH   8   9
ENDBRANCH   7   8
ENDBRANCH   6   7
ENDBRANCH   1   6
BRANCH   3  14
ATOM     14  C   UNL     1       6.017   5.908  15.186  0.00  0.00    +0.000 C 
BRANCH  14  15
ATOM     15  C   UNL     1       6.348   4.973  14.062  0.00  0.00    +0.000 A 
ATOM     16  C   UNL     1       7.406   4.871  13.180  0.00  0.00    +0.000 A 
ATOM     17  C   UNL     1       7.087   3.825  12.281  0.00  0.00    +0.000 A 
ATOM     18  C   UNL     1       5.862   3.342  12.675  0.00  0.00    +0.000 A 
ATOM     19  O   UNL     1       5.408   4.026  13.758  0.00  0.00    +0.000 OA
ENDBRANCH  14  15
ENDBRANCH   3  14
BRANCH   3  20
ATOM     20  C   UNL     1       5.138   4.583  17.086  0.00  0.00    +0.000 C 
BRANCH  20  21
ATOM     21  C   UNL     1       4.181   5.369  17.937  0.00  0.00    +0.000 A 
ATOM     22  C   UNL     1       3.644   6.597  17.548  0.00  0.00    +0.000 A 
ATOM     23  C   UNL     1       2.804   7.309  18.408  0.00  0.00    +0.000 A 
ATOM     24  C   UNL     1       2.261   8.542  18.029  0.00  0.00    +0.000 A 
ATOM     25  C   UNL     1       1.446   9.242  18.912  0.00  0.00    +0.000 A 
ATOM     26  C   UNL     1       1.190   8.716  20.178  0.00  0.00    +0.000 A 
ATOM     27  C   UNL     1       1.707   7.474  20.542  0.00  0.00    +0.000 A 
ATOM     28  C   UNL     1       2.521   6.755  19.677  0.00  0.00    +0.000 A 
ATOM     29  N   UNL     1       3.026   5.573  20.070  0.00  0.00    +0.000 NA
ATOM     30  C   UNL     1       3.830   4.932  19.203  0.00  0.00    +0.000 A 
ATOM     31  O   UNL     1       0.433   9.369  21.117  0.00  0.00    +0.000 OA
ATOM     32  C   UNL     1       0.267  10.752  20.781  0.00  0.00    +0.000 C 
ATOM     33  C   UNL     1      -0.112  10.902  19.317  0.00  0.00    +0.000 C 
ATOM     34  O   UNL     1       0.947  10.437  18.473  0.00  0.00    +0.000 OA
BRANCH  30  35
ATOM     35  O   UNL     1       4.309   3.763  19.701  0.00  0.00    +0.000 OA
ATOM     36  H   UNL     1       3.958   3.819  20.609  0.00  0.00    +0.000 HD
ENDBRANCH  30  35
ENDBRANCH  20  21
ENDBRANCH   3  20
TORSDOF 12
ENDMDL
MODEL 5
REMARK VINA RESULT:      -7.2      4.215      6.351
REMARK  Name = 
REMARK  14 active torsions:
REMARK  status: ('A' for Active; 'I' for Inactive)
REMARK    1  A    between atoms: C_1  and  C_2
REMARK    2  A    between atoms: C_2  and  N_3
REMARK    3  A    between atoms: N_3  and  C_4
REMARK    4  A    between atoms: N_3  and  C_6
REMARK    5  A    between atoms: C_4  and  C_5
REMARK    6  A    between atoms: C_6  and  C_7
REMARK    7  A    between atoms: C_7  and  C_8
REMARK    8  A    between atoms: C_8  and  N_9
REMARK    9  A    between atoms: C_10  and  S_11
REMARK   10  A    between atoms: N_12  and  C_13
REMARK   11  A    between atoms: N_12  and  C_19
REMARK   12  A    between atoms: C_13  and  C_14
REMARK   13  A    between atoms: C_19  and  C_20
REMARK   14  A    between atoms: C_29  and  O_30
REMARK                            x       y       z     vdW  Elec       q    Type
REMARK                         _______ _______ _______ _____ _____    ______ ____
ROOT
ATOM      1  N   UNL     1       4.438   4.167  16.634  0.00  0.00    +0.000 NA
ATOM      2  C   UNL     1       4.469   5.203  17.401  0.00  0.00    +0.000 C 
ATOM      3  N   UNL     1       3.315   5.915  17.704  0.00  0.00    +0.000 N 
ENDROOT
BRANCH   2   4
ATOM      4  S   UNL     1       5.951   5.810  18.159  0.00  0.00    +0.000 S 
ATOM      5  H   UNL     1       6.845   5.079  17.492  0.00  0.00    +0.000 HD
ENDBRANCH   2   4
BRANCH   1   6
ATOM      6  C   UNL     1       5.622   3.384  16.291  0.00  0.00    +0.000 C 
BRANCH   6   7
ATOM      7  C   UNL     1       6.383   4.137  15.200  0.00  0.00    +0.000 C 
BRANCH   7   8
ATOM      8  C   UNL     1       5.675   4.125  13.834  0.00  0.00    +0.000 C 
BRANCH   8   9
ATOM      9  N   UNL     1       6.444   3.549  12.713  0.00  0.00    +0.000 NA
BRANCH   9  11
ATOM     10  C   UNL     1       4.294   3.200  11.430  0.00  0.00    +0.000 C 
ATOM     11  C   UNL     1       5.628   2.631  11.901  0.00  0.00    +0.000 C 
ENDBRANCH   9  11
BRANCH   9  12
ATOM     12  C   UNL     1       7.120   4.600  11.928  0.00  0.00    +0.000 C 
ATOM     13  C   UNL     1       8.130   5.470  12.675  0.00  0.00    +0.000 C 
ENDBRANCH   9  12
ENDBRANCH   8   9
ENDBRANCH   7   8
ENDBRANCH   6   7
ENDBRANCH   1   6
BRANCH   3  14
ATOM     14  C   UNL     1       1.997   5.291  17.494  0.00  0.00    +0.000 C 
BRANCH  14  15
ATOM     15  C   UNL     1       1.630   4.163  18.410  0.00  0.00    +0.000 A 
ATOM     16  C   UNL     1       1.421   2.810  18.228  0.00  0.00    +0.000 A 
ATOM     17  C   UNL     1       1.003   2.291  19.477  0.00  0.00    +0.000 A 
ATOM     18  C   UNL     1       0.994   3.353  20.350  0.00  0.00    +0.000 A 
ATOM     19  O   UNL     1       1.380   4.491  19.715  0.00  0.00    +0.000 OA
ENDBRANCH  14  15
ENDBRANCH   3  14
BRANCH   3  20
ATOM     20  C   UNL     1       3.317   7.385  17.590  0.00  0.00    +0.000 C 
BRANCH  20  21
ATOM     21  C   UNL     1       2.335   8.043  18.518  0.00  0.00    +0.000 A 
ATOM     22  C   UNL     1       1.539   9.127  18.144  0.00  0.00    +0.000 A 
ATOM     23  C   UNL     1       0.686   9.733  19.070  0.00  0.00    +0.000 A 
ATOM     24  C   UNL     1      -0.115  10.822  18.706  0.00  0.00    +0.000 A 
ATOM     25  C   UNL     1      -0.939  11.423  19.652  0.00  0.00    +0.000 A 
ATOM     26  C   UNL     1      -0.946  10.946  20.963  0.00  0.00    +0.000 A 
ATOM     27  C   UNL     1      -0.170   9.843  21.315  0.00  0.00    +0.000 A 
ATOM     28  C   UNL     1       0.658   9.224  20.388  0.00  0.00    +0.000 A 
ATOM     29  N   UNL     1       1.415   8.181  20.768  0.00  0.00    +0.000 NA
ATOM     30  C   UNL     1       2.219   7.637  19.836  0.00  0.00    +0.000 A 
ATOM     31  O   UNL     1      -1.699  11.515  21.959  0.00  0.00    +0.000 OA
ATOM     32  C   UNL     1      -2.155  12.821  21.584  0.00  0.00    +0.000 C 
ATOM     33  C   UNL     1      -2.721  12.802  20.174  0.00  0.00    +0.000 C 
ATOM     34  O   UNL     1      -1.698  12.478  19.226  0.00  0.00    +0.000 OA
BRANCH  30  35
ATOM     35  O   UNL     1       2.960   6.608  20.322  0.00  0.00    +0.000 OA
ATOM     36  H   UNL     1       2.411   5.859  20.024  0.00  0.00    +0.000 HD
ENDBRANCH  30  35
ENDBRANCH  20  21
ENDBRANCH   3  20
TORSDOF 12
ENDMDL
MODEL 6
REMARK VINA RESULT:      -7.0      5.194      9.788
REMARK  Name = 
REMARK  14 active torsions:
REMARK  status: ('A' for Active; 'I' for Inactive)
REMARK    1  A    between atoms: C_1  and  C_2
REMARK    2  A    between atoms: C_2  and  N_3
REMARK    3  A    between atoms: N_3  and  C_4
REMARK    4  A    between atoms: N_3  and  C_6
REMARK    5  A    between atoms: C_4  and  C_5
REMARK    6  A    between atoms: C_6  and  C_7
REMARK    7  A    between atoms: C_7  and  C_8
REMARK    8  A    between atoms: C_8  and  N_9
REMARK    9  A    between atoms: C_10  and  S_11
REMARK   10  A    between atoms: N_12  and  C_13
REMARK   11  A    between atoms: N_12  and  C_19
REMARK   12  A    between atoms: C_13  and  C_14
REMARK   13  A    between atoms: C_19  and  C_20
REMARK   14  A    between atoms: C_29  and  O_30
REMARK                            x       y       z     vdW  Elec       q    Type
REMARK                         _______ _______ _______ _____ _____    ______ ____
ROOT
ATOM      1  N   UNL     1      -1.292  13.364  20.002  0.00  0.00    +0.000 NA
ATOM      2  C   UNL     1      -0.177  12.799  19.684  0.00  0.00    +0.000 C 
ATOM      3  N   UNL     1      -0.047  11.416  19.660  0.00  0.00    +0.000 N 
ENDROOT
BRANCH   2   4
ATOM      4  S   UNL     1       1.278  13.702  19.230  0.00  0.00    +0.000 S 
ATOM      5  H   UNL     1       0.727  14.897  19.013  0.00  0.00    +0.000 HD
ENDBRANCH   2   4
BRANCH   1   6
ATOM      6  C   UNL     1      -1.478  14.812  20.038  0.00  0.00    +0.000 C 
BRANCH   6   7
ATOM      7  C   UNL     1      -2.025  15.181  21.417  0.00  0.00    +0.000 C 
BRANCH   7   8
ATOM      8  C   UNL     1      -3.206  14.306  21.867  0.00  0.00    +0.000 C 
BRANCH   8   9
ATOM      9  N   UNL     1      -3.247  13.965  23.303  0.00  0.00    +0.000 NA
BRANCH   9  11
ATOM     10  C   UNL     1      -5.733  14.261  23.653  0.00  0.00    +0.000 C 
ATOM     11  C   UNL     1      -4.315  14.693  24.010  0.00  0.00    +0.000 C 
ENDBRANCH   9  11
BRANCH   9  12
ATOM     12  C   UNL     1      -3.282  12.505  23.510  0.00  0.00    +0.000 C 
ATOM     13  C   UNL     1      -2.020  11.730  23.135  0.00  0.00    +0.000 C 
ENDBRANCH   9  12
ENDBRANCH   8   9
ENDBRANCH   7   8
ENDBRANCH   6   7
ENDBRANCH   1   6
BRANCH   3  14
ATOM     14  C   UNL     1      -1.252  10.571  19.603  0.00  0.00    +0.000 C 
BRANCH  14  15
ATOM     15  C   UNL     1      -1.937  10.460  18.274  0.00  0.00    +0.000 A 
ATOM     16  C   UNL     1      -1.624   9.833  17.084  0.00  0.00    +0.000 A 
ATOM     17  C   UNL     1      -2.640  10.181  16.161  0.00  0.00    +0.000 A 
ATOM     18  C   UNL     1      -3.519  10.986  16.845  0.00  0.00    +0.000 A 
ATOM     19  O   UNL     1      -3.106  11.155  18.129  0.00  0.00    +0.000 OA
ENDBRANCH  14  15
ENDBRANCH   3  14
BRANCH   3  20
ATOM     20  C   UNL     1       1.110  10.783  20.321  0.00  0.00    +0.000 C 
BRANCH  20  21
ATOM     21  C   UNL     1       1.488   9.468  19.700  0.00  0.00    +0.000 A 
ATOM     22  C   UNL     1       1.503   8.265  20.408  0.00  0.00    +0.000 A 
ATOM     23  C   UNL     1       1.920   7.083  19.790  0.00  0.00    +0.000 A 
ATOM     24  C   UNL     1       1.941   5.872  20.491  0.00  0.00    +0.000 A 
ATOM     25  C   UNL     1       2.383   4.713  19.860  0.00  0.00    +0.000 A 
ATOM     26  C   UNL     1       2.820   4.773  18.537  0.00  0.00    +0.000 A 
ATOM     27  C   UNL     1       2.770   5.975  17.832  0.00  0.00    +0.000 A 
ATOM     28  C   UNL     1       2.330   7.143  18.439  0.00  0.00    +0.000 A 
ATOM     29  N   UNL     1       2.322   8.291  17.739  0.00  0.00    +0.000 NA
ATOM     30  C   UNL     1       1.912   9.398  18.384  0.00  0.00    +0.000 A 
ATOM     31  O   UNL     1       3.310   3.682  17.864  0.00  0.00    +0.000 OA
ATOM     32  C   UNL     1       3.649   2.623  18.768  0.00  0.00    +0.000 C 
ATOM     33  C   UNL     1       2.533   2.407  19.777  0.00  0.00    +0.000 C 
ATOM     34  O   UNL     1       2.371   3.565  20.603  0.00  0.00    +0.000 OA
BRANCH  30  35
ATOM     35  O   UNL     1       1.964  10.507  17.603  0.00  0.00    +0.000 OA
ATOM     36  H   UNL     1       2.909  10.727  17.697  0.00  0.00    +0.000 HD
ENDBRANCH  30  35
ENDBRANCH  20  21
ENDBRANCH   3  20
TORSDOF 12
ENDMDL
MODEL 7
REMARK VINA RESULT:      -7.0      5.357      9.968
REMARK  Name = 
REMARK  14 active torsions:
REMARK  status: ('A' for Active; 'I' for Inactive)
REMARK    1  A    between atoms: C_1  and  C_2
REMARK    2  A    between atoms: C_2  and  N_3
REMARK    3  A    between atoms: N_3  and  C_4
REMARK    4  A    between atoms: N_3  and  C_6
REMARK    5  A    between atoms: C_4  and  C_5
REMARK    6  A    between atoms: C_6  and  C_7
REMARK    7  A    between atoms: C_7  and  C_8
REMARK    8  A    between atoms: C_8  and  N_9
REMARK    9  A    between atoms: C_10  and  S_11
REMARK   10  A    between atoms: N_12  and  C_13
REMARK   11  A    between atoms: N_12  and  C_19
REMARK   12  A    between atoms: C_13  and  C_14
REMARK   13  A    between atoms: C_19  and  C_20
REMARK   14  A    between atoms: C_29  and  O_30
REMARK                            x       y       z     vdW  Elec       q    Type
REMARK                         _______ _______ _______ _____ _____    ______ ____
ROOT
ATOM      1  N   UNL     1      -2.108  12.148  20.337  0.00  0.00    +0.000 NA
ATOM      2  C   UNL     1      -1.143  12.414  19.523  0.00  0.00    +0.000 C 
ATOM      3  N   UNL     1      -0.646  11.453  18.651  0.00  0.00    +0.000 N 
ENDROOT
BRANCH   2   4
ATOM      4  S   UNL     1      -0.374  14.005  19.411  0.00  0.00    +0.000 S 
ATOM      5  H   UNL     1      -1.468  14.767  19.370  0.00  0.00    +0.000 HD
ENDBRANCH   2   4
BRANCH   1   6
ATOM      6  C   UNL     1      -2.666  13.124  21.268  0.00  0.00    +0.000 C 
BRANCH   6   7
ATOM      7  C   UNL     1      -2.421  12.612  22.687  0.00  0.00    +0.000 C 
BRANCH   7   8
ATOM      8  C   UNL     1      -2.426  13.722  23.752  0.00  0.00    +0.000 C 
BRANCH   8   9
ATOM      9  N   UNL     1      -3.671  13.861  24.535  0.00  0.00    +0.000 NA
BRANCH   9  11
ATOM     10  C   UNL     1      -3.611  16.274  23.781  0.00  0.00    +0.000 C 
ATOM     11  C   UNL     1      -4.446  15.046  24.127  0.00  0.00    +0.000 C 
ENDBRANCH   9  11
BRANCH   9  12
ATOM     12  C   UNL     1      -4.449  12.608  24.534  0.00  0.00    +0.000 C 
ATOM     13  C   UNL     1      -5.870  12.686  23.979  0.00  0.00    +0.000 C 
ENDBRANCH   9  12
ENDBRANCH   8   9
ENDBRANCH   7   8
ENDBRANCH   6   7
ENDBRANCH   1   6
BRANCH   3  14
ATOM     14  C   UNL     1      -1.449  10.256  18.350  0.00  0.00    +0.000 C 
BRANCH  14  15
ATOM     15  C   UNL     1      -2.411  10.357  17.205  0.00  0.00    +0.000 A 
ATOM     16  C   UNL     1      -2.389   9.927  15.892  0.00  0.00    +0.000 A 
ATOM     17  C   UNL     1      -3.568  10.418  15.283  0.00  0.00    +0.000 A 
ATOM     18  C   UNL     1      -4.247  11.106  16.261  0.00  0.00    +0.000 A 
ATOM     19  O   UNL     1      -3.558  11.069  17.431  0.00  0.00    +0.000 OA
ENDBRANCH  14  15
ENDBRANCH   3  14
BRANCH   3  20
ATOM     20  C   UNL     1       0.811  11.251  18.546  0.00  0.00    +0.000 C 
BRANCH  20  21
ATOM     21  C   UNL     1       1.246   9.890  19.011  0.00  0.00    +0.000 A 
ATOM     22  C   UNL     1       1.796   8.931  18.159  0.00  0.00    +0.000 A 
ATOM     23  C   UNL     1       2.127   7.661  18.640  0.00  0.00    +0.000 A 
ATOM     24  C   UNL     1       2.678   6.691  17.794  0.00  0.00    +0.000 A 
ATOM     25  C   UNL     1       2.978   5.427  18.292  0.00  0.00    +0.000 A 
ATOM     26  C   UNL     1       2.710   5.131  19.628  0.00  0.00    +0.000 A 
ATOM     27  C   UNL     1       2.190   6.108  20.476  0.00  0.00    +0.000 A 
ATOM     28  C   UNL     1       1.885   7.378  20.003  0.00  0.00    +0.000 A 
ATOM     29  N   UNL     1       1.358   8.287  20.840  0.00  0.00    +0.000 NA
ATOM     30  C   UNL     1       1.057   9.493  20.324  0.00  0.00    +0.000 A 
ATOM     31  O   UNL     1       2.938   3.895  20.177  0.00  0.00    +0.000 OA
ATOM     32  C   UNL     1       3.119   2.900  19.162  0.00  0.00    +0.000 C 
ATOM     33  C   UNL     1       4.074   3.401  18.091  0.00  0.00    +0.000 C 
ATOM     34  O   UNL     1       3.518   4.532  17.411  0.00  0.00    +0.000 OA
BRANCH  30  35
ATOM     35  O   UNL     1       0.507  10.331  21.239  0.00  0.00    +0.000 OA
ATOM     36  H   UNL     1       0.856   9.928  22.056  0.00  0.00    +0.000 HD
ENDBRANCH  30  35
ENDBRANCH  20  21
ENDBRANCH   3  20
TORSDOF 12
ENDMDL
MODEL 8
REMARK VINA RESULT:      -6.9      3.735      6.784
REMARK  Name = 
REMARK  14 active torsions:
REMARK  status: ('A' for Active; 'I' for Inactive)
REMARK    1  A    between atoms: C_1  and  C_2
REMARK    2  A    between atoms: C_2  and  N_3
REMARK    3  A    between atoms: N_3  and  C_4
REMARK    4  A    between atoms: N_3  and  C_6
REMARK    5  A    between atoms: C_4  and  C_5
REMARK    6  A    between atoms: C_6  and  C_7
REMARK    7  A    between atoms: C_7  and  C_8
REMARK    8  A    between atoms: C_8  and  N_9
REMARK    9  A    between atoms: C_10  and  S_11
REMARK   10  A    between atoms: N_12  and  C_13
REMARK   11  A    between atoms: N_12  and  C_19
REMARK   12  A    between atoms: C_13  and  C_14
REMARK   13  A    between atoms: C_19  and  C_20
REMARK   14  A    between atoms: C_29  and  O_30
REMARK                            x       y       z     vdW  Elec       q    Type
REMARK                         _______ _______ _______ _____ _____    ______ ____
ROOT
ATOM      1  N   UNL     1       5.240   4.599  15.633  0.00  0.00    +0.000 NA
ATOM      2  C   UNL     1       5.528   4.595  16.891  0.00  0.00    +0.000 C 
ATOM      3  N   UNL     1       4.535   4.558  17.861  0.00  0.00    +0.000 N 
ENDROOT
BRANCH   2   4
ATOM      4  S   UNL     1       7.188   4.611  17.509  0.00  0.00    +0.000 S 
ATOM      5  H   UNL     1       7.815   4.101  16.449  0.00  0.00    +0.000 HD
ENDBRANCH   2   4
BRANCH   1   6
ATOM      6  C   UNL     1       6.248   4.634  14.577  0.00  0.00    +0.000 C 
BRANCH   6   7
ATOM      7  C   UNL     1       6.018   3.426  13.669  0.00  0.00    +0.000 C 
BRANCH   7   8
ATOM      8  C   UNL     1       6.280   3.715  12.181  0.00  0.00    +0.000 C 
BRANCH   8   9
ATOM      9  N   UNL     1       5.436   2.974  11.222  0.00  0.00    +0.000 NA
BRANCH   9  11
ATOM     10  C   UNL     1       7.219   1.189  11.066  0.00  0.00    +0.000 C 
ATOM     11  C   UNL     1       5.741   1.533  11.220  0.00  0.00    +0.000 C 
ENDBRANCH   9  11
BRANCH   9  12
ATOM     12  C   UNL     1       4.005   3.281  11.416  0.00  0.00    +0.000 C 
ATOM     13  C   UNL     1       3.231   3.743  10.182  0.00  0.00    +0.000 C 
ENDBRANCH   9  12
ENDBRANCH   8   9
ENDBRANCH   7   8
ENDBRANCH   6   7
ENDBRANCH   1   6
BRANCH   3  14
ATOM     14  C   UNL     1       3.175   4.126  17.497  0.00  0.00    +0.000 C 
BRANCH  14  15
ATOM     15  C   UNL     1       2.324   3.568  18.599  0.00  0.00    +0.000 A 
ATOM     16  C   UNL     1       1.172   3.994  19.229  0.00  0.00    +0.000 A 
ATOM     17  C   UNL     1       0.909   3.067  20.266  0.00  0.00    +0.000 A 
ATOM     18  C   UNL     1       1.906   2.123  20.198  0.00  0.00    +0.000 A 
ATOM     19  O   UNL     1       2.766   2.414  19.187  0.00  0.00    +0.000 OA
ENDBRANCH  14  15
ENDBRANCH   3  14
BRANCH   3  20
ATOM     20  C   UNL     1       4.590   5.499  18.995  0.00  0.00    +0.000 C 
BRANCH  20  21
ATOM     21  C   UNL     1       3.710   6.701  18.800  0.00  0.00    +0.000 A 
ATOM     22  C   UNL     1       2.757   7.109  19.733  0.00  0.00    +0.000 A 
ATOM     23  C   UNL     1       1.927   8.202  19.468  0.00  0.00    +0.000 A 
ATOM     24  C   UNL     1       0.967   8.619  20.397  0.00  0.00    +0.000 A 
ATOM     25  C   UNL     1       0.137   9.696  20.100  0.00  0.00    +0.000 A 
ATOM     26  C   UNL     1       0.258  10.341  18.869  0.00  0.00    +0.000 A 
ATOM     27  C   UNL     1       1.236   9.942  17.959  0.00  0.00    +0.000 A 
ATOM     28  C   UNL     1       2.077   8.872  18.234  0.00  0.00    +0.000 A 
ATOM     29  N   UNL     1       2.990   8.496  17.322  0.00  0.00    +0.000 NA
ATOM     30  C   UNL     1       3.761   7.437  17.628  0.00  0.00    +0.000 A 
ATOM     31  O   UNL     1      -0.553  11.380  18.489  0.00  0.00    +0.000 OA
ATOM     32  C   UNL     1      -1.719  11.459  19.318  0.00  0.00    +0.000 C 
ATOM     33  C   UNL     1      -1.338  11.340  20.785  0.00  0.00    +0.000 C 
ATOM     34  O   UNL     1      -0.775  10.052  21.055  0.00  0.00    +0.000 OA
BRANCH  30  35
ATOM     35  O   UNL     1       4.632   7.119  16.636  0.00  0.00    +0.000 OA
ATOM     36  H   UNL     1       5.446   7.014  17.164  0.00  0.00    +0.000 HD
ENDBRANCH  30  35
ENDBRANCH  20  21
ENDBRANCH   3  20
TORSDOF 12
ENDMDL
MODEL 9
REMARK VINA RESULT:      -6.9      5.353      9.961
REMARK  Name = 
REMARK  14 active torsions:
REMARK  status: ('A' for Active; 'I' for Inactive)
REMARK    1  A    between atoms: C_1  and  C_2
REMARK    2  A    between atoms: C_2  and  N_3
REMARK    3  A    between atoms: N_3  and  C_4
REMARK    4  A    between atoms: N_3  and  C_6
REMARK    5  A    between atoms: C_4  and  C_5
REMARK    6  A    between atoms: C_6  and  C_7
REMARK    7  A    between atoms: C_7  and  C_8
REMARK    8  A    between atoms: C_8  and  N_9
REMARK    9  A    between atoms: C_10  and  S_11
REMARK   10  A    between atoms: N_12  and  C_13
REMARK   11  A    between atoms: N_12  and  C_19
REMARK   12  A    between atoms: C_13  and  C_14
REMARK   13  A    between atoms: C_19  and  C_20
REMARK   14  A    between atoms: C_29  and  O_30
REMARK                            x       y       z     vdW  Elec       q    Type
REMARK                         _______ _______ _______ _____ _____    ______ ____
ROOT
ATOM      1  N   UNL     1      -1.313  11.752  20.900  0.00  0.00    +0.000 NA
ATOM      2  C   UNL     1      -0.410  11.962  20.003  0.00  0.00    +0.000 C 
ATOM      3  N   UNL     1      -0.154  11.033  19.002  0.00  0.00    +0.000 N 
ENDROOT
BRANCH   2   4
ATOM      4  S   UNL     1       0.568  13.437  19.931  0.00  0.00    +0.000 S 
ATOM      5  H   UNL     1       0.384  13.874  21.178  0.00  0.00    +0.000 HD
ENDBRANCH   2   4
BRANCH   1   6
ATOM      6  C   UNL     1      -1.621  12.699  21.968  0.00  0.00    +0.000 C 
BRANCH   6   7
ATOM      7  C   UNL     1      -2.385  11.947  23.057  0.00  0.00    +0.000 C 
BRANCH   7   8
ATOM      8  C   UNL     1      -3.713  12.616  23.451  0.00  0.00    +0.000 C 
BRANCH   8   9
ATOM      9  N   UNL     1      -4.341  13.463  22.418  0.00  0.00    +0.000 NA
BRANCH   9  11
ATOM     10  C   UNL     1      -6.711  12.619  22.168  0.00  0.00    +0.000 C 
ATOM     11  C   UNL     1      -5.300  12.706  21.595  0.00  0.00    +0.000 C 
ENDBRANCH   9  11
BRANCH   9  12
ATOM     12  C   UNL     1      -4.899  14.699  23.000  0.00  0.00    +0.000 C 
ATOM     13  C   UNL     1      -4.914  15.933  22.101  0.00  0.00    +0.000 C 
ENDBRANCH   9  12
ENDBRANCH   8   9
ENDBRANCH   7   8
ENDBRANCH   6   7
ENDBRANCH   1   6
BRANCH   3  14
ATOM     14  C   UNL     1      -1.152   9.992  18.700  0.00  0.00    +0.000 C 
BRANCH  14  15
ATOM     15  C   UNL     1      -2.177  10.320  17.657  0.00  0.00    +0.000 A 
ATOM     16  C   UNL     1      -2.315  10.011  16.318  0.00  0.00    +0.000 A 
ATOM     17  C   UNL     1      -3.460  10.703  15.856  0.00  0.00    +0.000 A 
ATOM     18  C   UNL     1      -3.961  11.382  16.942  0.00  0.00    +0.000 A 
ATOM     19  O   UNL     1      -3.195  11.150  18.040  0.00  0.00    +0.000 OA
ENDBRANCH  14  15
ENDBRANCH   3  14
BRANCH   3  20
ATOM     20  C   UNL     1       1.238  10.644  18.709  0.00  0.00    +0.000 C 
BRANCH  20  21
ATOM     21  C   UNL     1       1.549   9.233  19.123  0.00  0.00    +0.000 A 
ATOM     22  C   UNL     1       1.934   8.240  18.221  0.00  0.00    +0.000 A 
ATOM     23  C   UNL     1       2.153   6.931  18.658  0.00  0.00    +0.000 A 
ATOM     24  C   UNL     1       2.538   5.927  17.762  0.00  0.00    +0.000 A 
ATOM     25  C   UNL     1       2.728   4.627  18.218  0.00  0.00    +0.000 A 
ATOM     26  C   UNL     1       2.515   4.330  19.564  0.00  0.00    +0.000 A 
ATOM     27  C   UNL     1       2.161   5.338  20.460  0.00  0.00    +0.000 A 
ATOM     28  C   UNL     1       1.969   6.644  20.029  0.00  0.00    +0.000 A 
ATOM     29  N   UNL     1       1.600   7.586  20.914  0.00  0.00    +0.000 NA
ATOM     30  C   UNL     1       1.401   8.829  20.438  0.00  0.00    +0.000 A 
ATOM     31  O   UNL     1       2.640   3.064  20.077  0.00  0.00    +0.000 OA
ATOM     32  C   UNL     1       2.644   2.079  19.036  0.00  0.00    +0.000 C 
ATOM     33  C   UNL     1       3.578   2.498  17.912  0.00  0.00    +0.000 C 
ATOM     34  O   UNL     1       3.108   3.698  17.289  0.00  0.00    +0.000 OA
BRANCH  30  35
ATOM     35  O   UNL     1       1.008   9.700  21.402  0.00  0.00    +0.000 OA
ATOM     36  H   UNL     1       0.105   9.892  21.086  0.00  0.00    +0.000 HD
ENDBRANCH  30  35
ENDBRANCH  20  21
ENDBRANCH   3  20
TORSDOF 12
ENDMDL
