MODEL 1
REMARK VINA RESULT:      -6.4      0.000      0.000
REMARK  Name = 
REMARK  12 active torsions:
REMARK  status: ('A' for Active; 'I' for Inactive)
REMARK    1  A    between atoms: C_2  and  N_3
REMARK    2  A    between atoms: N_5  and  C_6
REMARK    3  A    between atoms: C_6  and  C_7
REMARK    4  A    between atoms: C_7  and  C_8
REMARK    5  A    between atoms: C_8  and  C_9
REMARK    6  A    between atoms: C_9  and  C_10
REMARK    7  A    between atoms: C_10  and  C_11
REMARK    8  A    between atoms: C_11  and  C_12
REMARK    9  A    between atoms: C_12  and  C_13
REMARK   10  A    between atoms: C_13  and  C_15
REMARK   11  A    between atoms: C_15  and  C_16
REMARK   12  A    between atoms: C_16  and  C_17
REMARK                            x       y       z     vdW  Elec       q    Type
REMARK                         _______ _______ _______ _____ _____    ______ ____
ROOT
ATOM      1  C   UNL     1       1.567   1.992  19.304  0.00  0.00    +0.000 C 
ENDROOT
BRANCH   1   2
ATOM      2  C   UNL     1       2.081   2.190  17.882  0.00  0.00    +0.000 C 
BRANCH   2   3
ATOM      3  C   UNL     1       3.493   2.761  17.916  0.00  0.00    +0.000 C 
BRANCH   3   4
ATOM      4  C   UNL     1       3.561   4.102  17.198  0.00  0.00    +0.000 C 
BRANCH   4   5
ATOM      5  C   UNL     1       4.705   4.118  16.187  0.00  0.00    +0.000 C 
BRANCH   5   6
ATOM      6  C   UNL     1       5.179   5.544  15.931  0.00  0.00    +0.000 C 
BRANCH   6   9
ATOM      7  N   UNL     1       7.130   5.749  17.090  0.00  0.00    +0.000 N 
ATOM      8  O   UNL     1       7.715   5.148  16.124  0.00  0.00    +0.000 OA
ATOM      9  N   UNL     1       5.885   6.011  17.130  0.00  0.00    +0.000 NA
BRANCH   7  11
ATOM     10  C   UNL     1       7.420   5.770  19.482  0.00  0.00    +0.000 C 
ATOM     11  C   UNL     1       7.825   6.216  18.283  0.00  0.00    +0.000 C 
ENDBRANCH   7  11
ENDBRANCH   6   9
ENDBRANCH   5   6
ENDBRANCH   4   5
ENDBRANCH   3   4
ENDBRANCH   2   3
ENDBRANCH   1   2
BRANCH   1  12
ATOM     12  C   UNL     1       1.003   3.282  19.873  0.00  0.00    +0.000 C 
BRANCH  12  13
ATOM     13  C   UNL     1       1.775   3.727  21.102  0.00  0.00    +0.000 C 
ATOM     14  O   UNL     1       2.154   2.929  21.960  0.00  0.00    +0.000 OA
BRANCH  13  15
ATOM     15  C   UNL     1       2.046   5.208  21.235  0.00  0.00    +0.000 C 
BRANCH  15  16
ATOM     16  C   UNL     1       2.840   5.718  20.037  0.00  0.00    +0.000 C 
BRANCH  16  17
ATOM     17  C   UNL     1       2.346   7.055  19.552  0.00  0.00    +0.000 A 
ATOM     18  C   UNL     1       1.614   7.909  20.388  0.00  0.00    +0.000 A 
ATOM     19  C   UNL     1       1.143   9.133  19.908  0.00  0.00    +0.000 A 
ATOM     20  C   UNL     1       1.399   9.513  18.591  0.00  0.00    +0.000 A 
ATOM     21  C   UNL     1       2.131   8.674  17.756  0.00  0.00    +0.000 A 
ATOM     22  C   UNL     1       2.599   7.450  18.232  0.00  0.00    +0.000 A 
ENDBRANCH  16  17
ENDBRANCH  15  16
ENDBRANCH  13  15
ENDBRANCH  12  13
ENDBRANCH   1  12
TORSDOF 12
ENDMDL
MODEL 2
REMARK VINA RESULT:      -6.3      4.177      7.050
REMARK  Name = 
REMARK  12 active torsions:
REMARK  status: ('A' for Active; 'I' for Inactive)
REMARK    1  A    between atoms: C_2  and  N_3
REMARK    2  A    between atoms: N_5  and  C_6
REMARK    3  A    between atoms: C_6  and  C_7
REMARK    4  A    between atoms: C_7  and  C_8
REMARK    5  A    between atoms: C_8  and  C_9
REMARK    6  A    between atoms: C_9  and  C_10
REMARK    7  A    between atoms: C_10  and  C_11
REMARK    8  A    between atoms: C_11  and  C_12
REMARK    9  A    between atoms: C_12  and  C_13
REMARK   10  A    between atoms: C_13  and  C_15
REMARK   11  A    between atoms: C_15  and  C_16
REMARK   12  A    between atoms: C_16  and  C_17
REMARK                            x       y       z     vdW  Elec       q    Type
REMARK                         _______ _______ _______ _____ _____    ______ ____
ROOT
ATOM      1  C   UNL     1       6.303   5.734  19.231  0.00  0.00    +0.000 C 
ENDROOT
BRANCH   1   2
ATOM      2  C   UNL     1       5.123   5.450  18.308  0.00  0.00    +0.000 C 
BRANCH   2   3
ATOM      3  C   UNL     1       5.314   4.102  17.622  0.00  0.00    +0.000 C 
BRANCH   3   4
ATOM      4  C   UNL     1       4.835   4.148  16.178  0.00  0.00    +0.000 C 
BRANCH   4   5
ATOM      5  C   UNL     1       5.570   5.235  15.397  0.00  0.00    +0.000 C 
BRANCH   5   6
ATOM      6  C   UNL     1       6.427   4.622  14.295  0.00  0.00    +0.000 C 
BRANCH   6   9
ATOM      7  N   UNL     1       6.076   3.503  12.341  0.00  0.00    +0.000 N 
ATOM      8  O   UNL     1       7.201   3.954  11.933  0.00  0.00    +0.000 OA
ATOM      9  N   UNL     1       5.569   3.751  13.483  0.00  0.00    +0.000 NA
BRANCH   7  11
ATOM     10  C   UNL     1       4.021   3.097  11.151  0.00  0.00    +0.000 C 
ATOM     11  C   UNL     1       5.219   2.637  11.541  0.00  0.00    +0.000 C 
ENDBRANCH   7  11
ENDBRANCH   6   9
ENDBRANCH   5   6
ENDBRANCH   4   5
ENDBRANCH   3   4
ENDBRANCH   2   3
ENDBRANCH   1   2
BRANCH   1  12
ATOM     12  C   UNL     1       7.593   5.895  18.446  0.00  0.00    +0.000 C 
BRANCH  12  13
ATOM     13  C   UNL     1       7.725   7.298  17.882  0.00  0.00    +0.000 C 
ATOM     14  O   UNL     1       7.225   7.618  16.802  0.00  0.00    +0.000 OA
BRANCH  13  15
ATOM     15  C   UNL     1       8.517   8.289  18.703  0.00  0.00    +0.000 C 
BRANCH  15  16
ATOM     16  C   UNL     1       8.459   9.677  18.073  0.00  0.00    +0.000 C 
BRANCH  16  17
ATOM     17  C   UNL     1       9.455  10.625  18.686  0.00  0.00    +0.000 A 
ATOM     18  C   UNL     1       9.577  10.755  20.077  0.00  0.00    +0.000 A 
ATOM     19  C   UNL     1      10.489  11.660  20.623  0.00  0.00    +0.000 A 
ATOM     20  C   UNL     1      11.285  12.441  19.786  0.00  0.00    +0.000 A 
ATOM     21  C   UNL     1      11.176  12.312  18.404  0.00  0.00    +0.000 A 
ATOM     22  C   UNL     1      10.263  11.412  17.857  0.00  0.00    +0.000 A 
ENDBRANCH  16  17
ENDBRANCH  15  16
ENDBRANCH  13  15
ENDBRANCH  12  13
ENDBRANCH   1  12
TORSDOF 12
ENDMDL
MODEL 3
REMARK VINA RESULT:      -6.3      2.829      6.752
REMARK  Name = 
REMARK  12 active torsions:
REMARK  status: ('A' for Active; 'I' for Inactive)
REMARK    1  A    between atoms: C_2  and  N_3
REMARK    2  A    between atoms: N_5  and  C_6
REMARK    3  A    between atoms: C_6  and  C_7
REMARK    4  A    between atoms: C_7  and  C_8
REMARK    5  A    between atoms: C_8  and  C_9
REMARK    6  A    between atoms: C_9  and  C_10
REMARK    7  A    between atoms: C_10  and  C_11
REMARK    8  A    between atoms: C_11  and  C_12
REMARK    9  A    between atoms: C_12  and  C_13
REMARK   10  A    between atoms: C_13  and  C_15
REMARK   11  A    between atoms: C_15  and  C_16
REMARK   12  A    between atoms: C_16  and  C_17
REMARK                            x       y       z     vdW  Elec       q    Type
REMARK                         _______ _______ _______ _____ _____    ______ ____
ROOT
ATOM      1  C   UNL     1       5.021   3.998  18.750  0.00  0.00    +0.000 C 
ENDROOT
BRANCH   1   2
ATOM      2  C   UNL     1       3.756   4.114  17.906  0.00  0.00    +0.000 C 
BRANCH   2   3
ATOM      3  C   UNL     1       3.473   5.579  17.597  0.00  0.00    +0.000 C 
BRANCH   3   4
ATOM      4  C   UNL     1       2.197   6.049  18.282  0.00  0.00    +0.000 C 
BRANCH   4   5
ATOM      5  C   UNL     1       2.508   6.650  19.651  0.00  0.00    +0.000 C 
BRANCH   5   6
ATOM      6  C   UNL     1       1.721   5.937  20.745  0.00  0.00    +0.000 C 
BRANCH   6   9
ATOM      7  N   UNL     1       1.610   3.664  20.867  0.00  0.00    +0.000 N 
ATOM      8  O   UNL     1       2.354   3.728  21.906  0.00  0.00    +0.000 OA
ATOM      9  N   UNL     1       1.221   4.672  20.194  0.00  0.00    +0.000 NA
BRANCH   7  11
ATOM     10  C   UNL     1       0.838   2.348  19.003  0.00  0.00    +0.000 C 
ATOM     11  C   UNL     1       1.108   2.412  20.315  0.00  0.00    +0.000 C 
ENDBRANCH   7  11
ENDBRANCH   6   9
ENDBRANCH   5   6
ENDBRANCH   4   5
ENDBRANCH   3   4
ENDBRANCH   2   3
ENDBRANCH   1   2
BRANCH   1  12
ATOM     12  C   UNL     1       5.857   5.263  18.672  0.00  0.00    +0.000 C 
BRANCH  12  13
ATOM     13  C   UNL     1       7.305   4.948  18.343  0.00  0.00    +0.000 C 
ATOM     14  O   UNL     1       8.191   4.983  19.199  0.00  0.00    +0.000 OA
BRANCH  13  15
ATOM     15  C   UNL     1       7.617   4.604  16.906  0.00  0.00    +0.000 C 
BRANCH  15  16
ATOM     16  C   UNL     1       6.824   5.496  15.956  0.00  0.00    +0.000 C 
BRANCH  16  17
ATOM     17  C   UNL     1       6.655   4.874  14.596  0.00  0.00    +0.000 A 
ATOM     18  C   UNL     1       5.567   4.039  14.306  0.00  0.00    +0.000 A 
ATOM     19  C   UNL     1       5.446   3.451  13.045  0.00  0.00    +0.000 A 
ATOM     20  C   UNL     1       6.407   3.694  12.065  0.00  0.00    +0.000 A 
ATOM     21  C   UNL     1       7.486   4.528  12.342  0.00  0.00    +0.000 A 
ATOM     22  C   UNL     1       7.612   5.112  13.601  0.00  0.00    +0.000 A 
ENDBRANCH  16  17
ENDBRANCH  15  16
ENDBRANCH  13  15
ENDBRANCH  12  13
ENDBRANCH   1  12
TORSDOF 12
ENDMDL
MODEL 4
REMARK VINA RESULT:      -6.2      1.889      3.936
REMARK  Name = 
REMARK  12 active torsions:
REMARK  status: ('A' for Active; 'I' for Inactive)
REMARK    1  A    between atoms: C_2  and  N_3
REMARK    2  A    between atoms: N_5  and  C_6
REMARK    3  A    between atoms: C_6  and  C_7
REMARK    4  A    between atoms: C_7  and  C_8
REMARK    5  A    between atoms: C_8  and  C_9
REMARK    6  A    between atoms: C_9  and  C_10
REMARK    7  A    between atoms: C_10  and  C_11
REMARK    8  A    between atoms: C_11  and  C_12
REMARK    9  A    between atoms: C_12  and  C_13
REMARK   10  A    between atoms: C_13  and  C_15
REMARK   11  A    between atoms: C_15  and  C_16
REMARK   12  A    between atoms: C_16  and  C_17
REMARK                            x       y       z     vdW  Elec       q    Type
REMARK                         _______ _______ _______ _____ _____    ______ ____
ROOT
ATOM      1  C   UNL     1       3.434   5.708  17.715  0.00  0.00    +0.000 C 
ENDROOT
BRANCH   1   2
ATOM      2  C   UNL     1       4.302   4.537  18.161  0.00  0.00    +0.000 C 
BRANCH   2   3
ATOM      3  C   UNL     1       4.321   3.464  17.079  0.00  0.00    +0.000 C 
BRANCH   3   4
ATOM      4  C   UNL     1       4.699   4.053  15.727  0.00  0.00    +0.000 C 
BRANCH   4   5
ATOM      5  C   UNL     1       6.136   3.692  15.360  0.00  0.00    +0.000 C 
BRANCH   5   6
ATOM      6  C   UNL     1       7.001   4.945  15.269  0.00  0.00    +0.000 C 
BRANCH   6   9
ATOM      7  N   UNL     1       7.192   6.359  17.046  0.00  0.00    +0.000 N 
ATOM      8  O   UNL     1       6.449   7.184  16.411  0.00  0.00    +0.000 OA
ATOM      9  N   UNL     1       7.546   5.219  16.604  0.00  0.00    +0.000 NA
BRANCH   7  11
ATOM     10  C   UNL     1       7.655   5.666  19.306  0.00  0.00    +0.000 C 
ATOM     11  C   UNL     1       7.737   6.624  18.371  0.00  0.00    +0.000 C 
ENDBRANCH   7  11
ENDBRANCH   6   9
ENDBRANCH   5   6
ENDBRANCH   4   5
ENDBRANCH   3   4
ENDBRANCH   2   3
ENDBRANCH   1   2
BRANCH   1  12
ATOM     12  C   UNL     1       3.705   6.947  18.549  0.00  0.00    +0.000 C 
BRANCH  12  13
ATOM     13  C   UNL     1       2.421   7.514  19.129  0.00  0.00    +0.000 C 
ATOM     14  O   UNL     1       1.711   8.299  18.500  0.00  0.00    +0.000 OA
BRANCH  13  15
ATOM     15  C   UNL     1       2.060   7.081  20.531  0.00  0.00    +0.000 C 
BRANCH  15  16
ATOM     16  C   UNL     1       0.895   6.097  20.506  0.00  0.00    +0.000 C 
BRANCH  16  17
ATOM     17  C   UNL     1       1.356   4.668  20.401  0.00  0.00    +0.000 A 
ATOM     18  C   UNL     1       0.898   3.827  19.377  0.00  0.00    +0.000 A 
ATOM     19  C   UNL     1       1.319   2.497  19.316  0.00  0.00    +0.000 A 
ATOM     20  C   UNL     1       2.201   1.998  20.274  0.00  0.00    +0.000 A 
ATOM     21  C   UNL     1       2.667   2.829  21.289  0.00  0.00    +0.000 A 
ATOM     22  C   UNL     1       2.244   4.155  21.355  0.00  0.00    +0.000 A 
ENDBRANCH  16  17
ENDBRANCH  15  16
ENDBRANCH  13  15
ENDBRANCH  12  13
ENDBRANCH   1  12
TORSDOF 12
ENDMDL
MODEL 5
REMARK VINA RESULT:      -6.0      2.047      4.682
REMARK  Name = 
REMARK  12 active torsions:
REMARK  status: ('A' for Active; 'I' for Inactive)
REMARK    1  A    between atoms: C_2  and  N_3
REMARK    2  A    between atoms: N_5  and  C_6
REMARK    3  A    between atoms: C_6  and  C_7
REMARK    4  A    between atoms: C_7  and  C_8
REMARK    5  A    between atoms: C_8  and  C_9
REMARK    6  A    between atoms: C_9  and  C_10
REMARK    7  A    between atoms: C_10  and  C_11
REMARK    8  A    between atoms: C_11  and  C_12
REMARK    9  A    between atoms: C_12  and  C_13
REMARK   10  A    between atoms: C_13  and  C_15
REMARK   11  A    between atoms: C_15  and  C_16
REMARK   12  A    between atoms: C_16  and  C_17
REMARK                            x       y       z     vdW  Elec       q    Type
REMARK                         _______ _______ _______ _____ _____    ______ ____
ROOT
ATOM      1  C   UNL     1       3.815   6.596  19.043  0.00  0.00    +0.000 C 
ENDROOT
BRANCH   1   2
ATOM      2  C   UNL     1       4.263   5.912  17.756  0.00  0.00    +0.000 C 
BRANCH   2   3
ATOM      3  C   UNL     1       5.041   6.896  16.890  0.00  0.00    +0.000 C 
BRANCH   3   4
ATOM      4  C   UNL     1       6.538   6.791  17.147  0.00  0.00    +0.000 C 
BRANCH   4   5
ATOM      5  C   UNL     1       6.850   5.605  18.056  0.00  0.00    +0.000 C 
BRANCH   5   6
ATOM      6  C   UNL     1       7.587   4.515  17.287  0.00  0.00    +0.000 C 
BRANCH   6   9
ATOM      7  N   UNL     1       6.720   4.168  15.208  0.00  0.00    +0.000 N 
ATOM      8  O   UNL     1       5.978   3.260  15.718  0.00  0.00    +0.000 OA
ATOM      9  N   UNL     1       7.560   4.866  15.862  0.00  0.00    +0.000 NA
BRANCH   7  11
ATOM     10  C   UNL     1       6.129   3.676  12.925  0.00  0.00    +0.000 C 
ATOM     11  C   UNL     1       6.698   4.524  13.795  0.00  0.00    +0.000 C 
ENDBRANCH   7  11
ENDBRANCH   6   9
ENDBRANCH   5   6
ENDBRANCH   4   5
ENDBRANCH   3   4
ENDBRANCH   2   3
ENDBRANCH   1   2
BRANCH   1  12
ATOM     12  C   UNL     1       2.319   6.856  19.039  0.00  0.00    +0.000 C 
BRANCH  12  13
ATOM     13  C   UNL     1       1.740   6.775  20.440  0.00  0.00    +0.000 C 
ATOM     14  O   UNL     1       1.248   7.754  21.001  0.00  0.00    +0.000 OA
BRANCH  13  15
ATOM     15  C   UNL     1       1.812   5.431  21.128  0.00  0.00    +0.000 C 
BRANCH  15  16
ATOM     16  C   UNL     1       1.039   4.381  20.337  0.00  0.00    +0.000 C 
BRANCH  16  17
ATOM     17  C   UNL     1       1.947   3.475  19.550  0.00  0.00    +0.000 A 
ATOM     18  C   UNL     1       1.635   3.089  18.240  0.00  0.00    +0.000 A 
ATOM     19  C   UNL     1       2.480   2.225  17.539  0.00  0.00    +0.000 A 
ATOM     20  C   UNL     1       3.642   1.743  18.140  0.00  0.00    +0.000 A 
ATOM     21  C   UNL     1       3.963   2.128  19.439  0.00  0.00    +0.000 A 
ATOM     22  C   UNL     1       3.119   2.986  20.142  0.00  0.00    +0.000 A 
ENDBRANCH  16  17
ENDBRANCH  15  16
ENDBRANCH  13  15
ENDBRANCH  12  13
ENDBRANCH   1  12
TORSDOF 12
ENDMDL
MODEL 6
REMARK VINA RESULT:      -6.0      3.451      6.637
REMARK  Name = 
REMARK  12 active torsions:
REMARK  status: ('A' for Active; 'I' for Inactive)
REMARK    1  A    between atoms: C_2  and  N_3
REMARK    2  A    between atoms: N_5  and  C_6
REMARK    3  A    between atoms: C_6  and  C_7
REMARK    4  A    between atoms: C_7  and  C_8
REMARK    5  A    between atoms: C_8  and  C_9
REMARK    6  A    between atoms: C_9  and  C_10
REMARK    7  A    between atoms: C_10  and  C_11
REMARK    8  A    between atoms: C_11  and  C_12
REMARK    9  A    between atoms: C_12  and  C_13
REMARK   10  A    between atoms: C_13  and  C_15
REMARK   11  A    between atoms: C_15  and  C_16
REMARK   12  A    between atoms: C_16  and  C_17
REMARK                            x       y       z     vdW  Elec       q    Type
REMARK                         _______ _______ _______ _____ _____    ______ ____
ROOT
ATOM      1  C   UNL     1       3.623   6.623  17.521  0.00  0.00    +0.000 C 
ENDROOT
BRANCH   1   2
ATOM      2  C   UNL     1       2.716   6.503  18.740  0.00  0.00    +0.000 C 
BRANCH   2   3
ATOM      3  C   UNL     1       2.281   7.889  19.201  0.00  0.00    +0.000 C 
BRANCH   3   4
ATOM      4  C   UNL     1       2.148   8.843  18.022  0.00  0.00    +0.000 C 
BRANCH   4   5
ATOM      5  C   UNL     1       0.728   9.397  17.930  0.00  0.00    +0.000 C 
BRANCH   5   6
ATOM      6  C   UNL     1       0.596  10.683  18.737  0.00  0.00    +0.000 C 
BRANCH   6   9
ATOM      7  N   UNL     1       0.321  10.797  20.996  0.00  0.00    +0.000 N 
ATOM      8  O   UNL     1       1.457  11.380  21.060  0.00  0.00    +0.000 OA
ATOM      9  N   UNL     1      -0.227  10.397  19.918  0.00  0.00    +0.000 NA
BRANCH   7  11
ATOM     10  C   UNL     1      -0.276   9.381  22.852  0.00  0.00    +0.000 C 
ATOM     11  C   UNL     1      -0.503  10.510  22.164  0.00  0.00    +0.000 C 
ENDBRANCH   7  11
ENDBRANCH   6   9
ENDBRANCH   5   6
ENDBRANCH   4   5
ENDBRANCH   3   4
ENDBRANCH   2   3
ENDBRANCH   1   2
BRANCH   1  12
ATOM     12  C   UNL     1       5.042   6.188  17.841  0.00  0.00    +0.000 C 
BRANCH  12  13
ATOM     13  C   UNL     1       5.150   4.676  17.928  0.00  0.00    +0.000 C 
ATOM     14  O   UNL     1       6.056   4.120  18.550  0.00  0.00    +0.000 OA
BRANCH  13  15
ATOM     15  C   UNL     1       4.096   3.877  17.196  0.00  0.00    +0.000 C 
BRANCH  15  16
ATOM     16  C   UNL     1       3.834   2.554  17.909  0.00  0.00    +0.000 C 
BRANCH  16  17
ATOM     17  C   UNL     1       2.952   2.721  19.117  0.00  0.00    +0.000 A 
ATOM     18  C   UNL     1       3.423   2.448  20.409  0.00  0.00    +0.000 A 
ATOM     19  C   UNL     1       2.577   2.584  21.512  0.00  0.00    +0.000 A 
ATOM     20  C   UNL     1       1.257   2.996  21.334  0.00  0.00    +0.000 A 
ATOM     21  C   UNL     1       0.783   3.276  20.056  0.00  0.00    +0.000 A 
ATOM     22  C   UNL     1       1.624   3.136  18.953  0.00  0.00    +0.000 A 
ENDBRANCH  16  17
ENDBRANCH  15  16
ENDBRANCH  13  15
ENDBRANCH  12  13
ENDBRANCH   1  12
TORSDOF 12
ENDMDL
MODEL 7
REMARK VINA RESULT:      -6.0      1.122      1.285
REMARK  Name = 
REMARK  12 active torsions:
REMARK  status: ('A' for Active; 'I' for Inactive)
REMARK    1  A    between atoms: C_2  and  N_3
REMARK    2  A    between atoms: N_5  and  C_6
REMARK    3  A    between atoms: C_6  and  C_7
REMARK    4  A    between atoms: C_7  and  C_8
REMARK    5  A    between atoms: C_8  and  C_9
REMARK    6  A    between atoms: C_9  and  C_10
REMARK    7  A    between atoms: C_10  and  C_11
REMARK    8  A    between atoms: C_11  and  C_12
REMARK    9  A    between atoms: C_12  and  C_13
REMARK   10  A    between atoms: C_13  and  C_15
REMARK   11  A    between atoms: C_15  and  C_16
REMARK   12  A    between atoms: C_16  and  C_17
REMARK                            x       y       z     vdW  Elec       q    Type
REMARK                         _______ _______ _______ _____ _____    ______ ____
ROOT
ATOM      1  C   UNL     1       1.861   2.786  18.024  0.00  0.00    +0.000 C 
ENDROOT
BRANCH   1   2
ATOM      2  C   UNL     1       3.147   2.826  17.206  0.00  0.00    +0.000 C 
BRANCH   2   3
ATOM      3  C   UNL     1       4.199   3.653  17.936  0.00  0.00    +0.000 C 
BRANCH   3   4
ATOM      4  C   UNL     1       5.498   3.714  17.144  0.00  0.00    +0.000 C 
BRANCH   4   5
ATOM      5  C   UNL     1       5.248   4.243  15.733  0.00  0.00    +0.000 C 
BRANCH   5   6
ATOM      6  C   UNL     1       6.239   5.349  15.389  0.00  0.00    +0.000 C 
BRANCH   6   9
ATOM      7  N   UNL     1       6.935   6.597  17.164  0.00  0.00    +0.000 N 
ATOM      8  O   UNL     1       6.036   7.452  16.859  0.00  0.00    +0.000 OA
ATOM      9  N   UNL     1       7.150   5.515  16.528  0.00  0.00    +0.000 NA
BRANCH   7  11
ATOM     10  C   UNL     1       7.867   5.804  19.240  0.00  0.00    +0.000 C 
ATOM     11  C   UNL     1       7.843   6.754  18.294  0.00  0.00    +0.000 C 
ENDBRANCH   7  11
ENDBRANCH   6   9
ENDBRANCH   5   6
ENDBRANCH   4   5
ENDBRANCH   3   4
ENDBRANCH   2   3
ENDBRANCH   1   2
BRANCH   1  12
ATOM     12  C   UNL     1       1.449   4.175  18.476  0.00  0.00    +0.000 C 
BRANCH  12  13
ATOM     13  C   UNL     1       1.429   4.280  19.990  0.00  0.00    +0.000 C 
ATOM     14  O   UNL     1       0.948   3.397  20.700  0.00  0.00    +0.000 OA
BRANCH  13  15
ATOM     15  C   UNL     1       2.017   5.535  20.592  0.00  0.00    +0.000 C 
BRANCH  15  16
ATOM     16  C   UNL     1       2.769   6.337  19.534  0.00  0.00    +0.000 C 
BRANCH  16  17
ATOM     17  C   UNL     1       2.161   7.696  19.309  0.00  0.00    +0.000 A 
ATOM     18  C   UNL     1       1.437   8.347  20.317  0.00  0.00    +0.000 A 
ATOM     19  C   UNL     1       0.860   9.596  20.075  0.00  0.00    +0.000 A 
ATOM     20  C   UNL     1       1.002  10.203  18.828  0.00  0.00    +0.000 A 
ATOM     21  C   UNL     1       1.726   9.566  17.824  0.00  0.00    +0.000 A 
ATOM     22  C   UNL     1       2.299   8.318  18.061  0.00  0.00    +0.000 A 
ENDBRANCH  16  17
ENDBRANCH  15  16
ENDBRANCH  13  15
ENDBRANCH  12  13
ENDBRANCH   1  12
TORSDOF 12
ENDMDL
MODEL 8
REMARK VINA RESULT:      -5.9      0.963      1.589
REMARK  Name = 
REMARK  12 active torsions:
REMARK  status: ('A' for Active; 'I' for Inactive)
REMARK    1  A    between atoms: C_2  and  N_3
REMARK    2  A    between atoms: N_5  and  C_6
REMARK    3  A    between atoms: C_6  and  C_7
REMARK    4  A    between atoms: C_7  and  C_8
REMARK    5  A    between atoms: C_8  and  C_9
REMARK    6  A    between atoms: C_9  and  C_10
REMARK    7  A    between atoms: C_10  and  C_11
REMARK    8  A    between atoms: C_11  and  C_12
REMARK    9  A    between atoms: C_12  and  C_13
REMARK   10  A    between atoms: C_13  and  C_15
REMARK   11  A    between atoms: C_15  and  C_16
REMARK   12  A    between atoms: C_16  and  C_17
REMARK                            x       y       z     vdW  Elec       q    Type
REMARK                         _______ _______ _______ _____ _____    ______ ____
ROOT
ATOM      1  C   UNL     1       2.347   4.215  17.782  0.00  0.00    +0.000 C 
ENDROOT
BRANCH   1   2
ATOM      2  C   UNL     1       3.112   2.997  17.275  0.00  0.00    +0.000 C 
BRANCH   2   3
ATOM      3  C   UNL     1       4.578   3.356  17.065  0.00  0.00    +0.000 C 
BRANCH   3   4
ATOM      4  C   UNL     1       4.723   4.559  16.143  0.00  0.00    +0.000 C 
BRANCH   4   5
ATOM      5  C   UNL     1       5.508   4.188  14.887  0.00  0.00    +0.000 C 
BRANCH   5   6
ATOM      6  C   UNL     1       6.889   4.836  14.904  0.00  0.00    +0.000 C 
BRANCH   6   9
ATOM      7  N   UNL     1       7.510   5.365  17.031  0.00  0.00    +0.000 N 
ATOM      8  O   UNL     1       8.021   4.196  17.124  0.00  0.00    +0.000 OA
ATOM      9  N   UNL     1       6.919   5.814  15.997  0.00  0.00    +0.000 NA
BRANCH   7  11
ATOM     10  C   UNL     1       7.798   5.920  19.358  0.00  0.00    +0.000 C 
ATOM     11  C   UNL     1       7.537   6.342  18.112  0.00  0.00    +0.000 C 
ENDBRANCH   7  11
ENDBRANCH   6   9
ENDBRANCH   5   6
ENDBRANCH   4   5
ENDBRANCH   3   4
ENDBRANCH   2   3
ENDBRANCH   1   2
BRANCH   1  12
ATOM     12  C   UNL     1       1.226   3.812  18.724  0.00  0.00    +0.000 C 
BRANCH  12  13
ATOM     13  C   UNL     1       1.655   3.932  20.176  0.00  0.00    +0.000 C 
ATOM     14  O   UNL     1       1.814   2.944  20.894  0.00  0.00    +0.000 OA
BRANCH  13  15
ATOM     15  C   UNL     1       1.864   5.331  20.709  0.00  0.00    +0.000 C 
BRANCH  15  16
ATOM     16  C   UNL     1       2.805   6.117  19.802  0.00  0.00    +0.000 C 
BRANCH  16  17
ATOM     17  C   UNL     1       2.230   7.448  19.399  0.00  0.00    +0.000 A 
ATOM     18  C   UNL     1       2.468   7.991  18.129  0.00  0.00    +0.000 A 
ATOM     19  C   UNL     1       1.946   9.241  17.788  0.00  0.00    +0.000 A 
ATOM     20  C   UNL     1       1.182   9.956  18.710  0.00  0.00    +0.000 A 
ATOM     21  C   UNL     1       0.935   9.420  19.970  0.00  0.00    +0.000 A 
ATOM     22  C   UNL     1       1.458   8.175  20.315  0.00  0.00    +0.000 A 
ENDBRANCH  16  17
ENDBRANCH  15  16
ENDBRANCH  13  15
ENDBRANCH  12  13
ENDBRANCH   1  12
TORSDOF 12
ENDMDL
MODEL 9
REMARK VINA RESULT:      -5.9      3.304      6.078
REMARK  Name = 
REMARK  12 active torsions:
REMARK  status: ('A' for Active; 'I' for Inactive)
REMARK    1  A    between atoms: C_2  and  N_3
REMARK    2  A    between atoms: N_5  and  C_6
REMARK    3  A    between atoms: C_6  and  C_7
REMARK    4  A    between atoms: C_7  and  C_8
REMARK    5  A    between atoms: C_8  and  C_9
REMARK    6  A    between atoms: C_9  and  C_10
REMARK    7  A    between atoms: C_10  and  C_11
REMARK    8  A    between atoms: C_11  and  C_12
REMARK    9  A    between atoms: C_12  and  C_13
REMARK   10  A    between atoms: C_13  and  C_15
REMARK   11  A    between atoms: C_15  and  C_16
REMARK   12  A    between atoms: C_16  and  C_17
REMARK                            x       y       z     vdW  Elec       q    Type
REMARK                         _______ _______ _______ _____ _____    ______ ____
ROOT
ATOM      1  C   UNL     1       1.853   6.459  20.055  0.00  0.00    +0.000 C 
ENDROOT
BRANCH   1   2
ATOM      2  C   UNL     1       3.154   6.936  19.418  0.00  0.00    +0.000 C 
BRANCH   2   3
ATOM      3  C   UNL     1       2.884   7.443  18.006  0.00  0.00    +0.000 C 
BRANCH   3   4
ATOM      4  C   UNL     1       1.617   8.286  17.957  0.00  0.00    +0.000 C 
BRANCH   4   5
ATOM      5  C   UNL     1       1.951   9.773  18.056  0.00  0.00    +0.000 C 
BRANCH   5   6
ATOM      6  C   UNL     1       0.929  10.499  18.924  0.00  0.00    +0.000 C 
BRANCH   6   9
ATOM      7  N   UNL     1       0.841  10.238  21.186  0.00  0.00    +0.000 N 
ATOM      8  O   UNL     1       1.272  11.437  21.296  0.00  0.00    +0.000 OA
ATOM      9  N   UNL     1       0.626   9.646  20.079  0.00  0.00    +0.000 NA
BRANCH   7  11
ATOM     10  C   UNL     1      -0.391   9.791  23.208  0.00  0.00    +0.000 C 
ATOM     11  C   UNL     1       0.537   9.386  22.328  0.00  0.00    +0.000 C 
ENDBRANCH   7  11
ENDBRANCH   6   9
ENDBRANCH   5   6
ENDBRANCH   4   5
ENDBRANCH   3   4
ENDBRANCH   2   3
ENDBRANCH   1   2
BRANCH   1  12
ATOM     12  C   UNL     1       1.927   4.990  20.430  0.00  0.00    +0.000 C 
BRANCH  12  13
ATOM     13  C   UNL     1       2.077   4.113  19.199  0.00  0.00    +0.000 C 
ATOM     14  O   UNL     1       1.271   4.150  18.268  0.00  0.00    +0.000 OA
BRANCH  13  15
ATOM     15  C   UNL     1       3.260   3.173  19.174  0.00  0.00    +0.000 C 
BRANCH  15  16
ATOM     16  C   UNL     1       3.884   3.131  17.783  0.00  0.00    +0.000 C 
BRANCH  16  17
ATOM     17  C   UNL     1       4.901   4.221  17.579  0.00  0.00    +0.000 A 
ATOM     18  C   UNL     1       5.808   4.570  18.590  0.00  0.00    +0.000 A 
ATOM     19  C   UNL     1       6.725   5.603  18.388  0.00  0.00    +0.000 A 
ATOM     20  C   UNL     1       6.745   6.294  17.177  0.00  0.00    +0.000 A 
ATOM     21  C   UNL     1       5.853   5.949  16.166  0.00  0.00    +0.000 A 
ATOM     22  C   UNL     1       4.933   4.921  16.367  0.00  0.00    +0.000 A 
ENDBRANCH  16  17
ENDBRANCH  15  16
ENDBRANCH  13  15
ENDBRANCH  12  13
ENDBRANCH   1  12
TORSDOF 12
ENDMDL
