MODEL 1
REMARK VINA RESULT:      -7.7      0.000      0.000
REMARK  Name = 
REMARK  8 active torsions:
REMARK  status: ('A' for Active; 'I' for Inactive)
REMARK    1  A    between atoms: N_1  and  S_2
REMARK    2  A    between atoms: S_2  and  N_5
REMARK    3  A    between atoms: N_5  and  C_6
REMARK    4  A    between atoms: C_6  and  C_7
REMARK    5  A    between atoms: C_7  and  C_8
REMARK    6  A    between atoms: C_11  and  C_12
REMARK    7  A    between atoms: C_12  and  C_14
REMARK    8  A    between atoms: C_19  and  C_20
REMARK                            x       y       z     vdW  Elec       q    Type
REMARK                         _______ _______ _______ _____ _____    ______ ____
ROOT
ATOM      1  C   UNL     1       3.599   6.917  17.587  0.00  0.00    +0.000 C 
ATOM      2  O   UNL     1       4.049   7.369  16.532  0.00  0.00    +0.000 OA
ENDROOT
BRANCH   1   3
ATOM      3  C   UNL     1       2.738   7.691  18.469  0.00  0.00    +0.000 A 
ATOM      4  N   UNL     1       2.419   7.347  19.699  0.00  0.00    +0.000 NA
ATOM      5  C   UNL     1       1.540   8.271  20.234  0.00  0.00    +0.000 A 
ATOM      6  C   UNL     1       0.961   8.204  21.511  0.00  0.00    +0.000 A 
ATOM      7  C   UNL     1       0.049   9.190  21.908  0.00  0.00    +0.000 A 
ATOM      8  C   UNL     1      -0.296  10.270  21.077  0.00  0.00    +0.000 A 
ATOM      9  C   UNL     1       0.303  10.340  19.803  0.00  0.00    +0.000 A 
ATOM     10  C   UNL     1       1.208   9.339  19.403  0.00  0.00    +0.000 A 
ATOM     11  S   UNL     1       2.071   9.178  17.922  0.00  0.00    +0.000 S 
BRANCH   8  12
ATOM     12  C   UNL     1      -1.264  11.296  21.533  0.00  0.00    +0.000 A 
ATOM     13  C   UNL     1      -1.605  11.423  22.894  0.00  0.00    +0.000 A 
ATOM     14  C   UNL     1      -2.550  12.356  23.330  0.00  0.00    +0.000 A 
ATOM     15  C   UNL     1      -3.167  13.200  22.414  0.00  0.00    +0.000 A 
ATOM     16  C   UNL     1      -2.833  13.116  21.066  0.00  0.00    +0.000 A 
ATOM     17  C   UNL     1      -1.896  12.172  20.632  0.00  0.00    +0.000 A 
ENDBRANCH   8  12
ENDBRANCH   1   3
BRANCH   1  21
ATOM     18  C   UNL     1       3.739   3.425  18.200  0.00  0.00    +0.000 A 
ATOM     19  N   UNL     1       4.719   3.812  18.985  0.00  0.00    +0.000 NA
ATOM     20  N   UNL     1       4.784   5.185  18.873  0.00  0.00    +0.000 NA
ATOM     21  C   UNL     1       3.838   5.553  18.027  0.00  0.00    +0.000 A 
ATOM     22  O   UNL     1       3.138   4.465  17.545  0.00  0.00    +0.000 OA
BRANCH  18  23
ATOM     23  C   UNL     1       3.201   2.057  17.984  0.00  0.00    +0.000 C 
BRANCH  23  24
ATOM     24  C   UNL     1       2.225   1.697  19.100  0.00  0.00    +0.000 C 
BRANCH  24  25
ATOM     25  N   UNL     1       1.715   2.918  19.791  0.00  0.00    +0.000 NA
ATOM     26  H   UNL     1       2.046   3.769  19.336  0.00  0.00    +0.000 HD
BRANCH  25  27
ATOM     27  S   UNL     1       2.211   2.991  21.394  0.00  0.00    +0.000 S 
ATOM     28  O   UNL     1       3.450   2.280  21.517  0.00  0.00    +0.000 OA
ATOM     29  O   UNL     1       1.076   2.786  22.251  0.00  0.00    +0.000 OA
BRANCH  27  30
ATOM     30  N   UNL     1       2.557   4.616  21.434  0.00  0.00    +0.000 NA
ATOM     31  H   UNL     1       1.675   5.133  21.413  0.00  0.00    +0.000 HD
ATOM     32  H   UNL     1       3.121   4.855  20.617  0.00  0.00    +0.000 HD
ENDBRANCH  27  30
ENDBRANCH  25  27
ENDBRANCH  24  25
ENDBRANCH  23  24
ENDBRANCH  18  23
ENDBRANCH   1  21
TORSDOF 8
ENDMDL
MODEL 2
REMARK VINA RESULT:      -7.6      0.599      1.148
REMARK  Name = 
REMARK  8 active torsions:
REMARK  status: ('A' for Active; 'I' for Inactive)
REMARK    1  A    between atoms: N_1  and  S_2
REMARK    2  A    between atoms: S_2  and  N_5
REMARK    3  A    between atoms: N_5  and  C_6
REMARK    4  A    between atoms: C_6  and  C_7
REMARK    5  A    between atoms: C_7  and  C_8
REMARK    6  A    between atoms: C_11  and  C_12
REMARK    7  A    between atoms: C_12  and  C_14
REMARK    8  A    between atoms: C_19  and  C_20
REMARK                            x       y       z     vdW  Elec       q    Type
REMARK                         _______ _______ _______ _____ _____    ______ ____
ROOT
ATOM      1  C   UNL     1       3.723   6.845  17.484  0.00  0.00    +0.000 C 
ATOM      2  O   UNL     1       4.310   7.356  16.528  0.00  0.00    +0.000 OA
ENDROOT
BRANCH   1   3
ATOM      3  C   UNL     1       2.853   7.607  18.368  0.00  0.00    +0.000 A 
ATOM      4  N   UNL     1       2.488   7.224  19.575  0.00  0.00    +0.000 NA
ATOM      5  C   UNL     1       1.616   8.149  20.118  0.00  0.00    +0.000 A 
ATOM      6  C   UNL     1       0.997   8.048  21.373  0.00  0.00    +0.000 A 
ATOM      7  C   UNL     1       0.096   9.041  21.780  0.00  0.00    +0.000 A 
ATOM      8  C   UNL     1      -0.197  10.159  20.982  0.00  0.00    +0.000 A 
ATOM      9  C   UNL     1       0.441  10.262  19.730  0.00  0.00    +0.000 A 
ATOM     10  C   UNL     1       1.335   9.255  19.319  0.00  0.00    +0.000 A 
ATOM     11  S   UNL     1       2.239   9.129  17.859  0.00  0.00    +0.000 S 
BRANCH   8  12
ATOM     12  C   UNL     1      -1.156  11.191  21.448  0.00  0.00    +0.000 A 
ATOM     13  C   UNL     1      -1.815  12.038  20.536  0.00  0.00    +0.000 A 
ATOM     14  C   UNL     1      -2.685  13.044  20.966  0.00  0.00    +0.000 A 
ATOM     15  C   UNL     1      -2.931  13.216  22.323  0.00  0.00    +0.000 A 
ATOM     16  C   UNL     1      -2.314  12.379  23.247  0.00  0.00    +0.000 A 
ATOM     17  C   UNL     1      -1.433  11.382  22.814  0.00  0.00    +0.000 A 
ENDBRANCH   8  12
ENDBRANCH   1   3
BRANCH   1  21
ATOM     18  C   UNL     1       3.349   3.338  17.869  0.00  0.00    +0.000 A 
ATOM     19  N   UNL     1       4.525   3.485  18.437  0.00  0.00    +0.000 NA
ATOM     20  N   UNL     1       4.815   4.832  18.384  0.00  0.00    +0.000 NA
ATOM     21  C   UNL     1       3.796   5.427  17.788  0.00  0.00    +0.000 A 
ATOM     22  O   UNL     1       2.825   4.518  17.418  0.00  0.00    +0.000 OA
BRANCH  18  23
ATOM     23  C   UNL     1       2.539   2.104  17.706  0.00  0.00    +0.000 C 
BRANCH  23  24
ATOM     24  C   UNL     1       1.796   1.792  19.003  0.00  0.00    +0.000 C 
BRANCH  24  25
ATOM     25  N   UNL     1       2.548   2.288  20.193  0.00  0.00    +0.000 NA
ATOM     26  H   UNL     1       2.777   1.526  20.832  0.00  0.00    +0.000 HD
BRANCH  25  27
ATOM     27  S   UNL     1       1.667   3.417  21.071  0.00  0.00    +0.000 S 
ATOM     28  O   UNL     1       1.496   2.920  22.405  0.00  0.00    +0.000 OA
ATOM     29  O   UNL     1       0.595   3.920  20.255  0.00  0.00    +0.000 OA
BRANCH  27  30
ATOM     30  N   UNL     1       2.831   4.602  21.119  0.00  0.00    +0.000 NA
ATOM     31  H   UNL     1       2.567   5.340  20.463  0.00  0.00    +0.000 HD
ATOM     32  H   UNL     1       3.728   4.197  20.845  0.00  0.00    +0.000 HD
ENDBRANCH  27  30
ENDBRANCH  25  27
ENDBRANCH  24  25
ENDBRANCH  23  24
ENDBRANCH  18  23
ENDBRANCH   1  21
TORSDOF 8
ENDMDL
MODEL 3
REMARK VINA RESULT:      -7.5      4.615      9.178
REMARK  Name = 
REMARK  8 active torsions:
REMARK  status: ('A' for Active; 'I' for Inactive)
REMARK    1  A    between atoms: N_1  and  S_2
REMARK    2  A    between atoms: S_2  and  N_5
REMARK    3  A    between atoms: N_5  and  C_6
REMARK    4  A    between atoms: C_6  and  C_7
REMARK    5  A    between atoms: C_7  and  C_8
REMARK    6  A    between atoms: C_11  and  C_12
REMARK    7  A    between atoms: C_12  and  C_14
REMARK    8  A    between atoms: C_19  and  C_20
REMARK                            x       y       z     vdW  Elec       q    Type
REMARK                         _______ _______ _______ _____ _____    ______ ____
ROOT
ATOM      1  C   UNL     1      -0.621  11.275  22.120  0.00  0.00    +0.000 C 
ATOM      2  O   UNL     1      -0.540  11.174  23.346  0.00  0.00    +0.000 OA
ENDROOT
BRANCH   1   3
ATOM      3  C   UNL     1       0.152  10.441  21.211  0.00  0.00    +0.000 A 
ATOM      4  N   UNL     1       0.402  10.735  19.951  0.00  0.00    +0.000 NA
ATOM      5  C   UNL     1       1.111   9.706  19.360  0.00  0.00    +0.000 A 
ATOM      6  C   UNL     1       1.515   9.658  18.017  0.00  0.00    +0.000 A 
ATOM      7  C   UNL     1       2.191   8.529  17.539  0.00  0.00    +0.000 A 
ATOM      8  C   UNL     1       2.505   7.437  18.366  0.00  0.00    +0.000 A 
ATOM      9  C   UNL     1       2.110   7.499  19.718  0.00  0.00    +0.000 A 
ATOM     10  C   UNL     1       1.418   8.630  20.191  0.00  0.00    +0.000 A 
ATOM     11  S   UNL     1       0.825   8.962  21.772  0.00  0.00    +0.000 S 
BRANCH   8  12
ATOM     12  C   UNL     1       3.224   6.259  17.824  0.00  0.00    +0.000 A 
ATOM     13  C   UNL     1       2.675   4.965  17.915  0.00  0.00    +0.000 A 
ATOM     14  C   UNL     1       3.364   3.841  17.449  0.00  0.00    +0.000 A 
ATOM     15  C   UNL     1       4.615   3.988  16.861  0.00  0.00    +0.000 A 
ATOM     16  C   UNL     1       5.172   5.256  16.733  0.00  0.00    +0.000 A 
ATOM     17  C   UNL     1       4.486   6.377  17.214  0.00  0.00    +0.000 A 
ENDBRANCH   8  12
ENDBRANCH   1   3
BRANCH   1  21
ATOM     18  C   UNL     1      -3.239  12.992  20.450  0.00  0.00    +0.000 A 
ATOM     19  N   UNL     1      -2.476  14.019  20.750  0.00  0.00    +0.000 NA
ATOM     20  N   UNL     1      -1.375  13.505  21.404  0.00  0.00    +0.000 NA
ATOM     21  C   UNL     1      -1.533  12.195  21.462  0.00  0.00    +0.000 A 
ATOM     22  O   UNL     1      -2.721  11.801  20.879  0.00  0.00    +0.000 OA
BRANCH  18  23
ATOM     23  C   UNL     1      -4.518  12.968  19.695  0.00  0.00    +0.000 C 
BRANCH  23  24
ATOM     24  C   UNL     1      -4.553  11.758  18.767  0.00  0.00    +0.000 C 
BRANCH  24  25
ATOM     25  N   UNL     1      -3.963  12.077  17.434  0.00  0.00    +0.000 NA
ATOM     26  H   UNL     1      -4.635  11.922  16.681  0.00  0.00    +0.000 HD
BRANCH  25  27
ATOM     27  S   UNL     1      -2.618  11.130  17.095  0.00  0.00    +0.000 S 
ATOM     28  O   UNL     1      -2.556  10.921  15.678  0.00  0.00    +0.000 OA
ATOM     29  O   UNL     1      -2.523  10.077  18.070  0.00  0.00    +0.000 OA
BRANCH  27  30
ATOM     30  N   UNL     1      -1.461  12.256  17.490  0.00  0.00    +0.000 NA
ATOM     31  H   UNL     1      -1.362  12.272  18.508  0.00  0.00    +0.000 HD
ATOM     32  H   UNL     1      -1.762  13.171  17.153  0.00  0.00    +0.000 HD
ENDBRANCH  27  30
ENDBRANCH  25  27
ENDBRANCH  24  25
ENDBRANCH  23  24
ENDBRANCH  18  23
ENDBRANCH   1  21
TORSDOF 8
ENDMDL
MODEL 4
REMARK VINA RESULT:      -7.3      1.372      1.941
REMARK  Name = 
REMARK  8 active torsions:
REMARK  status: ('A' for Active; 'I' for Inactive)
REMARK    1  A    between atoms: N_1  and  S_2
REMARK    2  A    between atoms: S_2  and  N_5
REMARK    3  A    between atoms: N_5  and  C_6
REMARK    4  A    between atoms: C_6  and  C_7
REMARK    5  A    between atoms: C_7  and  C_8
REMARK    6  A    between atoms: C_11  and  C_12
REMARK    7  A    between atoms: C_12  and  C_14
REMARK    8  A    between atoms: C_19  and  C_20
REMARK                            x       y       z     vdW  Elec       q    Type
REMARK                         _______ _______ _______ _____ _____    ______ ____
ROOT
ATOM      1  C   UNL     1       2.279   8.423  18.112  0.00  0.00    +0.000 C 
ATOM      2  O   UNL     1       2.584   9.002  17.067  0.00  0.00    +0.000 OA
ENDROOT
BRANCH   1   3
ATOM      3  C   UNL     1       1.558   9.082  19.192  0.00  0.00    +0.000 A 
ATOM      4  N   UNL     1       1.266   8.525  20.349  0.00  0.00    +0.000 NA
ATOM      5  C   UNL     1       0.528   9.403  21.121  0.00  0.00    +0.000 A 
ATOM      6  C   UNL     1       0.011   9.133  22.397  0.00  0.00    +0.000 A 
ATOM      7  C   UNL     1      -0.761  10.103  23.049  0.00  0.00    +0.000 A 
ATOM      8  C   UNL     1      -1.022  11.360  22.479  0.00  0.00    +0.000 A 
ATOM      9  C   UNL     1      -0.485  11.631  21.204  0.00  0.00    +0.000 A 
ATOM     10  C   UNL     1       0.278  10.648  20.546  0.00  0.00    +0.000 A 
ATOM     11  S   UNL     1       1.039  10.710  19.003  0.00  0.00    +0.000 S 
BRANCH   8  12
ATOM     12  C   UNL     1      -1.842  12.363  23.201  0.00  0.00    +0.000 A 
ATOM     13  C   UNL     1      -1.337  13.646  23.491  0.00  0.00    +0.000 A 
ATOM     14  C   UNL     1      -2.083  14.583  24.210  0.00  0.00    +0.000 A 
ATOM     15  C   UNL     1      -3.365  14.266  24.644  0.00  0.00    +0.000 A 
ATOM     16  C   UNL     1      -3.902  13.016  24.351  0.00  0.00    +0.000 A 
ATOM     17  C   UNL     1      -3.146  12.075  23.642  0.00  0.00    +0.000 A 
ENDBRANCH   8  12
ENDBRANCH   1   3
BRANCH   1  21
ATOM     18  C   UNL     1       2.499   4.884  18.225  0.00  0.00    +0.000 A 
ATOM     19  N   UNL     1       3.507   5.180  19.015  0.00  0.00    +0.000 NA
ATOM     20  N   UNL     1       3.546   6.556  19.093  0.00  0.00    +0.000 NA
ATOM     21  C   UNL     1       2.558   7.017  18.347  0.00  0.00    +0.000 A 
ATOM     22  O   UNL     1       1.855   5.992  17.748  0.00  0.00    +0.000 OA
BRANCH  18  23
ATOM     23  C   UNL     1       1.974   3.549  17.842  0.00  0.00    +0.000 C 
BRANCH  23  24
ATOM     24  C   UNL     1       2.337   2.519  18.909  0.00  0.00    +0.000 C 
BRANCH  24  25
ATOM     25  N   UNL     1       1.352   2.527  20.030  0.00  0.00    +0.000 NA
ATOM     26  H   UNL     1       0.654   3.262  19.907  0.00  0.00    +0.000 HD
BRANCH  25  27
ATOM     27  S   UNL     1       2.089   2.792  21.516  0.00  0.00    +0.000 S 
ATOM     28  O   UNL     1       3.444   2.332  21.438  0.00  0.00    +0.000 OA
ATOM     29  O   UNL     1       1.175   2.434  22.567  0.00  0.00    +0.000 OA
BRANCH  27  30
ATOM     30  N   UNL     1       2.114   4.452  21.447  0.00  0.00    +0.000 NA
ATOM     31  H   UNL     1       3.013   4.744  21.058  0.00  0.00    +0.000 HD
ATOM     32  H   UNL     1       2.003   4.824  22.391  0.00  0.00    +0.000 HD
ENDBRANCH  27  30
ENDBRANCH  25  27
ENDBRANCH  24  25
ENDBRANCH  23  24
ENDBRANCH  18  23
ENDBRANCH   1  21
TORSDOF 8
ENDMDL
MODEL 5
REMARK VINA RESULT:      -7.3      2.413      3.572
REMARK  Name = 
REMARK  8 active torsions:
REMARK  status: ('A' for Active; 'I' for Inactive)
REMARK    1  A    between atoms: N_1  and  S_2
REMARK    2  A    between atoms: S_2  and  N_5
REMARK    3  A    between atoms: N_5  and  C_6
REMARK    4  A    between atoms: C_6  and  C_7
REMARK    5  A    between atoms: C_7  and  C_8
REMARK    6  A    between atoms: C_11  and  C_12
REMARK    7  A    between atoms: C_12  and  C_14
REMARK    8  A    between atoms: C_19  and  C_20
REMARK                            x       y       z     vdW  Elec       q    Type
REMARK                         _______ _______ _______ _____ _____    ______ ____
ROOT
ATOM      1  C   UNL     1       2.220   8.241  18.318  0.00  0.00    +0.000 C 
ATOM      2  O   UNL     1       2.454   8.738  17.214  0.00  0.00    +0.000 OA
ENDROOT
BRANCH   1   3
ATOM      3  C   UNL     1       1.507   8.957  19.365  0.00  0.00    +0.000 A 
ATOM      4  N   UNL     1       1.242   8.471  20.560  0.00  0.00    +0.000 NA
ATOM      5  C   UNL     1       0.503   9.386  21.287  0.00  0.00    +0.000 A 
ATOM      6  C   UNL     1       0.011   9.191  22.587  0.00  0.00    +0.000 A 
ATOM      7  C   UNL     1      -0.765  10.189  23.189  0.00  0.00    +0.000 A 
ATOM      8  C   UNL     1      -1.054  11.404  22.544  0.00  0.00    +0.000 A 
ATOM      9  C   UNL     1      -0.543  11.600  21.245  0.00  0.00    +0.000 A 
ATOM     10  C   UNL     1       0.224  10.588  20.639  0.00  0.00    +0.000 A 
ATOM     11  S   UNL     1       0.960  10.562  19.082  0.00  0.00    +0.000 S 
BRANCH   8  12
ATOM     12  C   UNL     1      -1.878  12.439  23.215  0.00  0.00    +0.000 A 
ATOM     13  C   UNL     1      -3.203  12.173  23.610  0.00  0.00    +0.000 A 
ATOM     14  C   UNL     1      -4.005  13.154  24.201  0.00  0.00    +0.000 A 
ATOM     15  C   UNL     1      -3.491  14.425  24.429  0.00  0.00    +0.000 A 
ATOM     16  C   UNL     1      -2.177  14.712  24.073  0.00  0.00    +0.000 A 
ATOM     17  C   UNL     1      -1.383  13.731  23.469  0.00  0.00    +0.000 A 
ENDBRANCH   8  12
ENDBRANCH   1   3
BRANCH   1  21
ATOM     18  C   UNL     1       3.087   4.805  18.508  0.00  0.00    +0.000 A 
ATOM     19  N   UNL     1       3.255   5.132  19.770  0.00  0.00    +0.000 NA
ATOM     20  N   UNL     1       2.931   6.469  19.870  0.00  0.00    +0.000 NA
ATOM     21  C   UNL     1       2.584   6.878  18.663  0.00  0.00    +0.000 A 
ATOM     22  O   UNL     1       2.677   5.858  17.736  0.00  0.00    +0.000 OA
BRANCH  18  23
ATOM     23  C   UNL     1       3.241   3.479  17.858  0.00  0.00    +0.000 C 
BRANCH  23  24
ATOM     24  C   UNL     1       4.519   3.452  17.025  0.00  0.00    +0.000 C 
BRANCH  24  25
ATOM     25  N   UNL     1       5.425   4.583  17.381  0.00  0.00    +0.000 NA
ATOM     26  H   UNL     1       4.937   5.479  17.340  0.00  0.00    +0.000 HD
BRANCH  25  27
ATOM     27  S   UNL     1       6.740   4.691  16.341  0.00  0.00    +0.000 S 
ATOM     28  O   UNL     1       7.925   4.350  17.072  0.00  0.00    +0.000 OA
ATOM     29  O   UNL     1       6.605   5.869  15.529  0.00  0.00    +0.000 OA
BRANCH  27  30
ATOM     30  N   UNL     1       6.353   3.395  15.376  0.00  0.00    +0.000 NA
ATOM     31  H   UNL     1       5.896   3.747  14.532  0.00  0.00    +0.000 HD
ATOM     32  H   UNL     1       5.717   2.780  15.886  0.00  0.00    +0.000 HD
ENDBRANCH  27  30
ENDBRANCH  25  27
ENDBRANCH  24  25
ENDBRANCH  23  24
ENDBRANCH  18  23
ENDBRANCH   1  21
TORSDOF 8
ENDMDL
MODEL 6
REMARK VINA RESULT:      -7.2      1.196      1.923
REMARK  Name = 
REMARK  8 active torsions:
REMARK  status: ('A' for Active; 'I' for Inactive)
REMARK    1  A    between atoms: N_1  and  S_2
REMARK    2  A    between atoms: S_2  and  N_5
REMARK    3  A    between atoms: N_5  and  C_6
REMARK    4  A    between atoms: C_6  and  C_7
REMARK    5  A    between atoms: C_7  and  C_8
REMARK    6  A    between atoms: C_11  and  C_12
REMARK    7  A    between atoms: C_12  and  C_14
REMARK    8  A    between atoms: C_19  and  C_20
REMARK                            x       y       z     vdW  Elec       q    Type
REMARK                         _______ _______ _______ _____ _____    ______ ____
ROOT
ATOM      1  C   UNL     1       4.370   6.564  17.084  0.00  0.00    +0.000 C 
ATOM      2  O   UNL     1       5.039   6.880  16.097  0.00  0.00    +0.000 OA
ENDROOT
BRANCH   1   3
ATOM      3  C   UNL     1       3.397   7.459  17.693  0.00  0.00    +0.000 A 
ATOM      4  N   UNL     1       3.059   8.638  17.212  0.00  0.00    +0.000 NA
ATOM      5  C   UNL     1       2.157   9.251  18.061  0.00  0.00    +0.000 A 
ATOM      6  C   UNL     1       1.610  10.531  17.886  0.00  0.00    +0.000 A 
ATOM      7  C   UNL     1       0.738  11.048  18.853  0.00  0.00    +0.000 A 
ATOM      8  C   UNL     1       0.366  10.318  19.994  0.00  0.00    +0.000 A 
ATOM      9  C   UNL     1       0.907   9.026  20.155  0.00  0.00    +0.000 A 
ATOM     10  C   UNL     1       1.794   8.516  19.188  0.00  0.00    +0.000 A 
ATOM     11  S   UNL     1       2.592   6.991  19.137  0.00  0.00    +0.000 S 
BRANCH   8  12
ATOM     12  C   UNL     1      -0.561  10.898  20.996  0.00  0.00    +0.000 A 
ATOM     13  C   UNL     1      -1.470  11.915  20.644  0.00  0.00    +0.000 A 
ATOM     14  C   UNL     1      -2.317  12.501  21.589  0.00  0.00    +0.000 A 
ATOM     15  C   UNL     1      -2.288  12.069  22.910  0.00  0.00    +0.000 A 
ATOM     16  C   UNL     1      -1.419  11.048  23.283  0.00  0.00    +0.000 A 
ATOM     17  C   UNL     1      -0.563  10.474  22.337  0.00  0.00    +0.000 A 
ENDBRANCH   8  12
ENDBRANCH   1   3
BRANCH   1  21
ATOM     18  C   UNL     1       4.125   3.181  18.126  0.00  0.00    +0.000 A 
ATOM     19  N   UNL     1       5.095   3.573  18.922  0.00  0.00    +0.000 NA
ATOM     20  N   UNL     1       5.304   4.909  18.648  0.00  0.00    +0.000 NA
ATOM     21  C   UNL     1       4.447   5.251  17.701  0.00  0.00    +0.000 A 
ATOM     22  O   UNL     1       3.669   4.180  17.310  0.00  0.00    +0.000 OA
BRANCH  18  23
ATOM     23  C   UNL     1       3.467   1.853  18.042  0.00  0.00    +0.000 C 
BRANCH  23  24
ATOM     24  C   UNL     1       2.421   1.718  19.146  0.00  0.00    +0.000 C 
BRANCH  24  25
ATOM     25  N   UNL     1       2.866   2.392  20.401  0.00  0.00    +0.000 NA
ATOM     26  H   UNL     1       3.218   1.717  21.082  0.00  0.00    +0.000 HD
BRANCH  25  27
ATOM     27  S   UNL     1       1.616   3.233  21.144  0.00  0.00    +0.000 S 
ATOM     28  O   UNL     1       1.247   2.534  22.340  0.00  0.00    +0.000 OA
ATOM     29  O   UNL     1       0.679   3.669  20.144  0.00  0.00    +0.000 OA
BRANCH  27  30
ATOM     30  N   UNL     1       2.497   4.569  21.591  0.00  0.00    +0.000 NA
ATOM     31  H   UNL     1       3.020   4.341  22.440  0.00  0.00    +0.000 HD
ATOM     32  H   UNL     1       1.856   5.343  21.773  0.00  0.00    +0.000 HD
ENDBRANCH  27  30
ENDBRANCH  25  27
ENDBRANCH  24  25
ENDBRANCH  23  24
ENDBRANCH  18  23
ENDBRANCH   1  21
TORSDOF 8
ENDMDL
MODEL 7
REMARK VINA RESULT:      -7.2      3.517      5.094
REMARK  Name = 
REMARK  8 active torsions:
REMARK  status: ('A' for Active; 'I' for Inactive)
REMARK    1  A    between atoms: N_1  and  S_2
REMARK    2  A    between atoms: S_2  and  N_5
REMARK    3  A    between atoms: N_5  and  C_6
REMARK    4  A    between atoms: C_6  and  C_7
REMARK    5  A    between atoms: C_7  and  C_8
REMARK    6  A    between atoms: C_11  and  C_12
REMARK    7  A    between atoms: C_12  and  C_14
REMARK    8  A    between atoms: C_19  and  C_20
REMARK                            x       y       z     vdW  Elec       q    Type
REMARK                         _______ _______ _______ _____ _____    ______ ____
ROOT
ATOM      1  C   UNL     1       3.453   4.382  18.997  0.00  0.00    +0.000 C 
ATOM      2  O   UNL     1       2.869   3.340  19.303  0.00  0.00    +0.000 OA
ENDROOT
BRANCH   1   3
ATOM      3  C   UNL     1       2.883   5.700  19.236  0.00  0.00    +0.000 A 
ATOM      4  N   UNL     1       2.251   6.057  20.335  0.00  0.00    +0.000 NA
ATOM      5  C   UNL     1       1.788   7.353  20.212  0.00  0.00    +0.000 A 
ATOM      6  C   UNL     1       1.039   8.048  21.173  0.00  0.00    +0.000 A 
ATOM      7  C   UNL     1       0.594   9.347  20.897  0.00  0.00    +0.000 A 
ATOM      8  C   UNL     1       0.893   9.999  19.689  0.00  0.00    +0.000 A 
ATOM      9  C   UNL     1       1.660   9.302  18.734  0.00  0.00    +0.000 A 
ATOM     10  C   UNL     1       2.092   7.991  19.011  0.00  0.00    +0.000 A 
ATOM     11  S   UNL     1       3.028   6.923  18.037  0.00  0.00    +0.000 S 
BRANCH   8  12
ATOM     12  C   UNL     1       0.406  11.377  19.432  0.00  0.00    +0.000 A 
ATOM     13  C   UNL     1       1.254  12.359  18.886  0.00  0.00    +0.000 A 
ATOM     14  C   UNL     1       0.821  13.672  18.682  0.00  0.00    +0.000 A 
ATOM     15  C   UNL     1      -0.483  14.031  19.004  0.00  0.00    +0.000 A 
ATOM     16  C   UNL     1      -1.353  13.077  19.521  0.00  0.00    +0.000 A 
ATOM     17  C   UNL     1      -0.911  11.767  19.737  0.00  0.00    +0.000 A 
ENDBRANCH   8  12
ENDBRANCH   1   3
BRANCH   1  21
ATOM     18  C   UNL     1       6.395   4.552  17.021  0.00  0.00    +0.000 A 
ATOM     19  N   UNL     1       6.948   4.445  18.208  0.00  0.00    +0.000 NA
ATOM     20  N   UNL     1       5.911   4.346  19.112  0.00  0.00    +0.000 NA
ATOM     21  C   UNL     1       4.786   4.399  18.420  0.00  0.00    +0.000 A 
ATOM     22  O   UNL     1       5.028   4.547  17.069  0.00  0.00    +0.000 OA
BRANCH  18  23
ATOM     23  C   UNL     1       7.049   4.632  15.690  0.00  0.00    +0.000 C 
BRANCH  23  24
ATOM     24  C   UNL     1       6.015   4.419  14.588  0.00  0.00    +0.000 C 
BRANCH  24  25
ATOM     25  N   UNL     1       6.294   3.173  13.815  0.00  0.00    +0.000 NA
ATOM     26  H   UNL     1       7.263   2.871  13.931  0.00  0.00    +0.000 HD
BRANCH  25  27
ATOM     27  S   UNL     1       6.038   3.380  12.168  0.00  0.00    +0.000 S 
ATOM     28  O   UNL     1       7.106   4.177  11.640  0.00  0.00    +0.000 OA
ATOM     29  O   UNL     1       4.644   3.646  11.936  0.00  0.00    +0.000 OA
BRANCH  27  30
ATOM     30  N   UNL     1       6.309   1.805  11.712  0.00  0.00    +0.000 NA
ATOM     31  H   UNL     1       7.098   1.445  12.254  0.00  0.00    +0.000 HD
ATOM     32  H   UNL     1       6.531   1.783  10.715  0.00  0.00    +0.000 HD
ENDBRANCH  27  30
ENDBRANCH  25  27
ENDBRANCH  24  25
ENDBRANCH  23  24
ENDBRANCH  18  23
ENDBRANCH   1  21
TORSDOF 8
ENDMDL
MODEL 8
REMARK VINA RESULT:      -7.1      3.635      5.384
REMARK  Name = 
REMARK  8 active torsions:
REMARK  status: ('A' for Active; 'I' for Inactive)
REMARK    1  A    between atoms: N_1  and  S_2
REMARK    2  A    between atoms: S_2  and  N_5
REMARK    3  A    between atoms: N_5  and  C_6
REMARK    4  A    between atoms: C_6  and  C_7
REMARK    5  A    between atoms: C_7  and  C_8
REMARK    6  A    between atoms: C_11  and  C_12
REMARK    7  A    between atoms: C_12  and  C_14
REMARK    8  A    between atoms: C_19  and  C_20
REMARK                            x       y       z     vdW  Elec       q    Type
REMARK                         _______ _______ _______ _____ _____    ______ ____
ROOT
ATOM      1  C   UNL     1       4.304   3.962  18.265  0.00  0.00    +0.000 C 
ATOM      2  O   UNL     1       3.995   2.803  18.554  0.00  0.00    +0.000 OA
ENDROOT
BRANCH   1   3
ATOM      3  C   UNL     1       3.505   5.110  18.667  0.00  0.00    +0.000 A 
ATOM      4  N   UNL     1       3.304   6.181  17.927  0.00  0.00    +0.000 NA
ATOM      5  C   UNL     1       2.550   7.103  18.629  0.00  0.00    +0.000 A 
ATOM      6  C   UNL     1       2.176   8.374  18.167  0.00  0.00    +0.000 A 
ATOM      7  C   UNL     1       1.447   9.227  19.005  0.00  0.00    +0.000 A 
ATOM      8  C   UNL     1       1.051   8.847  20.299  0.00  0.00    +0.000 A 
ATOM      9  C   UNL     1       1.416   7.563  20.750  0.00  0.00    +0.000 A 
ATOM     10  C   UNL     1       2.160   6.715  19.910  0.00  0.00    +0.000 A 
ATOM     11  S   UNL     1       2.734   5.118  20.204  0.00  0.00    +0.000 S 
BRANCH   8  12
ATOM     12  C   UNL     1       0.277   9.778  21.157  0.00  0.00    +0.000 A 
ATOM     13  C   UNL     1       0.004  11.095  20.742  0.00  0.00    +0.000 A 
ATOM     14  C   UNL     1      -0.684  11.995  21.561  0.00  0.00    +0.000 A 
ATOM     15  C   UNL     1      -1.133  11.591  22.813  0.00  0.00    +0.000 A 
ATOM     16  C   UNL     1      -0.901  10.287  23.241  0.00  0.00    +0.000 A 
ATOM     17  C   UNL     1      -0.199   9.394  22.424  0.00  0.00    +0.000 A 
ENDBRANCH   8  12
ENDBRANCH   1   3
BRANCH   1  21
ATOM     18  C   UNL     1       6.862   4.937  16.007  0.00  0.00    +0.000 A 
ATOM     19  N   UNL     1       7.593   4.754  17.084  0.00  0.00    +0.000 NA
ATOM     20  N   UNL     1       6.727   4.342  18.075  0.00  0.00    +0.000 NA
ATOM     21  C   UNL     1       5.518   4.298  17.543  0.00  0.00    +0.000 A 
ATOM     22  O   UNL     1       5.534   4.683  16.218  0.00  0.00    +0.000 OA
BRANCH  18  23
ATOM     23  C   UNL     1       7.292   5.326  14.641  0.00  0.00    +0.000 C 
BRANCH  23  24
ATOM     24  C   UNL     1       7.393   4.088  13.753  0.00  0.00    +0.000 C 
BRANCH  24  25
ATOM     25  N   UNL     1       6.054   3.470  13.528  0.00  0.00    +0.000 NA
ATOM     26  H   UNL     1       5.999   2.539  13.943  0.00  0.00    +0.000 HD
BRANCH  25  27
ATOM     27  S   UNL     1       5.703   3.300  11.894  0.00  0.00    +0.000 S 
ATOM     28  O   UNL     1       6.688   4.020  11.142  0.00  0.00    +0.000 OA
ATOM     29  O   UNL     1       4.285   3.432  11.699  0.00  0.00    +0.000 OA
BRANCH  27  30
ATOM     30  N   UNL     1       6.056   1.681  11.769  0.00  0.00    +0.000 NA
ATOM     31  H   UNL     1       6.365   1.492  10.813  0.00  0.00    +0.000 HD
ATOM     32  H   UNL     1       5.215   1.142  11.979  0.00  0.00    +0.000 HD
ENDBRANCH  27  30
ENDBRANCH  25  27
ENDBRANCH  24  25
ENDBRANCH  23  24
ENDBRANCH  18  23
ENDBRANCH   1  21
TORSDOF 8
ENDMDL
MODEL 9
REMARK VINA RESULT:      -7.1      2.795      4.246
REMARK  Name = 
REMARK  8 active torsions:
REMARK  status: ('A' for Active; 'I' for Inactive)
REMARK    1  A    between atoms: N_1  and  S_2
REMARK    2  A    between atoms: S_2  and  N_5
REMARK    3  A    between atoms: N_5  and  C_6
REMARK    4  A    between atoms: C_6  and  C_7
REMARK    5  A    between atoms: C_7  and  C_8
REMARK    6  A    between atoms: C_11  and  C_12
REMARK    7  A    between atoms: C_12  and  C_14
REMARK    8  A    between atoms: C_19  and  C_20
REMARK                            x       y       z     vdW  Elec       q    Type
REMARK                         _______ _______ _______ _____ _____    ______ ____
ROOT
ATOM      1  C   UNL     1       2.501   5.699  18.494  0.00  0.00    +0.000 C 
ATOM      2  O   UNL     1       1.717   4.922  17.944  0.00  0.00    +0.000 OA
ENDROOT
BRANCH   1   3
ATOM      3  C   UNL     1       2.111   7.036  18.919  0.00  0.00    +0.000 A 
ATOM      4  N   UNL     1       1.786   7.368  20.151  0.00  0.00    +0.000 NA
ATOM      5  C   UNL     1       1.413   8.698  20.197  0.00  0.00    +0.000 A 
ATOM      6  C   UNL     1       0.969   9.383  21.339  0.00  0.00    +0.000 A 
ATOM      7  C   UNL     1       0.578  10.723  21.232  0.00  0.00    +0.000 A 
ATOM      8  C   UNL     1       0.636  11.426  20.016  0.00  0.00    +0.000 A 
ATOM      9  C   UNL     1       1.099  10.737  18.877  0.00  0.00    +0.000 A 
ATOM     10  C   UNL     1       1.477   9.385  18.987  0.00  0.00    +0.000 A 
ATOM     11  S   UNL     1       2.068   8.317  17.773  0.00  0.00    +0.000 S 
BRANCH   8  12
ATOM     12  C   UNL     1       0.216  12.847  19.942  0.00  0.00    +0.000 A 
ATOM     13  C   UNL     1      -0.869  13.326  20.701  0.00  0.00    +0.000 A 
ATOM     14  C   UNL     1      -1.303  14.651  20.605  0.00  0.00    +0.000 A 
ATOM     15  C   UNL     1      -0.648  15.537  19.758  0.00  0.00    +0.000 A 
ATOM     16  C   UNL     1       0.444  15.100  19.015  0.00  0.00    +0.000 A 
ATOM     17  C   UNL     1       0.867  13.769  19.103  0.00  0.00    +0.000 A 
ENDBRANCH   8  12
ENDBRANCH   1   3
BRANCH   1  21
ATOM     18  C   UNL     1       6.006   5.293  18.864  0.00  0.00    +0.000 A 
ATOM     19  N   UNL     1       5.602   4.479  19.813  0.00  0.00    +0.000 NA
ATOM     20  N   UNL     1       4.223   4.509  19.788  0.00  0.00    +0.000 NA
ATOM     21  C   UNL     1       3.869   5.339  18.822  0.00  0.00    +0.000 A 
ATOM     22  O   UNL     1       4.970   5.890  18.198  0.00  0.00    +0.000 OA
BRANCH  18  23
ATOM     23  C   UNL     1       7.391   5.594  18.420  0.00  0.00    +0.000 C 
BRANCH  23  24
ATOM     24  C   UNL     1       7.816   4.610  17.334  0.00  0.00    +0.000 C 
BRANCH  24  25
ATOM     25  N   UNL     1       6.642   4.119  16.554  0.00  0.00    +0.000 NA
ATOM     26  H   UNL     1       6.652   3.102  16.468  0.00  0.00    +0.000 HD
BRANCH  25  27
ATOM     27  S   UNL     1       6.612   4.745  14.996  0.00  0.00    +0.000 S 
ATOM     28  O   UNL     1       6.012   3.773  14.129  0.00  0.00    +0.000 OA
ATOM     29  O   UNL     1       7.861   5.404  14.726  0.00  0.00    +0.000 OA
BRANCH  27  30
ATOM     30  N   UNL     1       5.488   5.939  15.270  0.00  0.00    +0.000 NA
ATOM     31  H   UNL     1       5.597   6.269  16.231  0.00  0.00    +0.000 HD
ATOM     32  H   UNL     1       4.554   5.551  15.136  0.00  0.00    +0.000 HD
ENDBRANCH  27  30
ENDBRANCH  25  27
ENDBRANCH  24  25
ENDBRANCH  23  24
ENDBRANCH  18  23
ENDBRANCH   1  21
TORSDOF 8
ENDMDL
