MODEL 1
REMARK VINA RESULT:      -8.4      0.000      0.000
REMARK  Name = 
REMARK  4 active torsions:
REMARK  status: ('A' for Active; 'I' for Inactive)
REMARK    1  A    between atoms: C_1  and  C_2
REMARK    2  A    between atoms: C_4  and  N_5
REMARK    3  A    between atoms: N_5  and  C_6
REMARK    4  A    between atoms: C_22  and  C_23
REMARK                            x       y       z     vdW  Elec       q    Type
REMARK                         _______ _______ _______ _____ _____    ______ ____
ROOT
ATOM      1  C   UNL     1       7.417   7.526  17.305  0.00  0.00    +0.000 C 
ATOM      2  C   UNL     1       6.210   6.664  17.576  0.00  0.00    +0.000 A 
ATOM      3  C   UNL     1       4.920   7.339  17.547  0.00  0.00    +0.000 A 
ATOM      4  C   UNL     1       3.748   6.690  17.747  0.00  0.00    +0.000 A 
ATOM      5  N   UNL     1       3.836   5.284  18.013  0.00  0.00    +0.000 N 
ATOM      6  C   UNL     1       5.077   4.610  18.068  0.00  0.00    +0.000 A 
ATOM      7  N   UNL     1       4.937   3.333  18.342  0.00  0.00    +0.000 NA
ATOM      8  C   UNL     1       3.599   3.130  18.486  0.00  0.00    +0.000 A 
ATOM      9  C   UNL     1       2.947   1.920  18.784  0.00  0.00    +0.000 A 
ATOM     10  C   UNL     1       1.558   1.904  18.896  0.00  0.00    +0.000 A 
ATOM     11  C   UNL     1       0.835   3.078  18.716  0.00  0.00    +0.000 A 
ATOM     12  C   UNL     1       1.469   4.299  18.416  0.00  0.00    +0.000 A 
ATOM     13  C   UNL     1       2.871   4.309  18.299  0.00  0.00    +0.000 A 
ATOM     14  C   UNL     1       6.284   5.339  17.829  0.00  0.00    +0.000 A 
ENDROOT
BRANCH   4  15
ATOM     15  N   UNL     1       2.527   7.366  17.718  0.00  0.00    +0.000 N 
ATOM     16  H   UNL     1       1.901   7.182  16.938  0.00  0.00    +0.000 HD
BRANCH  15  17
ATOM     17  C   UNL     1       1.983   8.159  18.759  0.00  0.00    +0.000 A 
ATOM     18  C   UNL     1       1.917   7.652  20.069  0.00  0.00    +0.000 A 
ATOM     19  C   UNL     1       1.268   8.360  21.089  0.00  0.00    +0.000 A 
ATOM     20  C   UNL     1       0.587   9.535  20.787  0.00  0.00    +0.000 A 
ATOM     21  C   UNL     1       0.675  10.063  19.504  0.00  0.00    +0.000 A 
ATOM     22 BR   UNL     1      -0.311  11.617  19.073  0.00  0.00    +0.000 Br
ATOM     23  C   UNL     1       1.428   9.423  18.519  0.00  0.00    +0.000 A 
ENDBRANCH  15  17
ENDBRANCH   4  15
BRANCH  14  24
ATOM     24  C   UNL     1       7.559   4.671  17.860  0.00  0.00    +0.000 C 
ATOM     25  N   UNL     1       8.563   4.113  17.791  0.00  0.00    +0.000 NA
ENDBRANCH  14  24
TORSDOF 3
ENDMDL
MODEL 2
REMARK VINA RESULT:      -7.8      1.382      1.698
REMARK  Name = 
REMARK  4 active torsions:
REMARK  status: ('A' for Active; 'I' for Inactive)
REMARK    1  A    between atoms: C_1  and  C_2
REMARK    2  A    between atoms: C_4  and  N_5
REMARK    3  A    between atoms: N_5  and  C_6
REMARK    4  A    between atoms: C_22  and  C_23
REMARK                            x       y       z     vdW  Elec       q    Type
REMARK                         _______ _______ _______ _____ _____    ______ ____
ROOT
ATOM      1  C   UNL     1       6.933   7.162  16.557  0.00  0.00    +0.000 C 
ATOM      2  C   UNL     1       5.853   6.448  17.329  0.00  0.00    +0.000 A 
ATOM      3  C   UNL     1       4.523   7.037  17.268  0.00  0.00    +0.000 A 
ATOM      4  C   UNL     1       3.450   6.493  17.890  0.00  0.00    +0.000 A 
ATOM      5  N   UNL     1       3.690   5.298  18.644  0.00  0.00    +0.000 N 
ATOM      6  C   UNL     1       4.976   4.718  18.737  0.00  0.00    +0.000 A 
ATOM      7  N   UNL     1       4.981   3.640  19.489  0.00  0.00    +0.000 NA
ATOM      8  C   UNL     1       3.701   3.483  19.922  0.00  0.00    +0.000 A 
ATOM      9  C   UNL     1       3.200   2.468  20.755  0.00  0.00    +0.000 A 
ATOM     10  C   UNL     1       1.849   2.471  21.098  0.00  0.00    +0.000 A 
ATOM     11  C   UNL     1       1.015   3.474  20.616  0.00  0.00    +0.000 A 
ATOM     12  C   UNL     1       1.497   4.498  19.779  0.00  0.00    +0.000 A 
ATOM     13  C   UNL     1       2.860   4.489  19.432  0.00  0.00    +0.000 A 
ATOM     14  C   UNL     1       6.070   5.322  18.044  0.00  0.00    +0.000 A 
ENDROOT
BRANCH   4  15
ATOM     15  N   UNL     1       2.188   7.084  17.816  0.00  0.00    +0.000 N 
ATOM     16  H   UNL     1       1.456   6.580  17.322  0.00  0.00    +0.000 HD
BRANCH  15  17
ATOM     17  C   UNL     1       1.764   8.244  18.512  0.00  0.00    +0.000 A 
ATOM     18  C   UNL     1       1.802   9.498  17.879  0.00  0.00    +0.000 A 
ATOM     19  C   UNL     1       1.513  10.675  18.582  0.00  0.00    +0.000 A 
ATOM     20  C   UNL     1       1.285  10.620  19.953  0.00  0.00    +0.000 A 
ATOM     21  C   UNL     1       1.212   9.383  20.582  0.00  0.00    +0.000 A 
ATOM     22 BR   UNL     1       0.978   9.311  22.457  0.00  0.00    +0.000 Br
ATOM     23  C   UNL     1       1.373   8.202  19.856  0.00  0.00    +0.000 A 
ENDBRANCH  15  17
ENDBRANCH   4  15
BRANCH  14  24
ATOM     24  C   UNL     1       7.386   4.739  18.107  0.00  0.00    +0.000 C 
ATOM     25  N   UNL     1       8.414   4.224  18.077  0.00  0.00    +0.000 NA
ENDBRANCH  14  24
TORSDOF 3
ENDMDL
MODEL 3
REMARK VINA RESULT:      -7.6      3.414      6.564
REMARK  Name = 
REMARK  4 active torsions:
REMARK  status: ('A' for Active; 'I' for Inactive)
REMARK    1  A    between atoms: C_1  and  C_2
REMARK    2  A    between atoms: C_4  and  N_5
REMARK    3  A    between atoms: N_5  and  C_6
REMARK    4  A    between atoms: C_22  and  C_23
REMARK                            x       y       z     vdW  Elec       q    Type
REMARK                         _______ _______ _______ _____ _____    ______ ____
ROOT
ATOM      1  C   UNL     1       4.137   1.941  19.606  0.00  0.00    +0.000 C 
ATOM      2  C   UNL     1       3.712   3.368  19.370  0.00  0.00    +0.000 A 
ATOM      3  C   UNL     1       4.234   4.003  18.168  0.00  0.00    +0.000 A 
ATOM      4  C   UNL     1       3.919   5.272  17.813  0.00  0.00    +0.000 A 
ATOM      5  N   UNL     1       3.048   5.984  18.702  0.00  0.00    +0.000 N 
ATOM      6  C   UNL     1       2.547   5.397  19.887  0.00  0.00    +0.000 A 
ATOM      7  N   UNL     1       1.784   6.224  20.565  0.00  0.00    +0.000 NA
ATOM      8  C   UNL     1       1.768   7.384  19.854  0.00  0.00    +0.000 A 
ATOM      9  C   UNL     1       1.086   8.572  20.172  0.00  0.00    +0.000 A 
ATOM     10  C   UNL     1       1.191   9.668  19.318  0.00  0.00    +0.000 A 
ATOM     11  C   UNL     1       1.965   9.577  18.166  0.00  0.00    +0.000 A 
ATOM     12  C   UNL     1       2.654   8.396  17.829  0.00  0.00    +0.000 A 
ATOM     13  C   UNL     1       2.542   7.291  18.692  0.00  0.00    +0.000 A 
ATOM     14  C   UNL     1       2.894   4.048  20.203  0.00  0.00    +0.000 A 
ENDROOT
BRANCH   4  15
ATOM     15  N   UNL     1       4.438   5.855  16.656  0.00  0.00    +0.000 N 
ATOM     16  H   UNL     1       4.240   6.839  16.491  0.00  0.00    +0.000 HD
BRANCH  15  17
ATOM     17  C   UNL     1       5.368   5.264  15.765  0.00  0.00    +0.000 A 
ATOM     18  C   UNL     1       6.740   5.541  15.894  0.00  0.00    +0.000 A 
ATOM     19  C   UNL     1       7.666   5.076  14.950  0.00  0.00    +0.000 A 
ATOM     20  C   UNL     1       7.216   4.416  13.811  0.00  0.00    +0.000 A 
ATOM     21  C   UNL     1       5.866   4.107  13.691  0.00  0.00    +0.000 A 
ATOM     22 BR   UNL     1       5.244   3.280  12.109  0.00  0.00    +0.000 Br
ATOM     23  C   UNL     1       4.961   4.459  14.693  0.00  0.00    +0.000 A 
ENDBRANCH  15  17
ENDBRANCH   4  15
BRANCH  14  24
ATOM     24  C   UNL     1       2.379   3.421  21.394  0.00  0.00    +0.000 C 
ATOM     25  N   UNL     1       1.880   2.923  22.303  0.00  0.00    +0.000 NA
ENDBRANCH  14  24
TORSDOF 3
ENDMDL
MODEL 4
REMARK VINA RESULT:      -7.4      2.858      5.812
REMARK  Name = 
REMARK  4 active torsions:
REMARK  status: ('A' for Active; 'I' for Inactive)
REMARK    1  A    between atoms: C_1  and  C_2
REMARK    2  A    between atoms: C_4  and  N_5
REMARK    3  A    between atoms: N_5  and  C_6
REMARK    4  A    between atoms: C_22  and  C_23
REMARK                            x       y       z     vdW  Elec       q    Type
REMARK                         _______ _______ _______ _____ _____    ______ ____
ROOT
ATOM      1  C   UNL     1       1.616  10.288  18.530  0.00  0.00    +0.000 C 
ATOM      2  C   UNL     1       1.916   8.837  18.810  0.00  0.00    +0.000 A 
ATOM      3  C   UNL     1       2.649   8.122  17.775  0.00  0.00    +0.000 A 
ATOM      4  C   UNL     1       3.011   6.822  17.898  0.00  0.00    +0.000 A 
ATOM      5  N   UNL     1       2.614   6.162  19.107  0.00  0.00    +0.000 N 
ATOM      6  C   UNL     1       1.883   6.828  20.117  0.00  0.00    +0.000 A 
ATOM      7  N   UNL     1       1.606   6.040  21.131  0.00  0.00    +0.000 NA
ATOM      8  C   UNL     1       2.137   4.828  20.815  0.00  0.00    +0.000 A 
ATOM      9  C   UNL     1       2.104   3.654  21.588  0.00  0.00    +0.000 A 
ATOM     10  C   UNL     1       2.704   2.497  21.095  0.00  0.00    +0.000 A 
ATOM     11  C   UNL     1       3.326   2.515  19.852  0.00  0.00    +0.000 A 
ATOM     12  C   UNL     1       3.372   3.681  19.064  0.00  0.00    +0.000 A 
ATOM     13  C   UNL     1       2.768   4.847  19.566  0.00  0.00    +0.000 A 
ATOM     14  C   UNL     1       1.544   8.207  19.946  0.00  0.00    +0.000 A 
ENDROOT
BRANCH   4  15
ATOM     15  N   UNL     1       3.709   6.162  16.886  0.00  0.00    +0.000 N 
ATOM     16  H   UNL     1       3.266   6.089  15.973  0.00  0.00    +0.000 HD
BRANCH  15  17
ATOM     17  C   UNL     1       5.058   5.730  16.943  0.00  0.00    +0.000 A 
ATOM     18  C   UNL     1       5.554   4.839  15.976  0.00  0.00    +0.000 A 
ATOM     19  C   UNL     1       6.841   4.295  16.081  0.00  0.00    +0.000 A 
ATOM     20  C   UNL     1       7.609   4.557  17.212  0.00  0.00    +0.000 A 
ATOM     21  C   UNL     1       7.142   5.464  18.157  0.00  0.00    +0.000 A 
ATOM     22 BR   UNL     1       8.150   5.761  19.729  0.00  0.00    +0.000 Br
ATOM     23  C   UNL     1       5.914   6.103  17.987  0.00  0.00    +0.000 A 
ENDBRANCH  15  17
ENDBRANCH   4  15
BRANCH  14  24
ATOM     24  C   UNL     1       0.818   8.912  20.970  0.00  0.00    +0.000 C 
ATOM     25  N   UNL     1       0.161   9.475  21.728  0.00  0.00    +0.000 NA
ENDBRANCH  14  24
TORSDOF 3
ENDMDL
MODEL 5
REMARK VINA RESULT:      -7.2      1.646      1.967
REMARK  Name = 
REMARK  4 active torsions:
REMARK  status: ('A' for Active; 'I' for Inactive)
REMARK    1  A    between atoms: C_1  and  C_2
REMARK    2  A    between atoms: C_4  and  N_5
REMARK    3  A    between atoms: N_5  and  C_6
REMARK    4  A    between atoms: C_22  and  C_23
REMARK                            x       y       z     vdW  Elec       q    Type
REMARK                         _______ _______ _______ _____ _____    ______ ____
ROOT
ATOM      1  C   UNL     1       6.282   6.962  16.009  0.00  0.00    +0.000 C 
ATOM      2  C   UNL     1       5.225   6.209  16.776  0.00  0.00    +0.000 A 
ATOM      3  C   UNL     1       4.577   6.936  17.858  0.00  0.00    +0.000 A 
ATOM      4  C   UNL     1       3.593   6.398  18.618  0.00  0.00    +0.000 A 
ATOM      5  N   UNL     1       3.224   5.045  18.317  0.00  0.00    +0.000 N 
ATOM      6  C   UNL     1       3.854   4.311  17.286  0.00  0.00    +0.000 A 
ATOM      7  N   UNL     1       3.382   3.089  17.188  0.00  0.00    +0.000 NA
ATOM      8  C   UNL     1       2.434   2.978  18.158  0.00  0.00    +0.000 A 
ATOM      9  C   UNL     1       1.641   1.855  18.452  0.00  0.00    +0.000 A 
ATOM     10  C   UNL     1       0.717   1.927  19.493  0.00  0.00    +0.000 A 
ATOM     11  C   UNL     1       0.589   3.102  20.226  0.00  0.00    +0.000 A 
ATOM     12  C   UNL     1       1.372   4.238  19.945  0.00  0.00    +0.000 A 
ATOM     13  C   UNL     1       2.301   4.162  18.891  0.00  0.00    +0.000 A 
ATOM     14  C   UNL     1       4.873   4.934  16.501  0.00  0.00    +0.000 A 
ENDROOT
BRANCH   4  15
ATOM     15  N   UNL     1       2.993   7.119  19.651  0.00  0.00    +0.000 N 
ATOM     16  H   UNL     1       3.407   7.054  20.578  0.00  0.00    +0.000 HD
BRANCH  15  17
ATOM     17  C   UNL     1       1.962   8.082  19.513  0.00  0.00    +0.000 A 
ATOM     18  C   UNL     1       1.700   8.658  18.258  0.00  0.00    +0.000 A 
ATOM     19  C   UNL     1       0.778   9.703  18.117  0.00  0.00    +0.000 A 
ATOM     20  C   UNL     1       0.184  10.255  19.248  0.00  0.00    +0.000 A 
ATOM     21  C   UNL     1       0.410   9.671  20.489  0.00  0.00    +0.000 A 
ATOM     22 BR   UNL     1      -0.336  10.465  22.034  0.00  0.00    +0.000 Br
ATOM     23  C   UNL     1       1.229   8.548  20.612  0.00  0.00    +0.000 A 
ENDBRANCH  15  17
ENDBRANCH   4  15
BRANCH  14  24
ATOM     24  C   UNL     1       5.515   4.213  15.432  0.00  0.00    +0.000 C 
ATOM     25  N   UNL     1       6.090   3.711  14.571  0.00  0.00    +0.000 NA
ENDBRANCH  14  24
TORSDOF 3
ENDMDL
MODEL 6
REMARK VINA RESULT:      -7.1      0.893      4.086
REMARK  Name = 
REMARK  4 active torsions:
REMARK  status: ('A' for Active; 'I' for Inactive)
REMARK    1  A    between atoms: C_1  and  C_2
REMARK    2  A    between atoms: C_4  and  N_5
REMARK    3  A    between atoms: N_5  and  C_6
REMARK    4  A    between atoms: C_22  and  C_23
REMARK                            x       y       z     vdW  Elec       q    Type
REMARK                         _______ _______ _______ _____ _____    ______ ____
ROOT
ATOM      1  C   UNL     1       0.892   2.584  18.752  0.00  0.00    +0.000 C 
ATOM      2  C   UNL     1       2.053   3.522  18.531  0.00  0.00    +0.000 A 
ATOM      3  C   UNL     1       1.714   4.914  18.276  0.00  0.00    +0.000 A 
ATOM      4  C   UNL     1       2.651   5.874  18.084  0.00  0.00    +0.000 A 
ATOM      5  N   UNL     1       4.018   5.446  18.123  0.00  0.00    +0.000 N 
ATOM      6  C   UNL     1       4.372   4.095  18.347  0.00  0.00    +0.000 A 
ATOM      7  N   UNL     1       5.674   3.914  18.326  0.00  0.00    +0.000 NA
ATOM      8  C   UNL     1       6.215   5.137  18.078  0.00  0.00    +0.000 A 
ATOM      9  C   UNL     1       7.579   5.460  17.964  0.00  0.00    +0.000 A 
ATOM     10  C   UNL     1       7.948   6.778  17.702  0.00  0.00    +0.000 A 
ATOM     11  C   UNL     1       6.969   7.755  17.556  0.00  0.00    +0.000 A 
ATOM     12  C   UNL     1       5.599   7.453  17.668  0.00  0.00    +0.000 A 
ATOM     13  C   UNL     1       5.231   6.122  17.937  0.00  0.00    +0.000 A 
ATOM     14  C   UNL     1       3.345   3.126  18.564  0.00  0.00    +0.000 A 
ENDROOT
BRANCH   4  15
ATOM     15  N   UNL     1       2.294   7.201  17.837  0.00  0.00    +0.000 N 
ATOM     16  H   UNL     1       2.227   7.501  16.868  0.00  0.00    +0.000 HD
BRANCH  15  17
ATOM     17  C   UNL     1       1.839   8.139  18.797  0.00  0.00    +0.000 A 
ATOM     18  C   UNL     1       1.830   7.802  20.161  0.00  0.00    +0.000 A 
ATOM     19  C   UNL     1       1.266   8.658  21.117  0.00  0.00    +0.000 A 
ATOM     20  C   UNL     1       0.612   9.815  20.705  0.00  0.00    +0.000 A 
ATOM     21  C   UNL     1       0.646  10.174  19.363  0.00  0.00    +0.000 A 
ATOM     22 BR   UNL     1      -0.307  11.705  18.791  0.00  0.00    +0.000 Br
ATOM     23  C   UNL     1       1.318   9.386  18.428  0.00  0.00    +0.000 A 
ENDBRANCH  15  17
ENDBRANCH   4  15
BRANCH  14  24
ATOM     24  C   UNL     1       3.681   1.748  18.814  0.00  0.00    +0.000 C 
ATOM     25  N   UNL     1       3.923   0.629  18.923  0.00  0.00    +0.000 NA
ENDBRANCH  14  24
TORSDOF 3
ENDMDL
MODEL 7
REMARK VINA RESULT:      -7.1      3.373      6.399
REMARK  Name = 
REMARK  4 active torsions:
REMARK  status: ('A' for Active; 'I' for Inactive)
REMARK    1  A    between atoms: C_1  and  C_2
REMARK    2  A    between atoms: C_4  and  N_5
REMARK    3  A    between atoms: N_5  and  C_6
REMARK    4  A    between atoms: C_22  and  C_23
REMARK                            x       y       z     vdW  Elec       q    Type
REMARK                         _______ _______ _______ _____ _____    ______ ____
ROOT
ATOM      1  C   UNL     1       3.353   7.406  17.199  0.00  0.00    +0.000 C 
ATOM      2  C   UNL     1       2.505   8.167  18.187  0.00  0.00    +0.000 A 
ATOM      3  C   UNL     1       2.043   9.480  17.760  0.00  0.00    +0.000 A 
ATOM      4  C   UNL     1       1.254  10.266  18.531  0.00  0.00    +0.000 A 
ATOM      5  N   UNL     1       0.904   9.748  19.820  0.00  0.00    +0.000 N 
ATOM      6  C   UNL     1       1.358   8.485  20.267  0.00  0.00    +0.000 A 
ATOM      7  N   UNL     1       0.939   8.208  21.481  0.00  0.00    +0.000 NA
ATOM      8  C   UNL     1       0.204   9.284  21.875  0.00  0.00    +0.000 A 
ATOM      9  C   UNL     1      -0.458   9.463  23.102  0.00  0.00    +0.000 A 
ATOM     10  C   UNL     1      -1.165  10.642  23.330  0.00  0.00    +0.000 A 
ATOM     11  C   UNL     1      -1.207  11.625  22.347  0.00  0.00    +0.000 A 
ATOM     12  C   UNL     1      -0.553  11.464  21.111  0.00  0.00    +0.000 A 
ATOM     13  C   UNL     1       0.156  10.271  20.884  0.00  0.00    +0.000 A 
ATOM     14  C   UNL     1       2.172   7.686  19.405  0.00  0.00    +0.000 A 
ENDROOT
BRANCH   4  15
ATOM     15  N   UNL     1       0.830  11.523  18.095  0.00  0.00    +0.000 N 
ATOM     16  H   UNL     1      -0.046  11.576  17.581  0.00  0.00    +0.000 HD
BRANCH  15  17
ATOM     17  C   UNL     1       1.406  12.769  18.446  0.00  0.00    +0.000 A 
ATOM     18  C   UNL     1       0.585  13.834  18.854  0.00  0.00    +0.000 A 
ATOM     19  C   UNL     1       1.112  15.112  19.081  0.00  0.00    +0.000 A 
ATOM     20  C   UNL     1       2.452  15.364  18.801  0.00  0.00    +0.000 A 
ATOM     21  C   UNL     1       3.279  14.311  18.429  0.00  0.00    +0.000 A 
ATOM     22 BR   UNL     1       5.080  14.667  17.974  0.00  0.00    +0.000 Br
ATOM     23  C   UNL     1       2.781  13.012  18.327  0.00  0.00    +0.000 A 
ENDBRANCH  15  17
ENDBRANCH   4  15
BRANCH  14  24
ATOM     24  C   UNL     1       2.630   6.389  19.830  0.00  0.00    +0.000 C 
ATOM     25  N   UNL     1       3.027   5.338  20.079  0.00  0.00    +0.000 NA
ENDBRANCH  14  24
TORSDOF 3
ENDMDL
MODEL 8
REMARK VINA RESULT:      -7.0      1.599      4.361
REMARK  Name = 
REMARK  4 active torsions:
REMARK  status: ('A' for Active; 'I' for Inactive)
REMARK    1  A    between atoms: C_1  and  C_2
REMARK    2  A    between atoms: C_4  and  N_5
REMARK    3  A    between atoms: N_5  and  C_6
REMARK    4  A    between atoms: C_22  and  C_23
REMARK                            x       y       z     vdW  Elec       q    Type
REMARK                         _______ _______ _______ _____ _____    ______ ____
ROOT
ATOM      1  C   UNL     1       1.784   2.273  20.309  0.00  0.00    +0.000 C 
ATOM      2  C   UNL     1       2.743   3.295  19.751  0.00  0.00    +0.000 A 
ATOM      3  C   UNL     1       2.146   4.408  19.028  0.00  0.00    +0.000 A 
ATOM      4  C   UNL     1       2.879   5.414  18.494  0.00  0.00    +0.000 A 
ATOM      5  N   UNL     1       4.300   5.322  18.657  0.00  0.00    +0.000 N 
ATOM      6  C   UNL     1       4.906   4.240  19.336  0.00  0.00    +0.000 A 
ATOM      7  N   UNL     1       6.216   4.338  19.358  0.00  0.00    +0.000 NA
ATOM      8  C   UNL     1       6.513   5.483  18.685  0.00  0.00    +0.000 A 
ATOM      9  C   UNL     1       7.788   6.023  18.441  0.00  0.00    +0.000 A 
ATOM     10  C   UNL     1       7.899   7.213  17.725  0.00  0.00    +0.000 A 
ATOM     11  C   UNL     1       6.753   7.851  17.261  0.00  0.00    +0.000 A 
ATOM     12  C   UNL     1       5.468   7.328  17.497  0.00  0.00    +0.000 A 
ATOM     13  C   UNL     1       5.361   6.128  18.223  0.00  0.00    +0.000 A 
ATOM     14  C   UNL     1       4.084   3.215  19.899  0.00  0.00    +0.000 A 
ENDROOT
BRANCH   4  15
ATOM     15  N   UNL     1       2.277   6.466  17.802  0.00  0.00    +0.000 N 
ATOM     16  H   UNL     1       2.001   6.302  16.837  0.00  0.00    +0.000 HD
BRANCH  15  17
ATOM     17  C   UNL     1       1.846   7.697  18.357  0.00  0.00    +0.000 A 
ATOM     18  C   UNL     1       1.944   8.881  17.607  0.00  0.00    +0.000 A 
ATOM     19  C   UNL     1       1.647  10.127  18.174  0.00  0.00    +0.000 A 
ATOM     20  C   UNL     1       1.350  10.213  19.531  0.00  0.00    +0.000 A 
ATOM     21  C   UNL     1       1.217   9.045  20.274  0.00  0.00    +0.000 A 
ATOM     22 BR   UNL     1       0.889   9.164  22.132  0.00  0.00    +0.000 Br
ATOM     23  C   UNL     1       1.387   7.795  19.677  0.00  0.00    +0.000 A 
ENDBRANCH  15  17
ENDBRANCH   4  15
BRANCH  14  24
ATOM     24  C   UNL     1       4.676   2.113  20.613  0.00  0.00    +0.000 C 
ATOM     25  N   UNL     1       5.179   1.199  21.097  0.00  0.00    +0.000 NA
ENDBRANCH  14  24
TORSDOF 3
ENDMDL
MODEL 9
REMARK VINA RESULT:      -7.0      1.570      4.089
REMARK  Name = 
REMARK  4 active torsions:
REMARK  status: ('A' for Active; 'I' for Inactive)
REMARK    1  A    between atoms: C_1  and  C_2
REMARK    2  A    between atoms: C_4  and  N_5
REMARK    3  A    between atoms: N_5  and  C_6
REMARK    4  A    between atoms: C_22  and  C_23
REMARK                            x       y       z     vdW  Elec       q    Type
REMARK                         _______ _______ _______ _____ _____    ______ ____
ROOT
ATOM      1  C   UNL     1       1.850   2.509  21.557  0.00  0.00    +0.000 C 
ATOM      2  C   UNL     1       2.690   3.393  20.670  0.00  0.00    +0.000 A 
ATOM      3  C   UNL     1       2.038   4.588  20.153  0.00  0.00    +0.000 A 
ATOM      4  C   UNL     1       2.675   5.488  19.365  0.00  0.00    +0.000 A 
ATOM      5  N   UNL     1       4.040   5.196  19.040  0.00  0.00    +0.000 N 
ATOM      6  C   UNL     1       4.689   4.032  19.512  0.00  0.00    +0.000 A 
ATOM      7  N   UNL     1       5.928   3.946  19.085  0.00  0.00    +0.000 NA
ATOM      8  C   UNL     1       6.130   5.046  18.310  0.00  0.00    +0.000 A 
ATOM      9  C   UNL     1       7.306   5.406  17.628  0.00  0.00    +0.000 A 
ATOM     10  C   UNL     1       7.326   6.578  16.875  0.00  0.00    +0.000 A 
ATOM     11  C   UNL     1       6.189   7.375  16.804  0.00  0.00    +0.000 A 
ATOM     12  C   UNL     1       5.003   7.033  17.481  0.00  0.00    +0.000 A 
ATOM     13  C   UNL     1       4.988   5.851  18.244  0.00  0.00    +0.000 A 
ATOM     14  C   UNL     1       3.977   3.125  20.357  0.00  0.00    +0.000 A 
ENDROOT
BRANCH   4  15
ATOM     15  N   UNL     1       2.022   6.622  18.881  0.00  0.00    +0.000 N 
ATOM     16  H   UNL     1       1.610   6.572  17.952  0.00  0.00    +0.000 HD
BRANCH  15  17
ATOM     17  C   UNL     1       1.715   7.792  19.619  0.00  0.00    +0.000 A 
ATOM     18  C   UNL     1       1.528   7.718  21.010  0.00  0.00    +0.000 A 
ATOM     19  C   UNL     1       1.097   8.830  21.746  0.00  0.00    +0.000 A 
ATOM     20  C   UNL     1       0.747  10.002  21.081  0.00  0.00    +0.000 A 
ATOM     21  C   UNL     1       0.961  10.097  19.711  0.00  0.00    +0.000 A 
ATOM     22 BR   UNL     1       0.415  11.659  18.796  0.00  0.00    +0.000 Br
ATOM     23  C   UNL     1       1.510   9.031  18.998  0.00  0.00    +0.000 A 
ENDBRANCH  15  17
ENDBRANCH   4  15
BRANCH  14  24
ATOM     24  C   UNL     1       4.622   1.942  20.867  0.00  0.00    +0.000 C 
ATOM     25  N   UNL     1       5.208   1.014  21.209  0.00  0.00    +0.000 NA
ENDBRANCH  14  24
TORSDOF 3
ENDMDL
