MODEL 1
REMARK VINA RESULT:      -8.6      0.000      0.000
REMARK  Name = 
REMARK  5 active torsions:
REMARK  status: ('A' for Active; 'I' for Inactive)
REMARK    1  A    between atoms: C_1  and  O_2
REMARK    2  A    between atoms: O_2  and  C_3
REMARK    3  A    between atoms: C_6  and  C_7
REMARK    4  A    between atoms: N_14  and  C_15
REMARK    5  A    between atoms: C_15  and  C_16
REMARK                            x       y       z     vdW  Elec       q    Type
REMARK                         _______ _______ _______ _____ _____    ______ ____
ROOT
ATOM      1  C   UNL     1       2.428   7.603  19.302  0.00  0.00    +0.000 C 
ATOM      2  N   UNL     1       2.720   6.608  20.093  0.00  0.00    +0.000 NA
ATOM      3  N   UNL     1       3.721   5.820  19.538  0.00  0.00    +0.000 N 
ATOM      4  C   UNL     1       3.800   5.954  18.065  0.00  0.00    +0.000 C 
ATOM      5  S   UNL     1       3.343   7.681  17.795  0.00  0.00    +0.000 S 
ATOM      6  C   UNL     1       2.720   4.952  17.498  0.00  0.00    +0.000 C 
ATOM      7  O   UNL     1       1.549   5.193  17.231  0.00  0.00    +0.000 OA
ATOM      8  N   UNL     1       3.415   3.764  17.106  0.00  0.00    +0.000 N 
ATOM      9  C   UNL     1       4.644   4.278  16.628  0.00  0.00    +0.000 A 
ATOM     10  C   UNL     1       5.394   3.650  15.652  0.00  0.00    +0.000 A 
ATOM     11  C   UNL     1       6.592   4.243  15.300  0.00  0.00    +0.000 A 
ATOM     12  C   UNL     1       7.019   5.403  15.973  0.00  0.00    +0.000 A 
ATOM     13  C   UNL     1       6.233   6.022  16.971  0.00  0.00    +0.000 A 
ATOM     14  C   UNL     1       4.999   5.472  17.277  0.00  0.00    +0.000 A 
ATOM     15  H   UNL     1       3.516   4.856  19.807  0.00  0.00    +0.000 HD
ENDROOT
BRANCH   1  19
ATOM     16  C   UNL     1      -0.628  10.563  20.009  0.00  0.00    +0.000 A 
ATOM     17  C   UNL     1      -0.085  10.373  18.725  0.00  0.00    +0.000 A 
ATOM     18  C   UNL     1       0.874   9.384  18.500  0.00  0.00    +0.000 A 
ATOM     19  C   UNL     1       1.337   8.585  19.554  0.00  0.00    +0.000 A 
ATOM     20  C   UNL     1       0.792   8.778  20.830  0.00  0.00    +0.000 A 
ATOM     21  C   UNL     1      -0.185   9.762  21.054  0.00  0.00    +0.000 A 
BRANCH  16  23
ATOM     22  C   UNL     1      -2.268  11.909  18.943  0.00  0.00    +0.000 C 
ATOM     23  O   UNL     1      -1.517  11.600  20.116  0.00  0.00    +0.000 OA
ENDBRANCH  16  23
ENDBRANCH   1  19
BRANCH   8  24
ATOM     24  C   UNL     1       3.785   2.768  18.156  0.00  0.00    +0.000 C 
BRANCH  24  25
ATOM     25  C   UNL     1       2.980   2.663  19.404  0.00  0.00    +0.000 A 
ATOM     26  C   UNL     1       3.506   2.563  20.689  0.00  0.00    +0.000 A 
ATOM     27  C   UNL     1       2.648   2.576  21.800  0.00  0.00    +0.000 A 
ATOM     28  C   UNL     1       1.271   2.662  21.641  0.00  0.00    +0.000 A 
ATOM     29  C   UNL     1       0.723   2.704  20.359  0.00  0.00    +0.000 A 
ATOM     30  C   UNL     1       1.569   2.700  19.254  0.00  0.00    +0.000 A 
ENDBRANCH  24  25
ENDBRANCH   8  24
TORSDOF 4
ENDMDL
MODEL 2
REMARK VINA RESULT:      -8.1      0.304      1.301
REMARK  Name = 
REMARK  5 active torsions:
REMARK  status: ('A' for Active; 'I' for Inactive)
REMARK    1  A    between atoms: C_1  and  O_2
REMARK    2  A    between atoms: O_2  and  C_3
REMARK    3  A    between atoms: C_6  and  C_7
REMARK    4  A    between atoms: N_14  and  C_15
REMARK    5  A    between atoms: C_15  and  C_16
REMARK                            x       y       z     vdW  Elec       q    Type
REMARK                         _______ _______ _______ _____ _____    ______ ____
ROOT
ATOM      1  C   UNL     1       2.365   7.847  19.136  0.00  0.00    +0.000 C 
ATOM      2  N   UNL     1       2.584   6.876  19.978  0.00  0.00    +0.000 NA
ATOM      3  N   UNL     1       3.593   6.042  19.511  0.00  0.00    +0.000 N 
ATOM      4  C   UNL     1       3.759   6.118  18.041  0.00  0.00    +0.000 C 
ATOM      5  S   UNL     1       3.365   7.845  17.682  0.00  0.00    +0.000 S 
ATOM      6  C   UNL     1       2.686   5.123  17.450  0.00  0.00    +0.000 C 
ATOM      7  O   UNL     1       1.538   5.383  17.107  0.00  0.00    +0.000 OA
ATOM      8  N   UNL     1       3.368   3.904  17.142  0.00  0.00    +0.000 N 
ATOM      9  C   UNL     1       4.636   4.368  16.717  0.00  0.00    +0.000 A 
ATOM     10  C   UNL     1       5.423   3.684  15.809  0.00  0.00    +0.000 A 
ATOM     11  C   UNL     1       6.654   4.233  15.505  0.00  0.00    +0.000 A 
ATOM     12  C   UNL     1       7.075   5.406  16.159  0.00  0.00    +0.000 A 
ATOM     13  C   UNL     1       6.251   6.083  17.087  0.00  0.00    +0.000 A 
ATOM     14  C   UNL     1       4.986   5.576  17.341  0.00  0.00    +0.000 A 
ATOM     15  H   UNL     1       3.347   5.095  19.803  0.00  0.00    +0.000 HD
ENDROOT
BRANCH   1  19
ATOM     16  C   UNL     1      -0.853  10.680  19.608  0.00  0.00    +0.000 A 
ATOM     17  C   UNL     1      -0.361   9.951  20.706  0.00  0.00    +0.000 A 
ATOM     18  C   UNL     1       0.708   9.067  20.549  0.00  0.00    +0.000 A 
ATOM     19  C   UNL     1       1.289   8.865  19.289  0.00  0.00    +0.000 A 
ATOM     20  C   UNL     1       0.796   9.594  18.200  0.00  0.00    +0.000 A 
ATOM     21  C   UNL     1      -0.269  10.496  18.360  0.00  0.00    +0.000 A 
BRANCH  16  23
ATOM     22  C   UNL     1      -2.807  11.740  18.776  0.00  0.00    +0.000 C 
ATOM     23  O   UNL     1      -1.940  11.470  19.875  0.00  0.00    +0.000 OA
ENDBRANCH  16  23
ENDBRANCH   1  19
BRANCH   8  24
ATOM     24  C   UNL     1       3.651   2.939  18.247  0.00  0.00    +0.000 C 
BRANCH  24  25
ATOM     25  C   UNL     1       2.760   2.886  19.439  0.00  0.00    +0.000 A 
ATOM     26  C   UNL     1       1.371   2.970  19.402  0.00  0.00    +0.000 A 
ATOM     27  C   UNL     1       0.627   2.801  20.581  0.00  0.00    +0.000 A 
ATOM     28  C   UNL     1       1.257   2.575  21.798  0.00  0.00    +0.000 A 
ATOM     29  C   UNL     1       2.649   2.545  21.863  0.00  0.00    +0.000 A 
ATOM     30  C   UNL     1       3.392   2.704  20.696  0.00  0.00    +0.000 A 
ENDBRANCH  24  25
ENDBRANCH   8  24
TORSDOF 4
ENDMDL
MODEL 3
REMARK VINA RESULT:      -7.6      4.005      9.797
REMARK  Name = 
REMARK  5 active torsions:
REMARK  status: ('A' for Active; 'I' for Inactive)
REMARK    1  A    between atoms: C_1  and  O_2
REMARK    2  A    between atoms: O_2  and  C_3
REMARK    3  A    between atoms: C_6  and  C_7
REMARK    4  A    between atoms: N_14  and  C_15
REMARK    5  A    between atoms: C_15  and  C_16
REMARK                            x       y       z     vdW  Elec       q    Type
REMARK                         _______ _______ _______ _____ _____    ______ ____
ROOT
ATOM      1  C   UNL     1       0.644  10.185  18.929  0.00  0.00    +0.000 C 
ATOM      2  N   UNL     1      -0.657  10.164  18.839  0.00  0.00    +0.000 NA
ATOM      3  N   UNL     1      -1.173  11.451  18.930  0.00  0.00    +0.000 N 
ATOM      4  C   UNL     1      -0.255  12.385  19.623  0.00  0.00    +0.000 C 
ATOM      5  S   UNL     1       1.376  11.777  19.137  0.00  0.00    +0.000 S 
ATOM      6  C   UNL     1      -0.538  12.181  21.161  0.00  0.00    +0.000 C 
ATOM      7  O   UNL     1       0.030  11.411  21.927  0.00  0.00    +0.000 OA
ATOM      8  N   UNL     1      -1.409  13.239  21.572  0.00  0.00    +0.000 N 
ATOM      9  C   UNL     1      -0.963  14.321  20.777  0.00  0.00    +0.000 A 
ATOM     10  C   UNL     1      -1.066  15.642  21.176  0.00  0.00    +0.000 A 
ATOM     11  C   UNL     1      -0.621  16.603  20.289  0.00  0.00    +0.000 A 
ATOM     12  C   UNL     1      -0.145  16.215  19.022  0.00  0.00    +0.000 A 
ATOM     13  C   UNL     1      -0.054  14.857  18.639  0.00  0.00    +0.000 A 
ATOM     14  C   UNL     1      -0.432  13.886  19.552  0.00  0.00    +0.000 A 
ATOM     15  H   UNL     1      -2.061  11.374  19.428  0.00  0.00    +0.000 HD
ENDROOT
BRANCH   1  19
ATOM     16  C   UNL     1       3.038   6.597  18.906  0.00  0.00    +0.000 A 
ATOM     17  C   UNL     1       3.016   7.462  17.796  0.00  0.00    +0.000 A 
ATOM     18  C   UNL     1       2.270   8.641  17.831  0.00  0.00    +0.000 A 
ATOM     19  C   UNL     1       1.503   8.969  18.958  0.00  0.00    +0.000 A 
ATOM     20  C   UNL     1       1.530   8.104  20.060  0.00  0.00    +0.000 A 
ATOM     21  C   UNL     1       2.293   6.926  20.033  0.00  0.00    +0.000 A 
BRANCH  16  23
ATOM     22  C   UNL     1       4.594   5.396  17.575  0.00  0.00    +0.000 C 
ATOM     23  O   UNL     1       3.759   5.446  18.731  0.00  0.00    +0.000 OA
ENDBRANCH  16  23
ENDBRANCH   1  19
BRANCH   8  24
ATOM     24  C   UNL     1      -2.870  13.118  21.290  0.00  0.00    +0.000 C 
BRANCH  24  25
ATOM     25  C   UNL     1      -3.828  12.865  22.401  0.00  0.00    +0.000 A 
ATOM     26  C   UNL     1      -3.471  12.484  23.692  0.00  0.00    +0.000 A 
ATOM     27  C   UNL     1      -4.456  12.376  24.688  0.00  0.00    +0.000 A 
ATOM     28  C   UNL     1      -5.793  12.618  24.402  0.00  0.00    +0.000 A 
ATOM     29  C   UNL     1      -6.176  12.943  23.101  0.00  0.00    +0.000 A 
ATOM     30  C   UNL     1      -5.204  13.060  22.111  0.00  0.00    +0.000 A 
ENDBRANCH  24  25
ENDBRANCH   8  24
TORSDOF 4
ENDMDL
MODEL 4
REMARK VINA RESULT:      -7.6      2.355      7.673
REMARK  Name = 
REMARK  5 active torsions:
REMARK  status: ('A' for Active; 'I' for Inactive)
REMARK    1  A    between atoms: C_1  and  O_2
REMARK    2  A    between atoms: O_2  and  C_3
REMARK    3  A    between atoms: C_6  and  C_7
REMARK    4  A    between atoms: N_14  and  C_15
REMARK    5  A    between atoms: C_15  and  C_16
REMARK                            x       y       z     vdW  Elec       q    Type
REMARK                         _______ _______ _______ _____ _____    ______ ____
ROOT
ATOM      1  C   UNL     1       5.478   4.511  16.801  0.00  0.00    +0.000 C 
ATOM      2  N   UNL     1       5.632   5.546  17.580  0.00  0.00    +0.000 NA
ATOM      3  N   UNL     1       4.998   5.338  18.799  0.00  0.00    +0.000 N 
ATOM      4  C   UNL     1       3.915   4.331  18.713  0.00  0.00    +0.000 C 
ATOM      5  S   UNL     1       4.541   3.175  17.473  0.00  0.00    +0.000 S 
ATOM      6  C   UNL     1       2.648   5.124  18.209  0.00  0.00    +0.000 C 
ATOM      7  O   UNL     1       2.283   5.284  17.050  0.00  0.00    +0.000 OA
ATOM      8  N   UNL     1       1.849   5.414  19.359  0.00  0.00    +0.000 N 
ATOM      9  C   UNL     1       2.050   4.267  20.163  0.00  0.00    +0.000 A 
ATOM     10  C   UNL     1       1.106   3.801  21.060  0.00  0.00    +0.000 A 
ATOM     11  C   UNL     1       1.445   2.688  21.806  0.00  0.00    +0.000 A 
ATOM     12  C   UNL     1       2.725   2.120  21.670  0.00  0.00    +0.000 A 
ATOM     13  C   UNL     1       3.672   2.620  20.747  0.00  0.00    +0.000 A 
ATOM     14  C   UNL     1       3.312   3.692  19.946  0.00  0.00    +0.000 A 
ATOM     15  H   UNL     1       4.631   6.245  19.095  0.00  0.00    +0.000 HD
ENDROOT
BRANCH   1  19
ATOM     16  C   UNL     1       6.891   4.158  12.742  0.00  0.00    +0.000 A 
ATOM     17  C   UNL     1       5.683   3.559  13.145  0.00  0.00    +0.000 A 
ATOM     18  C   UNL     1       5.216   3.715  14.450  0.00  0.00    +0.000 A 
ATOM     19  C   UNL     1       5.956   4.442  15.393  0.00  0.00    +0.000 A 
ATOM     20  C   UNL     1       7.157   5.037  14.985  0.00  0.00    +0.000 A 
ATOM     21  C   UNL     1       7.620   4.895  13.667  0.00  0.00    +0.000 A 
BRANCH  16  23
ATOM     22  C   UNL     1       7.348   2.508  11.098  0.00  0.00    +0.000 C 
ATOM     23  O   UNL     1       7.273   3.887  11.454  0.00  0.00    +0.000 OA
ENDBRANCH  16  23
ENDBRANCH   1  19
BRANCH   8  24
ATOM     24  C   UNL     1       2.227   6.572  20.224  0.00  0.00    +0.000 C 
BRANCH  24  25
ATOM     25  C   UNL     1       1.757   7.944  19.884  0.00  0.00    +0.000 A 
ATOM     26  C   UNL     1       1.913   8.558  18.644  0.00  0.00    +0.000 A 
ATOM     27  C   UNL     1       1.335   9.815  18.407  0.00  0.00    +0.000 A 
ATOM     28  C   UNL     1       0.626  10.476  19.402  0.00  0.00    +0.000 A 
ATOM     29  C   UNL     1       0.509   9.902  20.667  0.00  0.00    +0.000 A 
ATOM     30  C   UNL     1       1.073   8.652  20.906  0.00  0.00    +0.000 A 
ENDBRANCH  24  25
ENDBRANCH   8  24
TORSDOF 4
ENDMDL
MODEL 5
REMARK VINA RESULT:      -7.6      3.479      9.614
REMARK  Name = 
REMARK  5 active torsions:
REMARK  status: ('A' for Active; 'I' for Inactive)
REMARK    1  A    between atoms: C_1  and  O_2
REMARK    2  A    between atoms: O_2  and  C_3
REMARK    3  A    between atoms: C_6  and  C_7
REMARK    4  A    between atoms: N_14  and  C_15
REMARK    5  A    between atoms: C_15  and  C_16
REMARK                            x       y       z     vdW  Elec       q    Type
REMARK                         _______ _______ _______ _____ _____    ______ ____
ROOT
ATOM      1  C   UNL     1       0.981   9.753  18.443  0.00  0.00    +0.000 C 
ATOM      2  N   UNL     1      -0.169   9.747  17.828  0.00  0.00    +0.000 NA
ATOM      3  N   UNL     1      -0.760  11.003  17.885  0.00  0.00    +0.000 N 
ATOM      4  C   UNL     1      -0.262  11.816  19.019  0.00  0.00    +0.000 C 
ATOM      5  S   UNL     1       1.462  11.292  19.160  0.00  0.00    +0.000 S 
ATOM      6  C   UNL     1      -1.127  11.370  20.261  0.00  0.00    +0.000 C 
ATOM      7  O   UNL     1      -0.868  10.489  21.072  0.00  0.00    +0.000 OA
ATOM      8  N   UNL     1      -2.157  12.350  20.429  0.00  0.00    +0.000 N 
ATOM      9  C   UNL     1      -1.499  13.544  20.051  0.00  0.00    +0.000 A 
ATOM     10  C   UNL     1      -1.840  14.785  20.559  0.00  0.00    +0.000 A 
ATOM     11  C   UNL     1      -1.139  15.874  20.080  0.00  0.00    +0.000 A 
ATOM     12  C   UNL     1      -0.169  15.693  19.077  0.00  0.00    +0.000 A 
ATOM     13  C   UNL     1       0.157  14.413  18.572  0.00  0.00    +0.000 A 
ATOM     14  C   UNL     1      -0.493  13.309  19.101  0.00  0.00    +0.000 A 
ATOM     15  H   UNL     1      -1.767  10.848  17.961  0.00  0.00    +0.000 HD
ENDROOT
BRANCH   1  19
ATOM     16  C   UNL     1       3.361   6.188  18.919  0.00  0.00    +0.000 A 
ATOM     17  C   UNL     1       3.420   6.948  17.736  0.00  0.00    +0.000 A 
ATOM     18  C   UNL     1       2.677   8.122  17.610  0.00  0.00    +0.000 A 
ATOM     19  C   UNL     1       1.832   8.549  18.644  0.00  0.00    +0.000 A 
ATOM     20  C   UNL     1       1.778   7.788  19.820  0.00  0.00    +0.000 A 
ATOM     21  C   UNL     1       2.539   6.615  19.955  0.00  0.00    +0.000 A 
BRANCH  16  23
ATOM     22  C   UNL     1       5.448   5.132  19.325  0.00  0.00    +0.000 C 
ATOM     23  O   UNL     1       4.090   5.028  18.901  0.00  0.00    +0.000 OA
ENDBRANCH  16  23
ENDBRANCH   1  19
BRANCH   8  24
ATOM     24  C   UNL     1      -3.369  12.274  19.560  0.00  0.00    +0.000 C 
BRANCH  24  25
ATOM     25  C   UNL     1      -4.727  12.252  20.171  0.00  0.00    +0.000 A 
ATOM     26  C   UNL     1      -5.027  12.664  21.467  0.00  0.00    +0.000 A 
ATOM     27  C   UNL     1      -6.362  12.697  21.900  0.00  0.00    +0.000 A 
ATOM     28  C   UNL     1      -7.397  12.298  21.063  0.00  0.00    +0.000 A 
ATOM     29  C   UNL     1      -7.109  11.827  19.783  0.00  0.00    +0.000 A 
ATOM     30  C   UNL     1      -5.788  11.800  19.345  0.00  0.00    +0.000 A 
ENDBRANCH  24  25
ENDBRANCH   8  24
TORSDOF 4
ENDMDL
MODEL 6
REMARK VINA RESULT:      -7.5      3.808      9.925
REMARK  Name = 
REMARK  5 active torsions:
REMARK  status: ('A' for Active; 'I' for Inactive)
REMARK    1  A    between atoms: C_1  and  O_2
REMARK    2  A    between atoms: O_2  and  C_3
REMARK    3  A    between atoms: C_6  and  C_7
REMARK    4  A    between atoms: N_14  and  C_15
REMARK    5  A    between atoms: C_15  and  C_16
REMARK                            x       y       z     vdW  Elec       q    Type
REMARK                         _______ _______ _______ _____ _____    ______ ____
ROOT
ATOM      1  C   UNL     1       0.611  10.131  18.715  0.00  0.00    +0.000 C 
ATOM      2  N   UNL     1      -0.611  10.102  18.258  0.00  0.00    +0.000 NA
ATOM      3  N   UNL     1      -1.191  11.362  18.335  0.00  0.00    +0.000 N 
ATOM      4  C   UNL     1      -0.548  12.224  19.354  0.00  0.00    +0.000 C 
ATOM      5  S   UNL     1       1.180  11.699  19.289  0.00  0.00    +0.000 S 
ATOM      6  C   UNL     1      -1.240  11.841  20.719  0.00  0.00    +0.000 C 
ATOM      7  O   UNL     1      -0.874  10.997  21.529  0.00  0.00    +0.000 OA
ATOM      8  N   UNL     1      -2.239  12.832  20.976  0.00  0.00    +0.000 N 
ATOM      9  C   UNL     1      -1.639  14.005  20.459  0.00  0.00    +0.000 A 
ATOM     10  C   UNL     1      -1.911  15.269  20.949  0.00  0.00    +0.000 A 
ATOM     11  C   UNL     1      -1.280  16.332  20.331  0.00  0.00    +0.000 A 
ATOM     12  C   UNL     1      -0.451  16.099  19.218  0.00  0.00    +0.000 A 
ATOM     13  C   UNL     1      -0.194  14.795  18.735  0.00  0.00    +0.000 A 
ATOM     14  C   UNL     1      -0.767  13.721  19.396  0.00  0.00    +0.000 A 
ATOM     15  H   UNL     1      -2.178  11.216  18.550  0.00  0.00    +0.000 HD
ENDROOT
BRANCH   1  19
ATOM     16  C   UNL     1       3.047   6.585  19.023  0.00  0.00    +0.000 A 
ATOM     17  C   UNL     1       3.050   7.369  17.855  0.00  0.00    +0.000 A 
ATOM     18  C   UNL     1       2.289   8.537  17.782  0.00  0.00    +0.000 A 
ATOM     19  C   UNL     1       1.482   8.932  18.858  0.00  0.00    +0.000 A 
ATOM     20  C   UNL     1       1.484   8.148  20.019  0.00  0.00    +0.000 A 
ATOM     21  C   UNL     1       2.262   6.981  20.100  0.00  0.00    +0.000 A 
BRANCH  16  23
ATOM     22  C   UNL     1       4.140   4.992  17.644  0.00  0.00    +0.000 C 
ATOM     23  O   UNL     1       3.787   5.434  18.953  0.00  0.00    +0.000 OA
ENDBRANCH  16  23
ENDBRANCH   1  19
BRANCH   8  24
ATOM     24  C   UNL     1      -3.556  12.723  20.279  0.00  0.00    +0.000 C 
BRANCH  24  25
ATOM     25  C   UNL     1      -4.820  12.717  21.067  0.00  0.00    +0.000 A 
ATOM     26  C   UNL     1      -6.066  12.339  20.575  0.00  0.00    +0.000 A 
ATOM     27  C   UNL     1      -7.170  12.273  21.440  0.00  0.00    +0.000 A 
ATOM     28  C   UNL     1      -7.048  12.604  22.783  0.00  0.00    +0.000 A 
ATOM     29  C   UNL     1      -5.821  13.041  23.280  0.00  0.00    +0.000 A 
ATOM     30  C   UNL     1      -4.721  13.101  22.429  0.00  0.00    +0.000 A 
ENDBRANCH  24  25
ENDBRANCH   8  24
TORSDOF 4
ENDMDL
MODEL 7
REMARK VINA RESULT:      -7.5      3.743      9.885
REMARK  Name = 
REMARK  5 active torsions:
REMARK  status: ('A' for Active; 'I' for Inactive)
REMARK    1  A    between atoms: C_1  and  O_2
REMARK    2  A    between atoms: O_2  and  C_3
REMARK    3  A    between atoms: C_6  and  C_7
REMARK    4  A    between atoms: N_14  and  C_15
REMARK    5  A    between atoms: C_15  and  C_16
REMARK                            x       y       z     vdW  Elec       q    Type
REMARK                         _______ _______ _______ _____ _____    ______ ____
ROOT
ATOM      1  C   UNL     1       0.668  10.073  18.584  0.00  0.00    +0.000 C 
ATOM      2  N   UNL     1      -0.518  10.108  18.044  0.00  0.00    +0.000 NA
ATOM      3  N   UNL     1      -1.058  11.385  18.133  0.00  0.00    +0.000 N 
ATOM      4  C   UNL     1      -0.459  12.181  19.230  0.00  0.00    +0.000 C 
ATOM      5  S   UNL     1       1.250  11.595  19.262  0.00  0.00    +0.000 S 
ATOM      6  C   UNL     1      -1.259  11.770  20.527  0.00  0.00    +0.000 C 
ATOM      7  O   UNL     1      -0.980  10.882  21.323  0.00  0.00    +0.000 OA
ATOM      8  N   UNL     1      -2.238  12.788  20.755  0.00  0.00    +0.000 N 
ATOM      9  C   UNL     1      -1.563  13.957  20.331  0.00  0.00    +0.000 A 
ATOM     10  C   UNL     1      -1.825  15.209  20.854  0.00  0.00    +0.000 A 
ATOM     11  C   UNL     1      -1.116  16.271  20.327  0.00  0.00    +0.000 A 
ATOM     12  C   UNL     1      -0.219  16.052  19.264  0.00  0.00    +0.000 A 
ATOM     13  C   UNL     1       0.026  14.760  18.745  0.00  0.00    +0.000 A 
ATOM     14  C   UNL     1      -0.629  13.682  19.319  0.00  0.00    +0.000 A 
ATOM     15  H   UNL     1      -2.063  11.268  18.273  0.00  0.00    +0.000 HD
ENDROOT
BRANCH   1  19
ATOM     16  C   UNL     1       3.126   6.571  19.128  0.00  0.00    +0.000 A 
ATOM     17  C   UNL     1       2.279   7.029  20.154  0.00  0.00    +0.000 A 
ATOM     18  C   UNL     1       1.458   8.139  19.951  0.00  0.00    +0.000 A 
ATOM     19  C   UNL     1       1.486   8.838  18.736  0.00  0.00    +0.000 A 
ATOM     20  C   UNL     1       2.331   8.376  17.719  0.00  0.00    +0.000 A 
ATOM     21  C   UNL     1       3.146   7.249  17.915  0.00  0.00    +0.000 A 
BRANCH  16  23
ATOM     22  C   UNL     1       5.260   5.543  18.964  0.00  0.00    +0.000 C 
ATOM     23  O   UNL     1       3.925   5.510  19.465  0.00  0.00    +0.000 OA
ENDBRANCH  16  23
ENDBRANCH   1  19
BRANCH   8  24
ATOM     24  C   UNL     1      -3.506  12.756  19.966  0.00  0.00    +0.000 C 
BRANCH  24  25
ATOM     25  C   UNL     1      -4.818  12.647  20.662  0.00  0.00    +0.000 A 
ATOM     26  C   UNL     1      -5.966  12.077  20.118  0.00  0.00    +0.000 A 
ATOM     27  C   UNL     1      -7.118  11.935  20.908  0.00  0.00    +0.000 A 
ATOM     28  C   UNL     1      -7.144  12.378  22.224  0.00  0.00    +0.000 A 
ATOM     29  C   UNL     1      -6.022  13.003  22.766  0.00  0.00    +0.000 A 
ATOM     30  C   UNL     1      -4.874  13.140  21.991  0.00  0.00    +0.000 A 
ENDBRANCH  24  25
ENDBRANCH   8  24
TORSDOF 4
ENDMDL
MODEL 8
REMARK VINA RESULT:      -7.4      3.898      9.760
REMARK  Name = 
REMARK  5 active torsions:
REMARK  status: ('A' for Active; 'I' for Inactive)
REMARK    1  A    between atoms: C_1  and  O_2
REMARK    2  A    between atoms: O_2  and  C_3
REMARK    3  A    between atoms: C_6  and  C_7
REMARK    4  A    between atoms: N_14  and  C_15
REMARK    5  A    between atoms: C_15  and  C_16
REMARK                            x       y       z     vdW  Elec       q    Type
REMARK                         _______ _______ _______ _____ _____    ______ ____
ROOT
ATOM      1  C   UNL     1       0.741   9.949  18.784  0.00  0.00    +0.000 C 
ATOM      2  N   UNL     1      -0.558   9.911  18.671  0.00  0.00    +0.000 NA
ATOM      3  N   UNL     1      -1.096  11.187  18.787  0.00  0.00    +0.000 N 
ATOM      4  C   UNL     1      -0.204  12.117  19.519  0.00  0.00    +0.000 C 
ATOM      5  S   UNL     1       1.444  11.546  19.045  0.00  0.00    +0.000 S 
ATOM      6  C   UNL     1      -0.509  11.867  21.047  0.00  0.00    +0.000 C 
ATOM      7  O   UNL     1       0.059  11.087  21.802  0.00  0.00    +0.000 OA
ATOM      8  N   UNL     1      -1.402  12.901  21.471  0.00  0.00    +0.000 N 
ATOM      9  C   UNL     1      -0.961  14.011  20.712  0.00  0.00    +0.000 A 
ATOM     10  C   UNL     1      -1.091  15.318  21.143  0.00  0.00    +0.000 A 
ATOM     11  C   UNL     1      -0.647  16.309  20.289  0.00  0.00    +0.000 A 
ATOM     12  C   UNL     1      -0.144  15.963  19.021  0.00  0.00    +0.000 A 
ATOM     13  C   UNL     1      -0.026  14.617  18.604  0.00  0.00    +0.000 A 
ATOM     14  C   UNL     1      -0.404  13.616  19.485  0.00  0.00    +0.000 A 
ATOM     15  H   UNL     1      -1.991  11.084  19.269  0.00  0.00    +0.000 HD
ENDROOT
BRANCH   1  19
ATOM     16  C   UNL     1       3.370   6.533  18.929  0.00  0.00    +0.000 A 
ATOM     17  C   UNL     1       2.515   6.837  20.004  0.00  0.00    +0.000 A 
ATOM     18  C   UNL     1       1.639   7.921  19.928  0.00  0.00    +0.000 A 
ATOM     19  C   UNL     1       1.618   8.746  18.795  0.00  0.00    +0.000 A 
ATOM     20  C   UNL     1       2.471   8.438  17.728  0.00  0.00    +0.000 A 
ATOM     21  C   UNL     1       3.341   7.338  17.796  0.00  0.00    +0.000 A 
BRANCH  16  23
ATOM     22  C   UNL     1       3.647   4.180  19.068  0.00  0.00    +0.000 C 
ATOM     23  O   UNL     1       4.222   5.482  19.143  0.00  0.00    +0.000 OA
ENDBRANCH  16  23
ENDBRANCH   1  19
BRANCH   8  24
ATOM     24  C   UNL     1      -2.857  12.765  21.161  0.00  0.00    +0.000 C 
BRANCH  24  25
ATOM     25  C   UNL     1      -3.862  12.800  22.259  0.00  0.00    +0.000 A 
ATOM     26  C   UNL     1      -5.223  13.045  22.090  0.00  0.00    +0.000 A 
ATOM     27  C   UNL     1      -6.093  12.948  23.188  0.00  0.00    +0.000 A 
ATOM     28  C   UNL     1      -5.617  12.635  24.454  0.00  0.00    +0.000 A 
ATOM     29  C   UNL     1      -4.250  12.444  24.653  0.00  0.00    +0.000 A 
ATOM     30  C   UNL     1      -3.383  12.530  23.567  0.00  0.00    +0.000 A 
ENDBRANCH  24  25
ENDBRANCH   8  24
TORSDOF 4
ENDMDL
MODEL 9
REMARK VINA RESULT:      -7.3      4.513     10.539
REMARK  Name = 
REMARK  5 active torsions:
REMARK  status: ('A' for Active; 'I' for Inactive)
REMARK    1  A    between atoms: C_1  and  O_2
REMARK    2  A    between atoms: O_2  and  C_3
REMARK    3  A    between atoms: C_6  and  C_7
REMARK    4  A    between atoms: N_14  and  C_15
REMARK    5  A    between atoms: C_15  and  C_16
REMARK                            x       y       z     vdW  Elec       q    Type
REMARK                         _______ _______ _______ _____ _____    ______ ____
ROOT
ATOM      1  C   UNL     1      -0.181  10.952  19.247  0.00  0.00    +0.000 C 
ATOM      2  N   UNL     1      -1.414  11.014  18.826  0.00  0.00    +0.000 NA
ATOM      3  N   UNL     1      -1.956  12.267  19.085  0.00  0.00    +0.000 N 
ATOM      4  C   UNL     1      -1.264  12.969  20.191  0.00  0.00    +0.000 C 
ATOM      5  S   UNL     1       0.447  12.416  20.007  0.00  0.00    +0.000 S 
ATOM      6  C   UNL     1      -1.932  12.425  21.512  0.00  0.00    +0.000 C 
ATOM      7  O   UNL     1      -1.569  11.472  22.192  0.00  0.00    +0.000 OA
ATOM      8  N   UNL     1      -2.896  13.397  21.927  0.00  0.00    +0.000 N 
ATOM      9  C   UNL     1      -2.277  14.613  21.553  0.00  0.00    +0.000 A 
ATOM     10  C   UNL     1      -2.501  15.807  22.214  0.00  0.00    +0.000 A 
ATOM     11  C   UNL     1      -1.857  16.927  21.724  0.00  0.00    +0.000 A 
ATOM     12  C   UNL     1      -1.063  16.825  20.566  0.00  0.00    +0.000 A 
ATOM     13  C   UNL     1      -0.855  15.591  19.908  0.00  0.00    +0.000 A 
ATOM     14  C   UNL     1      -1.441  14.452  20.437  0.00  0.00    +0.000 A 
ATOM     15  H   UNL     1      -2.942  12.117  19.308  0.00  0.00    +0.000 HD
ENDROOT
BRANCH   1  19
ATOM     16  C   UNL     1       2.364   7.471  19.211  0.00  0.00    +0.000 A 
ATOM     17  C   UNL     1       1.724   7.889  20.392  0.00  0.00    +0.000 A 
ATOM     18  C   UNL     1       0.870   8.993  20.382  0.00  0.00    +0.000 A 
ATOM     19  C   UNL     1       0.661   9.725  19.205  0.00  0.00    +0.000 A 
ATOM     20  C   UNL     1       1.301   9.303  18.032  0.00  0.00    +0.000 A 
ATOM     21  C   UNL     1       2.147   8.182  18.037  0.00  0.00    +0.000 A 
BRANCH  16  23
ATOM     22  C   UNL     1       2.615   5.133  19.540  0.00  0.00    +0.000 C 
ATOM     23  O   UNL     1       3.221   6.411  19.359  0.00  0.00    +0.000 OA
ENDBRANCH  16  23
ENDBRANCH   1  19
BRANCH   8  24
ATOM     24  C   UNL     1      -4.233  13.413  21.260  0.00  0.00    +0.000 C 
BRANCH  24  25
ATOM     25  C   UNL     1      -5.440  12.945  21.995  0.00  0.00    +0.000 A 
ATOM     26  C   UNL     1      -5.648  13.088  23.364  0.00  0.00    +0.000 A 
ATOM     27  C   UNL     1      -6.873  12.701  23.931  0.00  0.00    +0.000 A 
ATOM     28  C   UNL     1      -7.882  12.151  23.150  0.00  0.00    +0.000 A 
ATOM     29  C   UNL     1      -7.669  11.947  21.787  0.00  0.00    +0.000 A 
ATOM     30  C   UNL     1      -6.460  12.336  21.218  0.00  0.00    +0.000 A 
ENDBRANCH  24  25
ENDBRANCH   8  24
TORSDOF 4
ENDMDL
