MODEL 1
REMARK VINA RESULT:      -9.5      0.000      0.000
REMARK  Name = 
REMARK  11 active torsions:
REMARK  status: ('A' for Active; 'I' for Inactive)
REMARK    1  A    between atoms: C_1  and  O_2
REMARK    2  A    between atoms: O_2  and  C_3
REMARK    3  A    between atoms: C_6  and  O_7
REMARK    4  A    between atoms: O_7  and  C_8
REMARK    5  A    between atoms: C_9  and  N_10
REMARK    6  A    between atoms: C_11  and  C_13
REMARK    7  A    between atoms: C_13  and  N_14
REMARK    8  A    between atoms: N_17  and  C_18
REMARK    9  A    between atoms: C_18  and  C_19
REMARK   10  A    between atoms: N_21  and  C_22
REMARK   11  A    between atoms: C_22  and  C_23
REMARK                            x       y       z     vdW  Elec       q    Type
REMARK                         _______ _______ _______ _____ _____    ______ ____
ROOT
ATOM      1  N   UNL     1       2.161   6.646  20.331  0.00  0.00    +0.000 N 
ATOM      2  C   UNL     1       2.554   6.954  18.999  0.00  0.00    +0.000 A 
ATOM      3  O   UNL     1       2.038   7.846  18.342  0.00  0.00    +0.000 OA
ATOM      4  N   UNL     1       3.409   6.023  18.498  0.00  0.00    +0.000 N 
ATOM      5  C   UNL     1       2.572   5.001  18.071  0.00  0.00    +0.000 A 
ATOM      6  O   UNL     1       2.475   4.593  16.923  0.00  0.00    +0.000 OA
ATOM      7  C   UNL     1       1.869   4.379  19.240  0.00  0.00    +0.000 A 
ATOM      8  C   UNL     1       1.706   2.981  19.112  0.00  0.00    +0.000 A 
ATOM      9  C   UNL     1       1.682   2.226  20.260  0.00  0.00    +0.000 A 
ATOM     10  C   UNL     1       1.776   2.902  21.487  0.00  0.00    +0.000 A 
ATOM     11  C   UNL     1       1.800   4.344  21.607  0.00  0.00    +0.000 A 
ATOM     12  C   UNL     1       1.839   5.154  20.462  0.00  0.00    +0.000 A 
ENDROOT
BRANCH   1  13
ATOM     13  C   UNL     1       1.765   7.899  21.111  0.00  0.00    +0.000 C 
BRANCH  13  15
ATOM     14  N   UNL     1       0.077   9.637  20.016  0.00  0.00    +0.000 N 
ATOM     15  C   UNL     1       0.224   8.594  20.996  0.00  0.00    +0.000 C 
ATOM     16  O   UNL     1      -0.674   8.178  21.724  0.00  0.00    +0.000 OA
ATOM     17  H   UNL     1       0.917   9.840  19.493  0.00  0.00    +0.000 HD
BRANCH  14  22
ATOM     18  C   UNL     1      -2.812  10.851  17.799  0.00  0.00    +0.000 A 
ATOM     19  C   UNL     1      -3.379  11.895  18.508  0.00  0.00    +0.000 A 
ATOM     20  C   UNL     1      -2.807  12.282  19.710  0.00  0.00    +0.000 A 
ATOM     21  C   UNL     1      -1.632  11.638  20.226  0.00  0.00    +0.000 A 
ATOM     22  C   UNL     1      -1.065  10.502  19.583  0.00  0.00    +0.000 A 
ATOM     23  C   UNL     1      -1.700  10.168  18.324  0.00  0.00    +0.000 A 
BRANCH  18  25
ATOM     24  C   UNL     1      -2.799  10.065  15.549  0.00  0.00    +0.000 C 
ATOM     25  O   UNL     1      -3.518  10.566  16.661  0.00  0.00    +0.000 OA
ENDBRANCH  18  25
BRANCH  21  26
ATOM     26  O   UNL     1      -1.051  12.142  21.372  0.00  0.00    +0.000 OA
ATOM     27  C   UNL     1      -1.795  11.934  22.580  0.00  0.00    +0.000 C 
ENDBRANCH  21  26
ENDBRANCH  14  22
ENDBRANCH  13  15
ENDBRANCH   1  13
BRANCH   4  28
ATOM     28  C   UNL     1       4.462   5.605  19.466  0.00  0.00    +0.000 C 
BRANCH  28  29
ATOM     29  C   UNL     1       5.571   4.772  18.897  0.00  0.00    +0.000 C 
ATOM     30  O   UNL     1       5.620   3.563  19.112  0.00  0.00    +0.000 OA
ATOM     31  N   UNL     1       6.460   5.428  18.104  0.00  0.00    +0.000 N 
ATOM     32  H   UNL     1       6.233   6.360  17.753  0.00  0.00    +0.000 HD
BRANCH  31  33
ATOM     33  C   UNL     1       7.437   4.647  17.428  0.00  0.00    +0.000 C 
BRANCH  33  34
ATOM     34  C   UNL     1       7.044   4.474  16.023  0.00  0.00    +0.000 A 
ATOM     35  C   UNL     1       6.102   3.673  15.422  0.00  0.00    +0.000 A 
ATOM     36  C   UNL     1       6.134   3.996  14.048  0.00  0.00    +0.000 A 
ATOM     37  C   UNL     1       7.109   4.954  13.897  0.00  0.00    +0.000 A 
ATOM     38  O   UNL     1       7.670   5.253  15.096  0.00  0.00    +0.000 OA
ENDBRANCH  33  34
ENDBRANCH  31  33
ENDBRANCH  28  29
ENDBRANCH   4  28
TORSDOF 9
ENDMDL
MODEL 2
REMARK VINA RESULT:      -9.0      0.997      2.434
REMARK  Name = 
REMARK  11 active torsions:
REMARK  status: ('A' for Active; 'I' for Inactive)
REMARK    1  A    between atoms: C_1  and  O_2
REMARK    2  A    between atoms: O_2  and  C_3
REMARK    3  A    between atoms: C_6  and  O_7
REMARK    4  A    between atoms: O_7  and  C_8
REMARK    5  A    between atoms: C_9  and  N_10
REMARK    6  A    between atoms: C_11  and  C_13
REMARK    7  A    between atoms: C_13  and  N_14
REMARK    8  A    between atoms: N_17  and  C_18
REMARK    9  A    between atoms: C_18  and  C_19
REMARK   10  A    between atoms: N_21  and  C_22
REMARK   11  A    between atoms: C_22  and  C_23
REMARK                            x       y       z     vdW  Elec       q    Type
REMARK                         _______ _______ _______ _____ _____    ______ ____
ROOT
ATOM      1  N   UNL     1       2.310   6.294  19.961  0.00  0.00    +0.000 N 
ATOM      2  C   UNL     1       2.563   6.451  18.569  0.00  0.00    +0.000 A 
ATOM      3  O   UNL     1       2.095   7.365  17.907  0.00  0.00    +0.000 OA
ATOM      4  N   UNL     1       3.206   5.371  18.049  0.00  0.00    +0.000 N 
ATOM      5  C   UNL     1       2.184   4.460  17.814  0.00  0.00    +0.000 A 
ATOM      6  O   UNL     1       1.880   3.996  16.726  0.00  0.00    +0.000 OA
ATOM      7  C   UNL     1       1.561   4.029  19.108  0.00  0.00    +0.000 A 
ATOM      8  C   UNL     1       1.189   2.666  19.120  0.00  0.00    +0.000 A 
ATOM      9  C   UNL     1       1.211   2.001  20.322  0.00  0.00    +0.000 A 
ATOM     10  C   UNL     1       1.560   2.735  21.467  0.00  0.00    +0.000 A 
ATOM     11  C   UNL     1       1.802   4.162  21.461  0.00  0.00    +0.000 A 
ATOM     12  C   UNL     1       1.803   4.880  20.255  0.00  0.00    +0.000 A 
ENDROOT
BRANCH   1  13
ATOM     13  C   UNL     1       2.200   7.641  20.674  0.00  0.00    +0.000 C 
BRANCH  13  15
ATOM     14  N   UNL     1       0.520   9.627  20.125  0.00  0.00    +0.000 N 
ATOM     15  C   UNL     1       0.720   8.433  20.902  0.00  0.00    +0.000 C 
ATOM     16  O   UNL     1      -0.097   7.957  21.686  0.00  0.00    +0.000 OA
ATOM     17  H   UNL     1       1.291   9.864  19.517  0.00  0.00    +0.000 HD
BRANCH  14  22
ATOM     18  C   UNL     1      -1.903  12.389  21.234  0.00  0.00    +0.000 A 
ATOM     19  C   UNL     1      -2.622  12.700  20.093  0.00  0.00    +0.000 A 
ATOM     20  C   UNL     1      -2.385  11.982  18.931  0.00  0.00    +0.000 A 
ATOM     21  C   UNL     1      -1.426  10.914  18.890  0.00  0.00    +0.000 A 
ATOM     22  C   UNL     1      -0.598  10.615  20.008  0.00  0.00    +0.000 A 
ATOM     23  C   UNL     1      -0.915  11.390  21.191  0.00  0.00    +0.000 A 
BRANCH  18  25
ATOM     24  C   UNL     1      -1.160  13.779  23.022  0.00  0.00    +0.000 C 
ATOM     25  O   UNL     1      -2.224  13.216  22.278  0.00  0.00    +0.000 OA
ENDBRANCH  18  25
BRANCH  21  26
ATOM     26  O   UNL     1      -1.316  10.168  17.734  0.00  0.00    +0.000 OA
ATOM     27  C   UNL     1      -2.552   9.899  17.057  0.00  0.00    +0.000 C 
ENDBRANCH  21  26
ENDBRANCH  14  22
ENDBRANCH  13  15
ENDBRANCH   1  13
BRANCH   4  28
ATOM     28  C   UNL     1       4.308   4.866  18.914  0.00  0.00    +0.000 C 
BRANCH  28  29
ATOM     29  C   UNL     1       5.684   4.954  18.327  0.00  0.00    +0.000 C 
ATOM     30  O   UNL     1       6.632   4.385  18.864  0.00  0.00    +0.000 OA
ATOM     31  N   UNL     1       5.789   5.644  17.159  0.00  0.00    +0.000 N 
ATOM     32  H   UNL     1       4.947   5.873  16.630  0.00  0.00    +0.000 HD
BRANCH  31  33
ATOM     33  C   UNL     1       7.047   5.624  16.496  0.00  0.00    +0.000 C 
BRANCH  33  34
ATOM     34  C   UNL     1       6.901   4.982  15.183  0.00  0.00    +0.000 A 
ATOM     35  C   UNL     1       6.065   3.989  14.731  0.00  0.00    +0.000 A 
ATOM     36  C   UNL     1       6.340   3.842  13.354  0.00  0.00    +0.000 A 
ATOM     37  C   UNL     1       7.343   4.737  13.062  0.00  0.00    +0.000 A 
ATOM     38  O   UNL     1       7.692   5.438  14.170  0.00  0.00    +0.000 OA
ENDBRANCH  33  34
ENDBRANCH  31  33
ENDBRANCH  28  29
ENDBRANCH   4  28
TORSDOF 9
ENDMDL
MODEL 3
REMARK VINA RESULT:      -9.0      0.938      1.094
REMARK  Name = 
REMARK  11 active torsions:
REMARK  status: ('A' for Active; 'I' for Inactive)
REMARK    1  A    between atoms: C_1  and  O_2
REMARK    2  A    between atoms: O_2  and  C_3
REMARK    3  A    between atoms: C_6  and  O_7
REMARK    4  A    between atoms: O_7  and  C_8
REMARK    5  A    between atoms: C_9  and  N_10
REMARK    6  A    between atoms: C_11  and  C_13
REMARK    7  A    between atoms: C_13  and  N_14
REMARK    8  A    between atoms: N_17  and  C_18
REMARK    9  A    between atoms: C_18  and  C_19
REMARK   10  A    between atoms: N_21  and  C_22
REMARK   11  A    between atoms: C_22  and  C_23
REMARK                            x       y       z     vdW  Elec       q    Type
REMARK                         _______ _______ _______ _____ _____    ______ ____
ROOT
ATOM      1  N   UNL     1       2.364   6.476  19.805  0.00  0.00    +0.000 N 
ATOM      2  C   UNL     1       2.598   6.544  18.404  0.00  0.00    +0.000 A 
ATOM      3  O   UNL     1       2.086   7.387  17.683  0.00  0.00    +0.000 OA
ATOM      4  N   UNL     1       3.280   5.456  17.954  0.00  0.00    +0.000 N 
ATOM      5  C   UNL     1       2.295   4.490  17.796  0.00  0.00    +0.000 A 
ATOM      6  O   UNL     1       2.001   3.937  16.748  0.00  0.00    +0.000 OA
ATOM      7  C   UNL     1       1.702   4.127  19.125  0.00  0.00    +0.000 A 
ATOM      8  C   UNL     1       1.388   2.755  19.239  0.00  0.00    +0.000 A 
ATOM      9  C   UNL     1       1.448   2.179  20.485  0.00  0.00    +0.000 A 
ATOM     10  C   UNL     1       1.776   3.006  21.570  0.00  0.00    +0.000 A 
ATOM     11  C   UNL     1       1.959   4.438  21.460  0.00  0.00    +0.000 A 
ATOM     12  C   UNL     1       1.918   5.067  20.206  0.00  0.00    +0.000 A 
ENDROOT
BRANCH   1  13
ATOM     13  C   UNL     1       2.204   7.865  20.422  0.00  0.00    +0.000 C 
BRANCH  13  15
ATOM     14  N   UNL     1       0.386   9.555  19.470  0.00  0.00    +0.000 N 
ATOM     15  C   UNL     1       0.704   8.644  20.537  0.00  0.00    +0.000 C 
ATOM     16  O   UNL     1      -0.028   8.392  21.490  0.00  0.00    +0.000 OA
ATOM     17  H   UNL     1       1.098   9.628  18.757  0.00  0.00    +0.000 HD
BRANCH  14  22
ATOM     18  C   UNL     1      -2.613  10.912  17.495  0.00  0.00    +0.000 A 
ATOM     19  C   UNL     1      -3.170  11.869  18.324  0.00  0.00    +0.000 A 
ATOM     20  C   UNL     1      -2.558  12.151  19.535  0.00  0.00    +0.000 A 
ATOM     21  C   UNL     1      -1.351  11.487  19.939  0.00  0.00    +0.000 A 
ATOM     22  C   UNL     1      -0.788  10.432  19.168  0.00  0.00    +0.000 A 
ATOM     23  C   UNL     1      -1.468  10.207  17.907  0.00  0.00    +0.000 A 
BRANCH  18  25
ATOM     24  C   UNL     1      -2.840   9.856  15.370  0.00  0.00    +0.000 C 
ATOM     25  O   UNL     1      -3.359  10.723  16.363  0.00  0.00    +0.000 OA
ENDBRANCH  18  25
BRANCH  21  26
ATOM     26  O   UNL     1      -0.733  11.891  21.106  0.00  0.00    +0.000 OA
ATOM     27  C   UNL     1       0.340  12.829  20.939  0.00  0.00    +0.000 C 
ENDBRANCH  21  26
ENDBRANCH  14  22
ENDBRANCH  13  15
ENDBRANCH   1  13
BRANCH   4  28
ATOM     28  C   UNL     1       4.410   5.060  18.839  0.00  0.00    +0.000 C 
BRANCH  28  29
ATOM     29  C   UNL     1       5.761   5.024  18.190  0.00  0.00    +0.000 C 
ATOM     30  O   UNL     1       6.735   4.580  18.793  0.00  0.00    +0.000 OA
ATOM     31  N   UNL     1       5.811   5.457  16.901  0.00  0.00    +0.000 N 
ATOM     32  H   UNL     1       4.946   5.570  16.371  0.00  0.00    +0.000 HD
BRANCH  31  33
ATOM     33  C   UNL     1       7.041   5.300  16.204  0.00  0.00    +0.000 C 
BRANCH  33  34
ATOM     34  C   UNL     1       6.778   4.806  14.847  0.00  0.00    +0.000 A 
ATOM     35  C   UNL     1       7.445   4.981  13.657  0.00  0.00    +0.000 A 
ATOM     36  C   UNL     1       6.755   4.202  12.703  0.00  0.00    +0.000 A 
ATOM     37  C   UNL     1       5.698   3.623  13.366  0.00  0.00    +0.000 A 
ATOM     38  O   UNL     1       5.703   3.985  14.674  0.00  0.00    +0.000 OA
ENDBRANCH  33  34
ENDBRANCH  31  33
ENDBRANCH  28  29
ENDBRANCH   4  28
TORSDOF 9
ENDMDL
MODEL 4
REMARK VINA RESULT:      -8.7      5.022      8.803
REMARK  Name = 
REMARK  11 active torsions:
REMARK  status: ('A' for Active; 'I' for Inactive)
REMARK    1  A    between atoms: C_1  and  O_2
REMARK    2  A    between atoms: O_2  and  C_3
REMARK    3  A    between atoms: C_6  and  O_7
REMARK    4  A    between atoms: O_7  and  C_8
REMARK    5  A    between atoms: C_9  and  N_10
REMARK    6  A    between atoms: C_11  and  C_13
REMARK    7  A    between atoms: C_13  and  N_14
REMARK    8  A    between atoms: N_17  and  C_18
REMARK    9  A    between atoms: C_18  and  C_19
REMARK   10  A    between atoms: N_21  and  C_22
REMARK   11  A    between atoms: C_22  and  C_23
REMARK                            x       y       z     vdW  Elec       q    Type
REMARK                         _______ _______ _______ _____ _____    ______ ____
ROOT
ATOM      1  N   UNL     1       7.016   6.125  17.947  0.00  0.00    +0.000 N 
ATOM      2  C   UNL     1       6.185   5.606  18.978  0.00  0.00    +0.000 A 
ATOM      3  O   UNL     1       6.615   5.256  20.067  0.00  0.00    +0.000 OA
ATOM      4  N   UNL     1       4.922   5.366  18.534  0.00  0.00    +0.000 N 
ATOM      5  C   UNL     1       5.018   4.126  17.915  0.00  0.00    +0.000 A 
ATOM      6  O   UNL     1       4.405   3.120  18.238  0.00  0.00    +0.000 OA
ATOM      7  C   UNL     1       5.907   4.211  16.711  0.00  0.00    +0.000 A 
ATOM      8  C   UNL     1       5.466   3.407  15.636  0.00  0.00    +0.000 A 
ATOM      9  C   UNL     1       5.752   3.824  14.358  0.00  0.00    +0.000 A 
ATOM     10  C   UNL     1       6.502   5.001  14.208  0.00  0.00    +0.000 A 
ATOM     11  C   UNL     1       7.066   5.738  15.319  0.00  0.00    +0.000 A 
ATOM     12  C   UNL     1       6.791   5.356  16.641  0.00  0.00    +0.000 A 
ENDROOT
BRANCH   1  13
ATOM     13  C   UNL     1       8.160   6.968  18.509  0.00  0.00    +0.000 C 
BRANCH  13  15
ATOM     14  N   UNL     1       9.181   9.350  19.101  0.00  0.00    +0.000 N 
ATOM     15  C   UNL     1       8.282   8.635  18.235  0.00  0.00    +0.000 C 
ATOM     16  O   UNL     1       7.628   9.140  17.326  0.00  0.00    +0.000 OA
ATOM     17  H   UNL     1       9.651   8.772  19.784  0.00  0.00    +0.000 HD
BRANCH  14  22
ATOM     18  C   UNL     1      10.634  12.725  17.994  0.00  0.00    +0.000 A 
ATOM     19  C   UNL     1      10.399  13.572  19.062  0.00  0.00    +0.000 A 
ATOM     20  C   UNL     1       9.809  13.063  20.209  0.00  0.00    +0.000 A 
ATOM     21  C   UNL     1       9.454  11.676  20.319  0.00  0.00    +0.000 A 
ATOM     22  C   UNL     1       9.590  10.784  19.219  0.00  0.00    +0.000 A 
ATOM     23  C   UNL     1      10.233  11.380  18.063  0.00  0.00    +0.000 A 
BRANCH  18  25
ATOM     24  C   UNL     1      11.303  14.797  17.025  0.00  0.00    +0.000 C 
ATOM     25  O   UNL     1      11.180  13.390  16.929  0.00  0.00    +0.000 OA
ENDBRANCH  18  25
BRANCH  21  26
ATOM     26  O   UNL     1       8.970  11.211  21.525  0.00  0.00    +0.000 OA
ATOM     27  C   UNL     1       8.550  12.224  22.450  0.00  0.00    +0.000 C 
ENDBRANCH  21  26
ENDBRANCH  14  22
ENDBRANCH  13  15
ENDBRANCH   1  13
BRANCH   4  28
ATOM     28  C   UNL     1       4.381   6.454  17.672  0.00  0.00    +0.000 C 
BRANCH  28  29
ATOM     29  C   UNL     1       3.006   6.937  18.025  0.00  0.00    +0.000 C 
ATOM     30  O   UNL     1       2.245   6.234  18.685  0.00  0.00    +0.000 OA
ATOM     31  N   UNL     1       2.698   8.198  17.617  0.00  0.00    +0.000 N 
ATOM     32  H   UNL     1       3.440   8.824  17.304  0.00  0.00    +0.000 HD
BRANCH  31  33
ATOM     33  C   UNL     1       1.462   8.746  18.059  0.00  0.00    +0.000 C 
BRANCH  33  34
ATOM     34  C   UNL     1       1.626  10.182  18.321  0.00  0.00    +0.000 A 
ATOM     35  C   UNL     1       1.043  11.024  19.238  0.00  0.00    +0.000 A 
ATOM     36  C   UNL     1       1.652  12.284  19.056  0.00  0.00    +0.000 A 
ATOM     37  C   UNL     1       2.549  12.135  18.023  0.00  0.00    +0.000 A 
ATOM     38  O   UNL     1       2.541  10.857  17.569  0.00  0.00    +0.000 OA
ENDBRANCH  33  34
ENDBRANCH  31  33
ENDBRANCH  28  29
ENDBRANCH   4  28
TORSDOF 9
ENDMDL
MODEL 5
REMARK VINA RESULT:      -8.6      3.533      9.938
REMARK  Name = 
REMARK  11 active torsions:
REMARK  status: ('A' for Active; 'I' for Inactive)
REMARK    1  A    between atoms: C_1  and  O_2
REMARK    2  A    between atoms: O_2  and  C_3
REMARK    3  A    between atoms: C_6  and  O_7
REMARK    4  A    between atoms: O_7  and  C_8
REMARK    5  A    between atoms: C_9  and  N_10
REMARK    6  A    between atoms: C_11  and  C_13
REMARK    7  A    between atoms: C_13  and  N_14
REMARK    8  A    between atoms: N_17  and  C_18
REMARK    9  A    between atoms: C_18  and  C_19
REMARK   10  A    between atoms: N_21  and  C_22
REMARK   11  A    between atoms: C_22  and  C_23
REMARK                            x       y       z     vdW  Elec       q    Type
REMARK                         _______ _______ _______ _____ _____    ______ ____
ROOT
ATOM      1  N   UNL     1      -0.132  10.519  19.273  0.00  0.00    +0.000 N 
ATOM      2  C   UNL     1      -0.371  11.486  20.289  0.00  0.00    +0.000 A 
ATOM      3  O   UNL     1      -0.235  11.248  21.480  0.00  0.00    +0.000 OA
ATOM      4  N   UNL     1      -0.949  12.611  19.789  0.00  0.00    +0.000 N 
ATOM      5  C   UNL     1      -2.296  12.284  19.710  0.00  0.00    +0.000 A 
ATOM      6  O   UNL     1      -3.203  12.854  20.297  0.00  0.00    +0.000 OA
ATOM      7  C   UNL     1      -2.509  11.188  18.709  0.00  0.00    +0.000 A 
ATOM      8  C   UNL     1      -3.703  11.335  17.968  0.00  0.00    +0.000 A 
ATOM      9  C   UNL     1      -3.733  10.844  16.685  0.00  0.00    +0.000 A 
ATOM     10  C   UNL     1      -2.585  10.188  16.212  0.00  0.00    +0.000 A 
ATOM     11  C   UNL     1      -1.421   9.921  17.029  0.00  0.00    +0.000 A 
ATOM     12  C   UNL     1      -1.342  10.414  18.340  0.00  0.00    +0.000 A 
ENDROOT
BRANCH   1  13
ATOM     13  C   UNL     1       1.025   9.589  19.635  0.00  0.00    +0.000 C 
BRANCH  13  15
ATOM     14  N   UNL     1       2.251   7.349  18.896  0.00  0.00    +0.000 N 
ATOM     15  C   UNL     1       1.846   8.664  18.477  0.00  0.00    +0.000 C 
ATOM     16  O   UNL     1       2.039   9.139  17.361  0.00  0.00    +0.000 OA
ATOM     17  H   UNL     1       1.995   7.114  19.845  0.00  0.00    +0.000 HD
BRANCH  14  22
ATOM     18  C   UNL     1       2.919   3.751  17.739  0.00  0.00    +0.000 A 
ATOM     19  C   UNL     1       4.055   3.843  16.955  0.00  0.00    +0.000 A 
ATOM     20  C   UNL     1       4.682   5.072  16.818  0.00  0.00    +0.000 A 
ATOM     21  C   UNL     1       4.190   6.244  17.485  0.00  0.00    +0.000 A 
ATOM     22  C   UNL     1       2.977   6.223  18.228  0.00  0.00    +0.000 A 
ATOM     23  C   UNL     1       2.389   4.903  18.345  0.00  0.00    +0.000 A 
BRANCH  18  25
ATOM     24  C   UNL     1       3.171   1.455  18.330  0.00  0.00    +0.000 C 
ATOM     25  O   UNL     1       2.400   2.483  17.735  0.00  0.00    +0.000 OA
ENDBRANCH  18  25
BRANCH  21  26
ATOM     26  O   UNL     1       4.921   7.411  17.395  0.00  0.00    +0.000 OA
ATOM     27  C   UNL     1       6.335   7.239  17.225  0.00  0.00    +0.000 C 
ENDBRANCH  21  26
ENDBRANCH  14  22
ENDBRANCH  13  15
ENDBRANCH   1  13
BRANCH   4  28
ATOM     28  C   UNL     1      -0.341  13.069  18.509  0.00  0.00    +0.000 C 
BRANCH  28  29
ATOM     29  C   UNL     1       0.693  14.147  18.631  0.00  0.00    +0.000 C 
ATOM     30  O   UNL     1       1.827  13.983  18.187  0.00  0.00    +0.000 OA
ATOM     31  N   UNL     1       0.274  15.308  19.204  0.00  0.00    +0.000 N 
ATOM     32  H   UNL     1      -0.724  15.484  19.319  0.00  0.00    +0.000 HD
BRANCH  31  33
ATOM     33  C   UNL     1       1.181  16.404  19.204  0.00  0.00    +0.000 C 
BRANCH  33  34
ATOM     34  C   UNL     1       0.835  17.329  18.117  0.00  0.00    +0.000 A 
ATOM     35  C   UNL     1       1.575  17.857  17.086  0.00  0.00    +0.000 A 
ATOM     36  C   UNL     1       0.679  18.631  16.317  0.00  0.00    +0.000 A 
ATOM     37  C   UNL     1      -0.543  18.544  16.942  0.00  0.00    +0.000 A 
ATOM     38  O   UNL     1      -0.459  17.752  18.040  0.00  0.00    +0.000 OA
ENDBRANCH  33  34
ENDBRANCH  31  33
ENDBRANCH  28  29
ENDBRANCH   4  28
TORSDOF 9
ENDMDL
MODEL 6
REMARK VINA RESULT:      -8.5      1.670      2.519
REMARK  Name = 
REMARK  11 active torsions:
REMARK  status: ('A' for Active; 'I' for Inactive)
REMARK    1  A    between atoms: C_1  and  O_2
REMARK    2  A    between atoms: O_2  and  C_3
REMARK    3  A    between atoms: C_6  and  O_7
REMARK    4  A    between atoms: O_7  and  C_8
REMARK    5  A    between atoms: C_9  and  N_10
REMARK    6  A    between atoms: C_11  and  C_13
REMARK    7  A    between atoms: C_13  and  N_14
REMARK    8  A    between atoms: N_17  and  C_18
REMARK    9  A    between atoms: C_18  and  C_19
REMARK   10  A    between atoms: N_21  and  C_22
REMARK   11  A    between atoms: C_22  and  C_23
REMARK                            x       y       z     vdW  Elec       q    Type
REMARK                         _______ _______ _______ _____ _____    ______ ____
ROOT
ATOM      1  N   UNL     1       2.135   6.542  20.416  0.00  0.00    +0.000 N 
ATOM      2  C   UNL     1       2.598   6.949  19.134  0.00  0.00    +0.000 A 
ATOM      3  O   UNL     1       2.155   7.923  18.544  0.00  0.00    +0.000 OA
ATOM      4  N   UNL     1       3.426   6.022  18.580  0.00  0.00    +0.000 N 
ATOM      5  C   UNL     1       2.557   5.090  18.028  0.00  0.00    +0.000 A 
ATOM      6  O   UNL     1       2.487   4.794  16.845  0.00  0.00    +0.000 OA
ATOM      7  C   UNL     1       1.776   4.402  19.108  0.00  0.00    +0.000 A 
ATOM      8  C   UNL     1       1.549   3.033  18.845  0.00  0.00    +0.000 A 
ATOM      9  C   UNL     1       1.439   2.179  19.915  0.00  0.00    +0.000 A 
ATOM     10  C   UNL     1       1.516   2.734  21.203  0.00  0.00    +0.000 A 
ATOM     11  C   UNL     1       1.608   4.155  21.458  0.00  0.00    +0.000 A 
ATOM     12  C   UNL     1       1.734   5.064  20.395  0.00  0.00    +0.000 A 
ENDROOT
BRANCH   1  13
ATOM     13  C   UNL     1       1.770   7.738  21.294  0.00  0.00    +0.000 C 
BRANCH  13  15
ATOM     14  N   UNL     1       1.118  10.026  20.109  0.00  0.00    +0.000 N 
ATOM     15  C   UNL     1       0.616   8.889  20.832  0.00  0.00    +0.000 C 
ATOM     16  O   UNL     1      -0.564   8.697  21.115  0.00  0.00    +0.000 OA
ATOM     17  H   UNL     1       2.115  10.013  19.949  0.00  0.00    +0.000 HD
BRANCH  14  22
ATOM     18  C   UNL     1       0.733  13.736  19.202  0.00  0.00    +0.000 A 
ATOM     19  C   UNL     1      -0.407  13.786  18.420  0.00  0.00    +0.000 A 
ATOM     20  C   UNL     1      -1.128  12.622  18.204  0.00  0.00    +0.000 A 
ATOM     21  C   UNL     1      -0.730  11.372  18.788  0.00  0.00    +0.000 A 
ATOM     22  C   UNL     1       0.482  11.248  19.523  0.00  0.00    +0.000 A 
ATOM     23  C   UNL     1       1.171  12.507  19.726  0.00  0.00    +0.000 A 
BRANCH  18  25
ATOM     24  C   UNL     1       2.764  14.977  19.325  0.00  0.00    +0.000 C 
ATOM     25  O   UNL     1       1.349  14.956  19.282  0.00  0.00    +0.000 OA
ENDBRANCH  18  25
BRANCH  21  26
ATOM     26  O   UNL     1      -1.550  10.274  18.623  0.00  0.00    +0.000 OA
ATOM     27  C   UNL     1      -1.654   9.782  17.280  0.00  0.00    +0.000 C 
ENDBRANCH  21  26
ENDBRANCH  14  22
ENDBRANCH  13  15
ENDBRANCH   1  13
BRANCH   4  28
ATOM     28  C   UNL     1       4.415   5.463  19.542  0.00  0.00    +0.000 C 
BRANCH  28  29
ATOM     29  C   UNL     1       5.545   4.688  18.933  0.00  0.00    +0.000 C 
ATOM     30  O   UNL     1       5.635   3.474  19.102  0.00  0.00    +0.000 OA
ATOM     31  N   UNL     1       6.403   5.402  18.156  0.00  0.00    +0.000 N 
ATOM     32  H   UNL     1       6.143   6.338  17.842  0.00  0.00    +0.000 HD
BRANCH  31  33
ATOM     33  C   UNL     1       7.398   4.679  17.442  0.00  0.00    +0.000 C 
BRANCH  33  34
ATOM     34  C   UNL     1       6.978   4.510  16.046  0.00  0.00    +0.000 A 
ATOM     35  C   UNL     1       5.954   3.793  15.472  0.00  0.00    +0.000 A 
ATOM     36  C   UNL     1       6.007   4.074  14.089  0.00  0.00    +0.000 A 
ATOM     37  C   UNL     1       7.073   4.923  13.906  0.00  0.00    +0.000 A 
ATOM     38  O   UNL     1       7.672   5.196  15.093  0.00  0.00    +0.000 OA
ENDBRANCH  33  34
ENDBRANCH  31  33
ENDBRANCH  28  29
ENDBRANCH   4  28
TORSDOF 9
ENDMDL
MODEL 7
REMARK VINA RESULT:      -8.4      1.814      3.151
REMARK  Name = 
REMARK  11 active torsions:
REMARK  status: ('A' for Active; 'I' for Inactive)
REMARK    1  A    between atoms: C_1  and  O_2
REMARK    2  A    between atoms: O_2  and  C_3
REMARK    3  A    between atoms: C_6  and  O_7
REMARK    4  A    between atoms: O_7  and  C_8
REMARK    5  A    between atoms: C_9  and  N_10
REMARK    6  A    between atoms: C_11  and  C_13
REMARK    7  A    between atoms: C_13  and  N_14
REMARK    8  A    between atoms: N_17  and  C_18
REMARK    9  A    between atoms: C_18  and  C_19
REMARK   10  A    between atoms: N_21  and  C_22
REMARK   11  A    between atoms: C_22  and  C_23
REMARK                            x       y       z     vdW  Elec       q    Type
REMARK                         _______ _______ _______ _____ _____    ______ ____
ROOT
ATOM      1  N   UNL     1       2.338   6.226  19.791  0.00  0.00    +0.000 N 
ATOM      2  C   UNL     1       2.662   6.304  18.408  0.00  0.00    +0.000 A 
ATOM      3  O   UNL     1       2.261   7.199  17.679  0.00  0.00    +0.000 OA
ATOM      4  N   UNL     1       3.286   5.176  17.972  0.00  0.00    +0.000 N 
ATOM      5  C   UNL     1       2.242   4.292  17.732  0.00  0.00    +0.000 A 
ATOM      6  O   UNL     1       1.972   3.786  16.654  0.00  0.00    +0.000 OA
ATOM      7  C   UNL     1       1.543   3.950  19.013  0.00  0.00    +0.000 A 
ATOM      8  C   UNL     1       1.118   2.604  19.074  0.00  0.00    +0.000 A 
ATOM      9  C   UNL     1       1.057   2.000  20.306  0.00  0.00    +0.000 A 
ATOM     10  C   UNL     1       1.380   2.777  21.430  0.00  0.00    +0.000 A 
ATOM     11  C   UNL     1       1.678   4.192  21.366  0.00  0.00    +0.000 A 
ATOM     12  C   UNL     1       1.763   4.848  20.128  0.00  0.00    +0.000 A 
ENDROOT
BRANCH   1  13
ATOM     13  C   UNL     1       2.247   7.611  20.431  0.00  0.00    +0.000 C 
BRANCH  13  15
ATOM     14  N   UNL     1       0.506   9.533  19.845  0.00  0.00    +0.000 N 
ATOM     15  C   UNL     1       0.770   8.399  20.690  0.00  0.00    +0.000 C 
ATOM     16  O   UNL     1       0.007   7.970  21.552  0.00  0.00    +0.000 OA
ATOM     17  H   UNL     1       1.238   9.736  19.177  0.00  0.00    +0.000 HD
BRANCH  14  22
ATOM     18  C   UNL     1      -1.880  12.351  20.891  0.00  0.00    +0.000 A 
ATOM     19  C   UNL     1      -2.677  12.561  19.780  0.00  0.00    +0.000 A 
ATOM     20  C   UNL     1      -2.507  11.754  18.666  0.00  0.00    +0.000 A 
ATOM     21  C   UNL     1      -1.537  10.696  18.645  0.00  0.00    +0.000 A 
ATOM     22  C   UNL     1      -0.631  10.497  19.725  0.00  0.00    +0.000 A 
ATOM     23  C   UNL     1      -0.882  11.362  20.862  0.00  0.00    +0.000 A 
BRANCH  18  25
ATOM     24  C   UNL     1      -1.619  12.990  23.172  0.00  0.00    +0.000 C 
ATOM     25  O   UNL     1      -2.143  13.256  21.884  0.00  0.00    +0.000 OA
ENDBRANCH  18  25
BRANCH  21  26
ATOM     26  O   UNL     1      -1.493   9.861  17.548  0.00  0.00    +0.000 OA
ATOM     27  C   UNL     1      -2.394  10.197  16.483  0.00  0.00    +0.000 C 
ENDBRANCH  21  26
ENDBRANCH  14  22
ENDBRANCH  13  15
ENDBRANCH   1  13
BRANCH   4  28
ATOM     28  C   UNL     1       4.326   4.675  18.913  0.00  0.00    +0.000 C 
BRANCH  28  29
ATOM     29  C   UNL     1       5.742   4.797  18.439  0.00  0.00    +0.000 C 
ATOM     30  O   UNL     1       6.064   4.407  17.319  0.00  0.00    +0.000 OA
ATOM     31  N   UNL     1       6.605   5.406  19.296  0.00  0.00    +0.000 N 
ATOM     32  H   UNL     1       6.241   5.934  20.090  0.00  0.00    +0.000 HD
BRANCH  31  33
ATOM     33  C   UNL     1       7.920   5.673  18.824  0.00  0.00    +0.000 C 
BRANCH  33  34
ATOM     34  C   UNL     1       8.019   7.080  18.412  0.00  0.00    +0.000 A 
ATOM     35  C   UNL     1       7.427   7.784  17.390  0.00  0.00    +0.000 A 
ATOM     36  C   UNL     1       7.852   9.122  17.541  0.00  0.00    +0.000 A 
ATOM     37  C   UNL     1       8.694   9.142  18.629  0.00  0.00    +0.000 A 
ATOM     38  O   UNL     1       8.802   7.902  19.168  0.00  0.00    +0.000 OA
ENDBRANCH  33  34
ENDBRANCH  31  33
ENDBRANCH  28  29
ENDBRANCH   4  28
TORSDOF 9
ENDMDL
MODEL 8
REMARK VINA RESULT:      -8.3      3.751      9.126
REMARK  Name = 
REMARK  11 active torsions:
REMARK  status: ('A' for Active; 'I' for Inactive)
REMARK    1  A    between atoms: C_1  and  O_2
REMARK    2  A    between atoms: O_2  and  C_3
REMARK    3  A    between atoms: C_6  and  O_7
REMARK    4  A    between atoms: O_7  and  C_8
REMARK    5  A    between atoms: C_9  and  N_10
REMARK    6  A    between atoms: C_11  and  C_13
REMARK    7  A    between atoms: C_13  and  N_14
REMARK    8  A    between atoms: N_17  and  C_18
REMARK    9  A    between atoms: C_18  and  C_19
REMARK   10  A    between atoms: N_21  and  C_22
REMARK   11  A    between atoms: C_22  and  C_23
REMARK                            x       y       z     vdW  Elec       q    Type
REMARK                         _______ _______ _______ _____ _____    ______ ____
ROOT
ATOM      1  N   UNL     1       0.401  10.240  19.613  0.00  0.00    +0.000 N 
ATOM      2  C   UNL     1       0.481  11.164  20.691  0.00  0.00    +0.000 A 
ATOM      3  O   UNL     1       0.706  10.826  21.843  0.00  0.00    +0.000 OA
ATOM      4  N   UNL     1       0.085  12.411  20.317  0.00  0.00    +0.000 N 
ATOM      5  C   UNL     1      -1.300  12.356  20.399  0.00  0.00    +0.000 A 
ATOM      6  O   UNL     1      -1.999  13.050  21.121  0.00  0.00    +0.000 OA
ATOM      7  C   UNL     1      -1.845  11.391  19.388  0.00  0.00    +0.000 A 
ATOM      8  C   UNL     1      -3.064  11.815  18.814  0.00  0.00    +0.000 A 
ATOM      9  C   UNL     1      -3.342  11.426  17.526  0.00  0.00    +0.000 A 
ATOM     10  C   UNL     1      -2.413  10.594  16.882  0.00  0.00    +0.000 A 
ATOM     11  C   UNL     1      -1.237  10.053  17.530  0.00  0.00    +0.000 A 
ATOM     12  C   UNL     1      -0.907  10.433  18.840  0.00  0.00    +0.000 A 
ENDROOT
BRANCH   1  13
ATOM     13  C   UNL     1       1.382   9.081  19.784  0.00  0.00    +0.000 C 
BRANCH  13  15
ATOM     14  N   UNL     1       2.630   6.983  18.730  0.00  0.00    +0.000 N 
ATOM     15  C   UNL     1       2.099   8.294  18.466  0.00  0.00    +0.000 C 
ATOM     16  O   UNL     1       2.120   8.856  17.374  0.00  0.00    +0.000 OA
ATOM     17  H   UNL     1       2.511   6.668  19.683  0.00  0.00    +0.000 HD
BRANCH  14  22
ATOM     18  C   UNL     1       5.174   5.587  16.218  0.00  0.00    +0.000 A 
ATOM     19  C   UNL     1       4.963   4.220  16.233  0.00  0.00    +0.000 A 
ATOM     20  C   UNL     1       3.945   3.703  17.020  0.00  0.00    +0.000 A 
ATOM     21  C   UNL     1       3.094   4.555  17.803  0.00  0.00    +0.000 A 
ATOM     22  C   UNL     1       3.326   5.956  17.894  0.00  0.00    +0.000 A 
ATOM     23  C   UNL     1       4.392   6.427  17.030  0.00  0.00    +0.000 A 
BRANCH  18  25
ATOM     24  C   UNL     1       7.062   4.882  14.947  0.00  0.00    +0.000 C 
ATOM     25  O   UNL     1       6.239   5.928  15.428  0.00  0.00    +0.000 OA
ENDBRANCH  18  25
BRANCH  21  26
ATOM     26  O   UNL     1       2.032   3.989  18.478  0.00  0.00    +0.000 OA
ATOM     27  C   UNL     1       1.829   2.589  18.240  0.00  0.00    +0.000 C 
ENDBRANCH  21  26
ENDBRANCH  14  22
ENDBRANCH  13  15
ENDBRANCH   1  13
BRANCH   4  28
ATOM     28  C   UNL     1       0.617  12.827  18.990  0.00  0.00    +0.000 C 
BRANCH  28  29
ATOM     29  C   UNL     1       1.405  14.102  18.978  0.00  0.00    +0.000 C 
ATOM     30  O   UNL     1       0.874  15.164  18.663  0.00  0.00    +0.000 OA
ATOM     31  N   UNL     1       2.700  14.004  19.385  0.00  0.00    +0.000 N 
ATOM     32  H   UNL     1       3.014  13.165  19.873  0.00  0.00    +0.000 HD
BRANCH  31  33
ATOM     33  C   UNL     1       3.435  15.212  19.529  0.00  0.00    +0.000 C 
BRANCH  33  34
ATOM     34  C   UNL     1       4.799  15.023  19.021  0.00  0.00    +0.000 A 
ATOM     35  C   UNL     1       5.281  14.687  17.777  0.00  0.00    +0.000 A 
ATOM     36  C   UNL     1       6.688  14.724  17.879  0.00  0.00    +0.000 A 
ATOM     37  C   UNL     1       6.974  15.055  19.183  0.00  0.00    +0.000 A 
ATOM     38  O   UNL     1       5.829  15.240  19.887  0.00  0.00    +0.000 OA
ENDBRANCH  33  34
ENDBRANCH  31  33
ENDBRANCH  28  29
ENDBRANCH   4  28
TORSDOF 9
ENDMDL
MODEL 9
REMARK VINA RESULT:      -8.3      3.640      9.228
REMARK  Name = 
REMARK  11 active torsions:
REMARK  status: ('A' for Active; 'I' for Inactive)
REMARK    1  A    between atoms: C_1  and  O_2
REMARK    2  A    between atoms: O_2  and  C_3
REMARK    3  A    between atoms: C_6  and  O_7
REMARK    4  A    between atoms: O_7  and  C_8
REMARK    5  A    between atoms: C_9  and  N_10
REMARK    6  A    between atoms: C_11  and  C_13
REMARK    7  A    between atoms: C_13  and  N_14
REMARK    8  A    between atoms: N_17  and  C_18
REMARK    9  A    between atoms: C_18  and  C_19
REMARK   10  A    between atoms: N_21  and  C_22
REMARK   11  A    between atoms: C_22  and  C_23
REMARK                            x       y       z     vdW  Elec       q    Type
REMARK                         _______ _______ _______ _____ _____    ______ ____
ROOT
ATOM      1  N   UNL     1      -0.087  10.641  19.338  0.00  0.00    +0.000 N 
ATOM      2  C   UNL     1      -0.313  11.597  20.367  0.00  0.00    +0.000 A 
ATOM      3  O   UNL     1      -0.133  11.356  21.551  0.00  0.00    +0.000 OA
ATOM      4  N   UNL     1      -0.932  12.711  19.892  0.00  0.00    +0.000 N 
ATOM      5  C   UNL     1      -2.274  12.354  19.856  0.00  0.00    +0.000 A 
ATOM      6  O   UNL     1      -3.173  12.901  20.476  0.00  0.00    +0.000 OA
ATOM      7  C   UNL     1      -2.496  11.258  18.857  0.00  0.00    +0.000 A 
ATOM      8  C   UNL     1      -3.717  11.381  18.157  0.00  0.00    +0.000 A 
ATOM      9  C   UNL     1      -3.778  10.896  16.873  0.00  0.00    +0.000 A 
ATOM     10  C   UNL     1      -2.633  10.268  16.359  0.00  0.00    +0.000 A 
ATOM     11  C   UNL     1      -1.436  10.024  17.135  0.00  0.00    +0.000 A 
ATOM     12  C   UNL     1      -1.324  10.513  18.446  0.00  0.00    +0.000 A 
ENDROOT
BRANCH   1  13
ATOM     13  C   UNL     1       1.102   9.735  19.656  0.00  0.00    +0.000 C 
BRANCH  13  15
ATOM     14  N   UNL     1       2.181   7.422  18.910  0.00  0.00    +0.000 N 
ATOM     15  C   UNL     1       1.838   8.754  18.487  0.00  0.00    +0.000 C 
ATOM     16  O   UNL     1       2.027   9.207  17.361  0.00  0.00    +0.000 OA
ATOM     17  H   UNL     1       1.937   7.212  19.868  0.00  0.00    +0.000 HD
BRANCH  14  22
ATOM     18  C   UNL     1       2.555   3.809  17.672  0.00  0.00    +0.000 A 
ATOM     19  C   UNL     1       3.724   3.814  16.932  0.00  0.00    +0.000 A 
ATOM     20  C   UNL     1       4.467   4.982  16.854  0.00  0.00    +0.000 A 
ATOM     21  C   UNL     1       4.062   6.178  17.538  0.00  0.00    +0.000 A 
ATOM     22  C   UNL     1       2.824   6.252  18.235  0.00  0.00    +0.000 A 
ATOM     23  C   UNL     1       2.112   4.989  18.292  0.00  0.00    +0.000 A 
BRANCH  18  25
ATOM     24  C   UNL     1       1.203   2.173  18.756  0.00  0.00    +0.000 C 
ATOM     25  O   UNL     1       1.921   2.597  17.612  0.00  0.00    +0.000 OA
ENDBRANCH  18  25
BRANCH  21  26
ATOM     26  O   UNL     1       4.901   7.273  17.508  0.00  0.00    +0.000 OA
ATOM     27  C   UNL     1       6.277   6.985  17.223  0.00  0.00    +0.000 C 
ENDBRANCH  21  26
ENDBRANCH  14  22
ENDBRANCH  13  15
ENDBRANCH   1  13
BRANCH   4  28
ATOM     28  C   UNL     1      -0.378  13.188  18.595  0.00  0.00    +0.000 C 
BRANCH  28  29
ATOM     29  C   UNL     1       0.279  14.536  18.627  0.00  0.00    +0.000 C 
ATOM     30  O   UNL     1      -0.387  15.560  18.499  0.00  0.00    +0.000 OA
ATOM     31  N   UNL     1       1.619  14.537  18.858  0.00  0.00    +0.000 N 
ATOM     32  H   UNL     1       2.073  13.693  19.208  0.00  0.00    +0.000 HD
BRANCH  31  33
ATOM     33  C   UNL     1       2.251  15.798  19.043  0.00  0.00    +0.000 C 
BRANCH  33  34
ATOM     34  C   UNL     1       3.686  15.677  18.753  0.00  0.00    +0.000 A 
ATOM     35  C   UNL     1       4.774  16.409  19.166  0.00  0.00    +0.000 A 
ATOM     36  C   UNL     1       5.906  15.772  18.614  0.00  0.00    +0.000 A 
ATOM     37  C   UNL     1       5.434  14.709  17.880  0.00  0.00    +0.000 A 
ATOM     38  O   UNL     1       4.081  14.641  17.960  0.00  0.00    +0.000 OA
ENDBRANCH  33  34
ENDBRANCH  31  33
ENDBRANCH  28  29
ENDBRANCH   4  28
TORSDOF 9
ENDMDL
