MODEL 1
REMARK VINA RESULT:      -7.6      0.000      0.000
REMARK  Name = 
REMARK  6 active torsions:
REMARK  status: ('A' for Active; 'I' for Inactive)
REMARK    1  A    between atoms: C_1  and  O_2
REMARK    2  A    between atoms: O_2  and  C_3
REMARK    3  A    between atoms: C_6  and  C_7
REMARK    4  A    between atoms: C_7  and  C_8
REMARK    5  A    between atoms: C_14  and  N_15
REMARK    6  A    between atoms: C_17  and  C_18
REMARK                            x       y       z     vdW  Elec       q    Type
REMARK                         _______ _______ _______ _____ _____    ______ ____
ROOT
ATOM      1  C   UNL     1       2.156   4.827  17.730  0.00  0.00    +0.000 C 
ENDROOT
BRANCH   1   2
ATOM      2  C   UNL     1       2.034   4.093  19.037  0.00  0.00    +0.000 A 
ATOM      3  C   UNL     1       1.909   4.726  20.258  0.00  0.00    +0.000 A 
ATOM      4  N   UNL     1       1.649   4.089  21.416  0.00  0.00    +0.000 NA
ATOM      5  C   UNL     1       1.502   2.769  21.342  0.00  0.00    +0.000 A 
ATOM      6  N   UNL     1       1.146   2.102  22.495  0.00  0.00    +0.000 N 
ATOM      7  N   UNL     1       1.672   2.044  20.234  0.00  0.00    +0.000 NA
ATOM      8  C   UNL     1       1.922   2.714  19.100  0.00  0.00    +0.000 A 
ATOM      9  H   UNL     1       1.421   2.639  23.304  0.00  0.00    +0.000 HD
ATOM     10  H   UNL     1       1.433   1.136  22.446  0.00  0.00    +0.000 HD
BRANCH   8  11
ATOM     11  N   UNL     1       2.091   1.911  17.971  0.00  0.00    +0.000 N 
ATOM     12  H   UNL     1       2.654   1.113  18.260  0.00  0.00    +0.000 HD
ATOM     13  H   UNL     1       1.208   1.612  17.575  0.00  0.00    +0.000 HD
ENDBRANCH   8  11
ENDBRANCH   1   2
BRANCH   1  17
ATOM     14  C   UNL     1       5.971   6.701  16.884  0.00  0.00    +0.000 A 
ATOM     15  C   UNL     1       4.939   7.410  17.512  0.00  0.00    +0.000 A 
ATOM     16  C   UNL     1       3.710   6.807  17.778  0.00  0.00    +0.000 A 
ATOM     17  C   UNL     1       3.485   5.476  17.429  0.00  0.00    +0.000 A 
ATOM     18  C   UNL     1       4.522   4.758  16.814  0.00  0.00    +0.000 A 
ATOM     19  C   UNL     1       5.779   5.352  16.553  0.00  0.00    +0.000 A 
BRANCH  19  20
ATOM     20  C   UNL     1       6.846   4.487  15.928  0.00  0.00    +0.000 C 
ATOM     21  F   UNL     1       7.476   4.989  14.832  0.00  0.00    +0.000 F 
ATOM     22  F   UNL     1       7.845   4.199  16.816  0.00  0.00    +0.000 F 
ATOM     23  F   UNL     1       6.355   3.271  15.543  0.00  0.00    +0.000 F 
ENDBRANCH  19  20
BRANCH  14  25
ATOM     24  C   UNL     1       7.852   7.916  17.679  0.00  0.00    +0.000 C 
ATOM     25  O   UNL     1       7.193   7.249  16.606  0.00  0.00    +0.000 OA
ENDBRANCH  14  25
ENDBRANCH   1  17
TORSDOF 5
ENDMDL
MODEL 2
REMARK VINA RESULT:      -7.4      3.348      4.815
REMARK  Name = 
REMARK  6 active torsions:
REMARK  status: ('A' for Active; 'I' for Inactive)
REMARK    1  A    between atoms: C_1  and  O_2
REMARK    2  A    between atoms: O_2  and  C_3
REMARK    3  A    between atoms: C_6  and  C_7
REMARK    4  A    between atoms: C_7  and  C_8
REMARK    5  A    between atoms: C_14  and  N_15
REMARK    6  A    between atoms: C_17  and  C_18
REMARK                            x       y       z     vdW  Elec       q    Type
REMARK                         _______ _______ _______ _____ _____    ______ ____
ROOT
ATOM      1  C   UNL     1       2.659   6.144  19.521  0.00  0.00    +0.000 C 
ENDROOT
BRANCH   1   2
ATOM      2  C   UNL     1       2.251   7.555  19.195  0.00  0.00    +0.000 A 
ATOM      3  C   UNL     1       2.362   8.109  17.936  0.00  0.00    +0.000 A 
ATOM      4  N   UNL     1       1.865   9.313  17.593  0.00  0.00    +0.000 NA
ATOM      5  C   UNL     1       1.228   9.981  18.551  0.00  0.00    +0.000 A 
ATOM      6  N   UNL     1       0.631  11.175  18.206  0.00  0.00    +0.000 N 
ATOM      7  N   UNL     1       1.122   9.579  19.819  0.00  0.00    +0.000 NA
ATOM      8  C   UNL     1       1.621   8.372  20.119  0.00  0.00    +0.000 A 
ATOM      9  H   UNL     1       1.080  11.563  17.390  0.00  0.00    +0.000 HD
ATOM     10  H   UNL     1       0.528  11.765  19.018  0.00  0.00    +0.000 HD
BRANCH   8  11
ATOM     11  N   UNL     1       1.485   7.998  21.457  0.00  0.00    +0.000 N 
ATOM     12  H   UNL     1       1.720   8.816  22.016  0.00  0.00    +0.000 HD
ATOM     13  H   UNL     1       0.553   7.665  21.671  0.00  0.00    +0.000 HD
ENDBRANCH   8  11
ENDBRANCH   1   2
BRANCH   1  17
ATOM     14  C   UNL     1       5.315   4.174  16.720  0.00  0.00    +0.000 A 
ATOM     15  C   UNL     1       3.939   3.911  16.722  0.00  0.00    +0.000 A 
ATOM     16  C   UNL     1       3.087   4.541  17.628  0.00  0.00    +0.000 A 
ATOM     17  C   UNL     1       3.589   5.457  18.551  0.00  0.00    +0.000 A 
ATOM     18  C   UNL     1       4.964   5.735  18.541  0.00  0.00    +0.000 A 
ATOM     19  C   UNL     1       5.837   5.116  17.618  0.00  0.00    +0.000 A 
BRANCH  19  20
ATOM     20  C   UNL     1       7.294   5.511  17.657  0.00  0.00    +0.000 C 
ATOM     21  F   UNL     1       7.701   6.243  18.729  0.00  0.00    +0.000 F 
ATOM     22  F   UNL     1       8.112   4.416  17.637  0.00  0.00    +0.000 F 
ATOM     23  F   UNL     1       7.652   6.240  16.558  0.00  0.00    +0.000 F 
ENDBRANCH  19  20
BRANCH  14  25
ATOM     24  C   UNL     1       6.113   3.999  14.489  0.00  0.00    +0.000 C 
ATOM     25  O   UNL     1       6.188   3.582  15.849  0.00  0.00    +0.000 OA
ENDBRANCH  14  25
ENDBRANCH   1  17
TORSDOF 5
ENDMDL
MODEL 3
REMARK VINA RESULT:      -7.2      0.607      1.725
REMARK  Name = 
REMARK  6 active torsions:
REMARK  status: ('A' for Active; 'I' for Inactive)
REMARK    1  A    between atoms: C_1  and  O_2
REMARK    2  A    between atoms: O_2  and  C_3
REMARK    3  A    between atoms: C_6  and  C_7
REMARK    4  A    between atoms: C_7  and  C_8
REMARK    5  A    between atoms: C_14  and  N_15
REMARK    6  A    between atoms: C_17  and  C_18
REMARK                            x       y       z     vdW  Elec       q    Type
REMARK                         _______ _______ _______ _____ _____    ______ ____
ROOT
ATOM      1  C   UNL     1       1.998   5.244  17.754  0.00  0.00    +0.000 C 
ENDROOT
BRANCH   1   2
ATOM      2  C   UNL     1       1.827   4.372  18.968  0.00  0.00    +0.000 A 
ATOM      3  C   UNL     1       1.707   2.998  18.909  0.00  0.00    +0.000 A 
ATOM      4  N   UNL     1       1.704   2.192  19.988  0.00  0.00    +0.000 NA
ATOM      5  C   UNL     1       1.833   2.790  21.170  0.00  0.00    +0.000 A 
ATOM      6  N   UNL     1       1.924   1.984  22.284  0.00  0.00    +0.000 N 
ATOM      7  N   UNL     1       1.883   4.111  21.353  0.00  0.00    +0.000 NA
ATOM      8  C   UNL     1       1.892   4.879  20.255  0.00  0.00    +0.000 A 
ATOM      9  H   UNL     1       1.497   1.089  22.100  0.00  0.00    +0.000 HD
ATOM     10  H   UNL     1       1.632   2.489  23.108  0.00  0.00    +0.000 HD
BRANCH   8  11
ATOM     11  N   UNL     1       1.946   6.252  20.501  0.00  0.00    +0.000 N 
ATOM     12  H   UNL     1       2.359   6.683  19.675  0.00  0.00    +0.000 HD
ATOM     13  H   UNL     1       1.034   6.644  20.700  0.00  0.00    +0.000 HD
ENDBRANCH   8  11
ENDBRANCH   1   2
BRANCH   1  17
ATOM     14  C   UNL     1       5.993   6.716  16.947  0.00  0.00    +0.000 A 
ATOM     15  C   UNL     1       5.017   7.544  17.517  0.00  0.00    +0.000 A 
ATOM     16  C   UNL     1       3.730   7.070  17.770  0.00  0.00    +0.000 A 
ATOM     17  C   UNL     1       3.390   5.753  17.467  0.00  0.00    +0.000 A 
ATOM     18  C   UNL     1       4.370   4.916  16.911  0.00  0.00    +0.000 A 
ATOM     19  C   UNL     1       5.682   5.379  16.664  0.00  0.00    +0.000 A 
BRANCH  19  20
ATOM     20  C   UNL     1       6.679   4.392  16.103  0.00  0.00    +0.000 C 
ATOM     21  F   UNL     1       7.755   4.100  16.881  0.00  0.00    +0.000 F 
ATOM     22  F   UNL     1       6.094   3.187  15.831  0.00  0.00    +0.000 F 
ATOM     23  F   UNL     1       7.193   4.812  14.909  0.00  0.00    +0.000 F 
ENDBRANCH  19  20
BRANCH  14  25
ATOM     24  C   UNL     1       7.840   8.058  17.606  0.00  0.00    +0.000 C 
ATOM     25  O   UNL     1       7.268   7.136  16.683  0.00  0.00    +0.000 OA
ENDBRANCH  14  25
ENDBRANCH   1  17
TORSDOF 5
ENDMDL
MODEL 4
REMARK VINA RESULT:      -7.2      4.124      6.439
REMARK  Name = 
REMARK  6 active torsions:
REMARK  status: ('A' for Active; 'I' for Inactive)
REMARK    1  A    between atoms: C_1  and  O_2
REMARK    2  A    between atoms: O_2  and  C_3
REMARK    3  A    between atoms: C_6  and  C_7
REMARK    4  A    between atoms: C_7  and  C_8
REMARK    5  A    between atoms: C_14  and  N_15
REMARK    6  A    between atoms: C_17  and  C_18
REMARK                            x       y       z     vdW  Elec       q    Type
REMARK                         _______ _______ _______ _____ _____    ______ ____
ROOT
ATOM      1  C   UNL     1       4.056   6.912  17.802  0.00  0.00    +0.000 C 
ENDROOT
BRANCH   1   2
ATOM      2  C   UNL     1       5.057   6.298  16.862  0.00  0.00    +0.000 A 
ATOM      3  C   UNL     1       4.869   6.212  15.497  0.00  0.00    +0.000 A 
ATOM      4  N   UNL     1       5.814   5.805  14.628  0.00  0.00    +0.000 NA
ATOM      5  C   UNL     1       6.993   5.479  15.151  0.00  0.00    +0.000 A 
ATOM      6  N   UNL     1       8.006   5.145  14.277  0.00  0.00    +0.000 N 
ATOM      7  N   UNL     1       7.267   5.453  16.456  0.00  0.00    +0.000 NA
ATOM      8  C   UNL     1       6.304   5.874  17.289  0.00  0.00    +0.000 A 
ATOM      9  H   UNL     1       7.617   4.821  13.404  0.00  0.00    +0.000 HD
ATOM     10  H   UNL     1       8.691   4.564  14.737  0.00  0.00    +0.000 HD
BRANCH   8  11
ATOM     11  N   UNL     1       6.641   5.828  18.643  0.00  0.00    +0.000 N 
ATOM     12  H   UNL     1       5.767   5.751  19.161  0.00  0.00    +0.000 HD
ATOM     13  H   UNL     1       7.263   5.059  18.860  0.00  0.00    +0.000 HD
ENDBRANCH   8  11
ENDBRANCH   1   2
BRANCH   1  17
ATOM     14  C   UNL     1       1.608   4.207  20.142  0.00  0.00    +0.000 A 
ATOM     15  C   UNL     1       1.841   5.522  20.564  0.00  0.00    +0.000 A 
ATOM     16  C   UNL     1       2.634   6.389  19.813  0.00  0.00    +0.000 A 
ATOM     17  C   UNL     1       3.208   5.964  18.616  0.00  0.00    +0.000 A 
ATOM     18  C   UNL     1       2.964   4.652  18.182  0.00  0.00    +0.000 A 
ATOM     19  C   UNL     1       2.149   3.768  18.925  0.00  0.00    +0.000 A 
BRANCH  19  20
ATOM     20  C   UNL     1       1.909   2.390  18.355  0.00  0.00    +0.000 C 
ATOM     21  F   UNL     1       0.626   1.940  18.362  0.00  0.00    +0.000 F 
ATOM     22  F   UNL     1       2.312   2.308  17.051  0.00  0.00    +0.000 F 
ATOM     23  F   UNL     1       2.636   1.436  19.010  0.00  0.00    +0.000 F 
ENDBRANCH  19  20
BRANCH  14  25
ATOM     24  C   UNL     1       1.482   2.599  21.886  0.00  0.00    +0.000 C 
ATOM     25  O   UNL     1       0.836   3.323  20.843  0.00  0.00    +0.000 OA
ENDBRANCH  14  25
ENDBRANCH   1  17
TORSDOF 5
ENDMDL
MODEL 5
REMARK VINA RESULT:      -7.1      4.723      6.661
REMARK  Name = 
REMARK  6 active torsions:
REMARK  status: ('A' for Active; 'I' for Inactive)
REMARK    1  A    between atoms: C_1  and  O_2
REMARK    2  A    between atoms: O_2  and  C_3
REMARK    3  A    between atoms: C_6  and  C_7
REMARK    4  A    between atoms: C_7  and  C_8
REMARK    5  A    between atoms: C_14  and  N_15
REMARK    6  A    between atoms: C_17  and  C_18
REMARK                            x       y       z     vdW  Elec       q    Type
REMARK                         _______ _______ _______ _____ _____    ______ ____
ROOT
ATOM      1  C   UNL     1       4.808   3.722  16.882  0.00  0.00    +0.000 C 
ENDROOT
BRANCH   1   2
ATOM      2  C   UNL     1       5.735   4.090  15.757  0.00  0.00    +0.000 A 
ATOM      3  C   UNL     1       5.396   3.986  14.423  0.00  0.00    +0.000 A 
ATOM      4  N   UNL     1       6.155   4.450  13.412  0.00  0.00    +0.000 NA
ATOM      5  C   UNL     1       7.293   5.048  13.755  0.00  0.00    +0.000 A 
ATOM      6  N   UNL     1       8.045   5.612  12.747  0.00  0.00    +0.000 N 
ATOM      7  N   UNL     1       7.757   5.142  15.002  0.00  0.00    +0.000 NA
ATOM      8  C   UNL     1       6.970   4.676  15.983  0.00  0.00    +0.000 A 
ATOM      9  H   UNL     1       7.834   5.167  11.866  0.00  0.00    +0.000 HD
ATOM     10  H   UNL     1       9.012   5.680  13.025  0.00  0.00    +0.000 HD
BRANCH   8  11
ATOM     11  N   UNL     1       7.501   4.798  17.268  0.00  0.00    +0.000 N 
ATOM     12  H   UNL     1       6.735   4.635  17.919  0.00  0.00    +0.000 HD
ATOM     13  H   UNL     1       8.264   4.154  17.432  0.00  0.00    +0.000 HD
ENDBRANCH   8  11
ENDBRANCH   1   2
BRANCH   1  17
ATOM     14  C   UNL     1       2.712   6.974  18.835  0.00  0.00    +0.000 A 
ATOM     15  C   UNL     1       3.509   7.200  17.706  0.00  0.00    +0.000 A 
ATOM     16  C   UNL     1       4.188   6.153  17.082  0.00  0.00    +0.000 A 
ATOM     17  C   UNL     1       4.080   4.852  17.569  0.00  0.00    +0.000 A 
ATOM     18  C   UNL     1       3.269   4.619  18.690  0.00  0.00    +0.000 A 
ATOM     19  C   UNL     1       2.563   5.667  19.322  0.00  0.00    +0.000 A 
BRANCH  19  20
ATOM     20  C   UNL     1       1.682   5.312  20.496  0.00  0.00    +0.000 C 
ATOM     21  F   UNL     1       0.959   6.323  21.048  0.00  0.00    +0.000 F 
ATOM     22  F   UNL     1       0.765   4.354  20.163  0.00  0.00    +0.000 F 
ATOM     23  F   UNL     1       2.400   4.771  21.525  0.00  0.00    +0.000 F 
ENDBRANCH  19  20
BRANCH  14  25
ATOM     24  C   UNL     1       1.612   9.074  18.682  0.00  0.00    +0.000 C 
ATOM     25  O   UNL     1       2.027   7.968  19.477  0.00  0.00    +0.000 OA
ENDBRANCH  14  25
ENDBRANCH   1  17
TORSDOF 5
ENDMDL
MODEL 6
REMARK VINA RESULT:      -7.1      1.165      1.223
REMARK  Name = 
REMARK  6 active torsions:
REMARK  status: ('A' for Active; 'I' for Inactive)
REMARK    1  A    between atoms: C_1  and  O_2
REMARK    2  A    between atoms: O_2  and  C_3
REMARK    3  A    between atoms: C_6  and  C_7
REMARK    4  A    between atoms: C_7  and  C_8
REMARK    5  A    between atoms: C_14  and  N_15
REMARK    6  A    between atoms: C_17  and  C_18
REMARK                            x       y       z     vdW  Elec       q    Type
REMARK                         _______ _______ _______ _____ _____    ______ ____
ROOT
ATOM      1  C   UNL     1       2.724   3.348  17.429  0.00  0.00    +0.000 C 
ENDROOT
BRANCH   1   2
ATOM      2  C   UNL     1       2.283   3.203  18.859  0.00  0.00    +0.000 A 
ATOM      3  C   UNL     1       1.032   3.573  19.313  0.00  0.00    +0.000 A 
ATOM      4  N   UNL     1       0.570   3.313  20.551  0.00  0.00    +0.000 NA
ATOM      5  C   UNL     1       1.393   2.649  21.359  0.00  0.00    +0.000 A 
ATOM      6  N   UNL     1       0.913   2.290  22.600  0.00  0.00    +0.000 N 
ATOM      7  N   UNL     1       2.646   2.305  21.055  0.00  0.00    +0.000 NA
ATOM      8  C   UNL     1       3.067   2.574  19.811  0.00  0.00    +0.000 A 
ATOM      9  H   UNL     1       0.159   2.903  22.871  0.00  0.00    +0.000 HD
ATOM     10  H   UNL     1       1.675   2.160  23.249  0.00  0.00    +0.000 HD
BRANCH   8  11
ATOM     11  N   UNL     1       4.383   2.194  19.544  0.00  0.00    +0.000 N 
ATOM     12  H   UNL     1       4.623   2.585  18.634  0.00  0.00    +0.000 HD
ATOM     13  H   UNL     1       5.028   2.508  20.259  0.00  0.00    +0.000 HD
ENDBRANCH   8  11
ENDBRANCH   1   2
BRANCH   1  17
ATOM     14  C   UNL     1       5.741   6.351  16.613  0.00  0.00    +0.000 A 
ATOM     15  C   UNL     1       4.722   6.582  17.547  0.00  0.00    +0.000 A 
ATOM     16  C   UNL     1       3.749   5.617  17.803  0.00  0.00    +0.000 A 
ATOM     17  C   UNL     1       3.774   4.393  17.137  0.00  0.00    +0.000 A 
ATOM     18  C   UNL     1       4.802   4.151  16.213  0.00  0.00    +0.000 A 
ATOM     19  C   UNL     1       5.805   5.114  15.955  0.00  0.00    +0.000 A 
BRANCH  19  20
ATOM     20  C   UNL     1       6.894   4.747  14.976  0.00  0.00    +0.000 C 
ATOM     21  F   UNL     1       7.142   5.634  13.976  0.00  0.00    +0.000 F 
ATOM     22  F   UNL     1       8.094   4.567  15.604  0.00  0.00    +0.000 F 
ATOM     23  F   UNL     1       6.638   3.556  14.355  0.00  0.00    +0.000 F 
ENDBRANCH  19  20
BRANCH  14  25
ATOM     24  C   UNL     1       7.571   7.640  17.407  0.00  0.00    +0.000 C 
ATOM     25  O   UNL     1       6.717   7.266  16.331  0.00  0.00    +0.000 OA
ENDBRANCH  14  25
ENDBRANCH   1  17
TORSDOF 5
ENDMDL
MODEL 7
REMARK VINA RESULT:      -7.0      4.639      6.621
REMARK  Name = 
REMARK  6 active torsions:
REMARK  status: ('A' for Active; 'I' for Inactive)
REMARK    1  A    between atoms: C_1  and  O_2
REMARK    2  A    between atoms: O_2  and  C_3
REMARK    3  A    between atoms: C_6  and  C_7
REMARK    4  A    between atoms: C_7  and  C_8
REMARK    5  A    between atoms: C_14  and  N_15
REMARK    6  A    between atoms: C_17  and  C_18
REMARK                            x       y       z     vdW  Elec       q    Type
REMARK                         _______ _______ _______ _____ _____    ______ ____
ROOT
ATOM      1  C   UNL     1       4.918   4.012  16.469  0.00  0.00    +0.000 C 
ENDROOT
BRANCH   1   2
ATOM      2  C   UNL     1       5.788   5.218  16.689  0.00  0.00    +0.000 A 
ATOM      3  C   UNL     1       5.447   6.491  16.276  0.00  0.00    +0.000 A 
ATOM      4  N   UNL     1       6.140   7.600  16.595  0.00  0.00    +0.000 NA
ATOM      5  C   UNL     1       7.211   7.425  17.364  0.00  0.00    +0.000 A 
ATOM      6  N   UNL     1       7.887   8.552  17.780  0.00  0.00    +0.000 N 
ATOM      7  N   UNL     1       7.677   6.240  17.762  0.00  0.00    +0.000 NA
ATOM      8  C   UNL     1       6.955   5.159  17.432  0.00  0.00    +0.000 A 
ATOM      9  H   UNL     1       7.715   9.315  17.143  0.00  0.00    +0.000 HD
ATOM     10  H   UNL     1       8.845   8.326  18.003  0.00  0.00    +0.000 HD
BRANCH   8  11
ATOM     11  N   UNL     1       7.485   3.945  17.872  0.00  0.00    +0.000 N 
ATOM     12  H   UNL     1       6.774   3.510  18.458  0.00  0.00    +0.000 HD
ATOM     13  H   UNL     1       7.748   3.339  17.105  0.00  0.00    +0.000 HD
ENDBRANCH   8  11
ENDBRANCH   1   2
BRANCH   1  17
ATOM     14  C   UNL     1       2.003   3.090  19.541  0.00  0.00    +0.000 A 
ATOM     15  C   UNL     1       2.511   2.091  18.701  0.00  0.00    +0.000 A 
ATOM     16  C   UNL     1       3.444   2.391  17.709  0.00  0.00    +0.000 A 
ATOM     17  C   UNL     1       3.899   3.697  17.537  0.00  0.00    +0.000 A 
ATOM     18  C   UNL     1       3.404   4.698  18.388  0.00  0.00    +0.000 A 
ATOM     19  C   UNL     1       2.470   4.405  19.408  0.00  0.00    +0.000 A 
BRANCH  19  20
ATOM     20  C   UNL     1       2.029   5.541  20.300  0.00  0.00    +0.000 C 
ATOM     21  F   UNL     1       0.689   5.698  20.473  0.00  0.00    +0.000 F 
ATOM     22  F   UNL     1       2.542   5.417  21.561  0.00  0.00    +0.000 F 
ATOM     23  F   UNL     1       2.485   6.748  19.850  0.00  0.00    +0.000 F 
ENDBRANCH  19  20
BRANCH  14  25
ATOM     24  C   UNL     1       1.605   2.387  21.775  0.00  0.00    +0.000 C 
ATOM     25  O   UNL     1       1.089   2.843  20.528  0.00  0.00    +0.000 OA
ENDBRANCH  14  25
ENDBRANCH   1  17
TORSDOF 5
ENDMDL
MODEL 8
REMARK VINA RESULT:      -7.0      4.617      6.619
REMARK  Name = 
REMARK  6 active torsions:
REMARK  status: ('A' for Active; 'I' for Inactive)
REMARK    1  A    between atoms: C_1  and  O_2
REMARK    2  A    between atoms: O_2  and  C_3
REMARK    3  A    between atoms: C_6  and  C_7
REMARK    4  A    between atoms: C_7  and  C_8
REMARK    5  A    between atoms: C_14  and  N_15
REMARK    6  A    between atoms: C_17  and  C_18
REMARK                            x       y       z     vdW  Elec       q    Type
REMARK                         _______ _______ _______ _____ _____    ______ ____
ROOT
ATOM      1  C   UNL     1       4.622   3.477  16.648  0.00  0.00    +0.000 C 
ENDROOT
BRANCH   1   2
ATOM      2  C   UNL     1       5.670   3.962  15.686  0.00  0.00    +0.000 A 
ATOM      3  C   UNL     1       5.476   4.042  14.322  0.00  0.00    +0.000 A 
ATOM      4  N   UNL     1       6.346   4.613  13.466  0.00  0.00    +0.000 NA
ATOM      5  C   UNL     1       7.449   5.127  14.004  0.00  0.00    +0.000 A 
ATOM      6  N   UNL     1       8.313   5.797  13.164  0.00  0.00    +0.000 N 
ATOM      7  N   UNL     1       7.777   5.045  15.295  0.00  0.00    +0.000 NA
ATOM      8  C   UNL     1       6.882   4.478  16.116  0.00  0.00    +0.000 A 
ATOM      9  H   UNL     1       8.192   5.476  12.215  0.00  0.00    +0.000 HD
ATOM     10  H   UNL     1       9.246   5.800  13.550  0.00  0.00    +0.000 HD
BRANCH   8  11
ATOM     11  N   UNL     1       7.273   4.417  17.455  0.00  0.00    +0.000 N 
ATOM     12  H   UNL     1       7.024   3.488  17.791  0.00  0.00    +0.000 HD
ATOM     13  H   UNL     1       8.262   4.597  17.576  0.00  0.00    +0.000 HD
ENDBRANCH   8  11
ENDBRANCH   1   2
BRANCH   1  17
ATOM     14  C   UNL     1       2.722   6.465  19.147  0.00  0.00    +0.000 A 
ATOM     15  C   UNL     1       3.461   6.831  18.015  0.00  0.00    +0.000 A 
ATOM     16  C   UNL     1       4.077   5.868  17.215  0.00  0.00    +0.000 A 
ATOM     17  C   UNL     1       3.962   4.514  17.524  0.00  0.00    +0.000 A 
ATOM     18  C   UNL     1       3.208   4.143  18.649  0.00  0.00    +0.000 A 
ATOM     19  C   UNL     1       2.566   5.107  19.458  0.00  0.00    +0.000 A 
BRANCH  19  20
ATOM     20  C   UNL     1       1.742   4.609  20.622  0.00  0.00    +0.000 C 
ATOM     21  F   UNL     1       1.449   3.281  20.639  0.00  0.00    +0.000 F 
ATOM     22  F   UNL     1       2.359   4.856  21.816  0.00  0.00    +0.000 F 
ATOM     23  F   UNL     1       0.539   5.251  20.705  0.00  0.00    +0.000 F 
ENDBRANCH  19  20
BRANCH  14  25
ATOM     24  C   UNL     1       1.656   8.580  19.344  0.00  0.00    +0.000 C 
ATOM     25  O   UNL     1       2.099   7.373  19.958  0.00  0.00    +0.000 OA
ENDBRANCH  14  25
ENDBRANCH   1  17
TORSDOF 5
ENDMDL
MODEL 9
REMARK VINA RESULT:      -6.9      4.262      6.476
REMARK  Name = 
REMARK  6 active torsions:
REMARK  status: ('A' for Active; 'I' for Inactive)
REMARK    1  A    between atoms: C_1  and  O_2
REMARK    2  A    between atoms: O_2  and  C_3
REMARK    3  A    between atoms: C_6  and  C_7
REMARK    4  A    between atoms: C_7  and  C_8
REMARK    5  A    between atoms: C_14  and  N_15
REMARK    6  A    between atoms: C_17  and  C_18
REMARK                            x       y       z     vdW  Elec       q    Type
REMARK                         _______ _______ _______ _____ _____    ______ ____
ROOT
ATOM      1  C   UNL     1       5.239   6.191  18.158  0.00  0.00    +0.000 C 
ENDROOT
BRANCH   1   2
ATOM      2  C   UNL     1       5.748   5.665  16.845  0.00  0.00    +0.000 A 
ATOM      3  C   UNL     1       5.188   5.987  15.624  0.00  0.00    +0.000 A 
ATOM      4  N   UNL     1       5.720   5.647  14.435  0.00  0.00    +0.000 NA
ATOM      5  C   UNL     1       6.862   4.964  14.474  0.00  0.00    +0.000 A 
ATOM      6  N   UNL     1       7.476   4.681  13.273  0.00  0.00    +0.000 N 
ATOM      7  N   UNL     1       7.455   4.536  15.590  0.00  0.00    +0.000 NA
ATOM      8  C   UNL     1       6.900   4.901  16.754  0.00  0.00    +0.000 A 
ATOM      9  H   UNL     1       6.796   4.688  12.526  0.00  0.00    +0.000 HD
ATOM     10  H   UNL     1       8.074   3.874  13.364  0.00  0.00    +0.000 HD
BRANCH   8  11
ATOM     11  N   UNL     1       7.559   4.428  17.890  0.00  0.00    +0.000 N 
ATOM     12  H   UNL     1       6.860   3.950  18.457  0.00  0.00    +0.000 HD
ATOM     13  H   UNL     1       8.328   3.812  17.661  0.00  0.00    +0.000 HD
ENDBRANCH   8  11
ENDBRANCH   1   2
BRANCH   1  17
ATOM     14  C   UNL     1       1.957   4.052  20.011  0.00  0.00    +0.000 A 
ATOM     15  C   UNL     1       2.341   5.321  20.462  0.00  0.00    +0.000 A 
ATOM     16  C   UNL     1       3.402   6.005  19.869  0.00  0.00    +0.000 A 
ATOM     17  C   UNL     1       4.100   5.440  18.803  0.00  0.00    +0.000 A 
ATOM     18  C   UNL     1       3.707   4.175  18.338  0.00  0.00    +0.000 A 
ATOM     19  C   UNL     1       2.624   3.477  18.920  0.00  0.00    +0.000 A 
BRANCH  19  20
ATOM     20  C   UNL     1       2.250   2.142  18.323  0.00  0.00    +0.000 C 
ATOM     21  F   UNL     1       2.767   1.036  18.923  0.00  0.00    +0.000 F 
ATOM     22  F   UNL     1       0.896   1.952  18.327  0.00  0.00    +0.000 F 
ATOM     23  F   UNL     1       2.616   2.051  17.010  0.00  0.00    +0.000 F 
ENDBRANCH  19  20
BRANCH  14  25
ATOM     24  C   UNL     1       1.213   2.603  21.742  0.00  0.00    +0.000 C 
ATOM     25  O   UNL     1       0.923   3.345  20.560  0.00  0.00    +0.000 OA
ENDBRANCH  14  25
ENDBRANCH   1  17
TORSDOF 5
ENDMDL
