MODEL 1
REMARK VINA RESULT:      -7.9      0.000      0.000
REMARK  Name = 
REMARK  11 active torsions:
REMARK  status: ('A' for Active; 'I' for Inactive)
REMARK    1  A    between atoms: C_1  and  C_2
REMARK    2  A    between atoms: C_2  and  C_3
REMARK    3  A    between atoms: C_2  and  C_4
REMARK    4  A    between atoms: C_4  and  C_5
REMARK    5  A    between atoms: C_4  and  C_6
REMARK    6  A    between atoms: C_7  and  C_8
REMARK    7  A    between atoms: C_8  and  C_9
REMARK    8  A    between atoms: C_8  and  C_10
REMARK    9  A    between atoms: C_19  and  O_20
REMARK   10  A    between atoms: C_23  and  C_24
REMARK   11  A    between atoms: C_28  and  C_29
REMARK                            x       y       z     vdW  Elec       q    Type
REMARK                         _______ _______ _______ _____ _____    ______ ____
ROOT
ATOM      1  C   UNL     1       1.475  10.527  19.551  0.00  0.00    +0.000 C 
ATOM      2  C   UNL     1       0.669  10.319  20.868  0.00  0.00    +0.000 C 
ATOM      3  C   UNL     1       0.754   8.828  21.217  0.00  0.00    +0.000 C 
ATOM      4  C   UNL     1       1.787   8.278  20.239  0.00  0.00    +0.000 C 
ATOM      5  C   UNL     1       1.913   6.798  20.008  0.00  0.00    +0.000 C 
ATOM      6  C   UNL     1       1.399   5.871  20.837  0.00  0.00    +0.000 C 
ATOM      7  C   UNL     1       1.778   4.483  20.733  0.00  0.00    +0.000 C 
ATOM      8  C   UNL     1       2.373   3.980  19.636  0.00  0.00    +0.000 C 
ATOM      9  C   UNL     1       2.702   2.512  19.543  0.00  0.00    +0.000 C 
ATOM     10  C   UNL     1       4.027   2.237  18.831  0.00  0.00    +0.000 C 
ATOM     11  C   UNL     1       4.071   2.933  17.474  0.00  0.00    +0.000 C 
ATOM     12  C   UNL     1       3.922   4.439  17.648  0.00  0.00    +0.000 C 
ATOM     13  C   UNL     1       2.642   4.872  18.417  0.00  0.00    +0.000 C 
ATOM     14  C   UNL     1       1.406   4.701  17.496  0.00  0.00    +0.000 C 
ATOM     15  C   UNL     1       2.851   6.379  18.876  0.00  0.00    +0.000 C 
ATOM     16  C   UNL     1       2.900   7.362  17.676  0.00  0.00    +0.000 C 
ATOM     17  C   UNL     1       2.776   8.841  18.048  0.00  0.00    +0.000 C 
ATOM     18  C   UNL     1       1.552   9.096  18.948  0.00  0.00    +0.000 C 
ATOM     19  C   UNL     1       0.237   8.719  18.223  0.00  0.00    +0.000 C 
ENDROOT
BRANCH   1  20
ATOM     20  C   UNL     1       0.878  11.657  18.675  0.00  0.00    +0.000 C 
ATOM     21  C   UNL     1       1.547  13.017  18.869  0.00  0.00    +0.000 C 
BRANCH  20  23
ATOM     22  C   UNL     1      -1.538  11.843  18.022  0.00  0.00    +0.000 C 
ATOM     23  C   UNL     1      -0.594  11.819  18.975  0.00  0.00    +0.000 C 
BRANCH  22  24
ATOM     24  C   UNL     1      -3.012  11.992  18.303  0.00  0.00    +0.000 C 
ATOM     25  C   UNL     1      -3.159  12.345  19.787  0.00  0.00    +0.000 C 
BRANCH  24  27
ATOM     26  C   UNL     1      -5.281  10.996  17.676  0.00  0.00    +0.000 C 
ATOM     27  C   UNL     1      -3.794  10.708  17.905  0.00  0.00    +0.000 C 
ATOM     28  C   UNL     1      -3.221  10.058  16.636  0.00  0.00    +0.000 C 
ENDBRANCH  24  27
ENDBRANCH  22  24
ENDBRANCH  20  23
ENDBRANCH   1  20
BRANCH  10  29
ATOM     29  O   UNL     1       4.196   0.833  18.643  0.00  0.00    +0.000 OA
ATOM     30  H   UNL     1       3.705   0.577  17.844  0.00  0.00    +0.000 HD
ENDBRANCH  10  29
TORSDOF 5
ENDMDL
MODEL 2
REMARK VINA RESULT:      -7.6      1.406      2.062
REMARK  Name = 
REMARK  11 active torsions:
REMARK  status: ('A' for Active; 'I' for Inactive)
REMARK    1  A    between atoms: C_1  and  C_2
REMARK    2  A    between atoms: C_2  and  C_3
REMARK    3  A    between atoms: C_2  and  C_4
REMARK    4  A    between atoms: C_4  and  C_5
REMARK    5  A    between atoms: C_4  and  C_6
REMARK    6  A    between atoms: C_7  and  C_8
REMARK    7  A    between atoms: C_8  and  C_9
REMARK    8  A    between atoms: C_8  and  C_10
REMARK    9  A    between atoms: C_19  and  O_20
REMARK   10  A    between atoms: C_23  and  C_24
REMARK   11  A    between atoms: C_28  and  C_29
REMARK                            x       y       z     vdW  Elec       q    Type
REMARK                         _______ _______ _______ _____ _____    ______ ____
ROOT
ATOM      1  C   UNL     1       0.052  11.476  19.429  0.00  0.00    +0.000 C 
ATOM      2  C   UNL     1      -0.685  11.145  20.762  0.00  0.00    +0.000 C 
ATOM      3  C   UNL     1      -0.222   9.751  21.198  0.00  0.00    +0.000 C 
ATOM      4  C   UNL     1       0.926   9.427  20.247  0.00  0.00    +0.000 C 
ATOM      5  C   UNL     1       1.430   8.018  20.104  0.00  0.00    +0.000 C 
ATOM      6  C   UNL     1       1.166   7.041  20.991  0.00  0.00    +0.000 C 
ATOM      7  C   UNL     1       1.889   5.794  20.966  0.00  0.00    +0.000 C 
ATOM      8  C   UNL     1       2.603   5.397  19.897  0.00  0.00    +0.000 C 
ATOM      9  C   UNL     1       3.299   4.060  19.890  0.00  0.00    +0.000 C 
ATOM     10  C   UNL     1       4.656   4.093  19.185  0.00  0.00    +0.000 C 
ATOM     11  C   UNL     1       4.530   4.695  17.789  0.00  0.00    +0.000 C 
ATOM     12  C   UNL     1       3.998   6.119  17.874  0.00  0.00    +0.000 C 
ATOM     13  C   UNL     1       2.643   6.254  18.625  0.00  0.00    +0.000 C 
ATOM     14  C   UNL     1       1.500   5.717  17.725  0.00  0.00    +0.000 C 
ATOM     15  C   UNL     1       2.454   7.789  18.992  0.00  0.00    +0.000 C 
ATOM     16  C   UNL     1       2.258   8.677  17.735  0.00  0.00    +0.000 C 
ATOM     17  C   UNL     1       1.755  10.094  18.020  0.00  0.00    +0.000 C 
ATOM     18  C   UNL     1       0.500  10.079  18.912  0.00  0.00    +0.000 C 
ATOM     19  C   UNL     1      -0.668   9.334  18.220  0.00  0.00    +0.000 C 
ENDROOT
BRANCH   1  20
ATOM     20  C   UNL     1      -0.808  12.359  18.491  0.00  0.00    +0.000 C 
ATOM     21  C   UNL     1      -0.393  13.830  18.465  0.00  0.00    +0.000 C 
BRANCH  20  23
ATOM     22  C   UNL     1      -3.217  11.740  18.155  0.00  0.00    +0.000 C 
ATOM     23  C   UNL     1      -2.259  12.297  18.911  0.00  0.00    +0.000 C 
BRANCH  22  24
ATOM     24  C   UNL     1      -4.666  11.658  18.562  0.00  0.00    +0.000 C 
ATOM     25  C   UNL     1      -5.491  11.506  17.278  0.00  0.00    +0.000 C 
BRANCH  24  27
ATOM     26  C   UNL     1      -6.323  13.586  18.827  0.00  0.00    +0.000 C 
ATOM     27  C   UNL     1      -5.085  12.893  19.407  0.00  0.00    +0.000 C 
ATOM     28  C   UNL     1      -5.376  12.517  20.868  0.00  0.00    +0.000 C 
ENDBRANCH  24  27
ENDBRANCH  22  24
ENDBRANCH  20  23
ENDBRANCH   1  20
BRANCH  10  29
ATOM     29  O   UNL     1       5.182   2.771  19.080  0.00  0.00    +0.000 OA
ATOM     30  H   UNL     1       5.140   2.362  19.961  0.00  0.00    +0.000 HD
ENDBRANCH  10  29
TORSDOF 5
ENDMDL
MODEL 3
REMARK VINA RESULT:      -7.5      0.915      1.419
REMARK  Name = 
REMARK  11 active torsions:
REMARK  status: ('A' for Active; 'I' for Inactive)
REMARK    1  A    between atoms: C_1  and  C_2
REMARK    2  A    between atoms: C_2  and  C_3
REMARK    3  A    between atoms: C_2  and  C_4
REMARK    4  A    between atoms: C_4  and  C_5
REMARK    5  A    between atoms: C_4  and  C_6
REMARK    6  A    between atoms: C_7  and  C_8
REMARK    7  A    between atoms: C_8  and  C_9
REMARK    8  A    between atoms: C_8  and  C_10
REMARK    9  A    between atoms: C_19  and  O_20
REMARK   10  A    between atoms: C_23  and  C_24
REMARK   11  A    between atoms: C_28  and  C_29
REMARK                            x       y       z     vdW  Elec       q    Type
REMARK                         _______ _______ _______ _____ _____    ______ ____
ROOT
ATOM      1  C   UNL     1       1.200  10.726  19.812  0.00  0.00    +0.000 C 
ATOM      2  C   UNL     1       0.497  10.436  21.172  0.00  0.00    +0.000 C 
ATOM      3  C   UNL     1       0.675   8.941  21.460  0.00  0.00    +0.000 C 
ATOM      4  C   UNL     1       1.663   8.473  20.396  0.00  0.00    +0.000 C 
ATOM      5  C   UNL     1       1.841   7.009  20.104  0.00  0.00    +0.000 C 
ATOM      6  C   UNL     1       1.430   6.032  20.932  0.00  0.00    +0.000 C 
ATOM      7  C   UNL     1       1.865   4.669  20.753  0.00  0.00    +0.000 C 
ATOM      8  C   UNL     1       2.406   4.231  19.602  0.00  0.00    +0.000 C 
ATOM      9  C   UNL     1       2.795   2.785  19.434  0.00  0.00    +0.000 C 
ATOM     10  C   UNL     1       4.079   2.598  18.625  0.00  0.00    +0.000 C 
ATOM     11  C   UNL     1       3.997   3.339  17.295  0.00  0.00    +0.000 C 
ATOM     12  C   UNL     1       3.791   4.829  17.532  0.00  0.00    +0.000 C 
ATOM     13  C   UNL     1       2.548   5.175  18.400  0.00  0.00    +0.000 C 
ATOM     14  C   UNL     1       1.261   4.974  17.558  0.00  0.00    +0.000 C 
ATOM     15  C   UNL     1       2.718   6.674  18.898  0.00  0.00    +0.000 C 
ATOM     16  C   UNL     1       2.638   7.697  17.732  0.00  0.00    +0.000 C 
ATOM     17  C   UNL     1       2.472   9.155  18.165  0.00  0.00    +0.000 C 
ATOM     18  C   UNL     1       1.302   9.320  19.154  0.00  0.00    +0.000 C 
ATOM     19  C   UNL     1      -0.041   8.903  18.506  0.00  0.00    +0.000 C 
ENDROOT
BRANCH   1  20
ATOM     20  C   UNL     1       0.492  11.853  19.018  0.00  0.00    +0.000 C 
ATOM     21  C   UNL     1       1.434  12.943  18.508  0.00  0.00    +0.000 C 
BRANCH  20  23
ATOM     22  C   UNL     1      -1.867  12.470  19.611  0.00  0.00    +0.000 C 
ATOM     23  C   UNL     1      -0.554  12.515  19.884  0.00  0.00    +0.000 C 
BRANCH  22  24
ATOM     24  C   UNL     1      -2.926  13.114  20.469  0.00  0.00    +0.000 C 
ATOM     25  C   UNL     1      -2.767  12.553  21.887  0.00  0.00    +0.000 C 
BRANCH  24  27
ATOM     26  C   UNL     1      -4.331  11.836  18.757  0.00  0.00    +0.000 C 
ATOM     27  C   UNL     1      -4.346  12.878  19.881  0.00  0.00    +0.000 C 
ATOM     28  C   UNL     1      -5.343  12.422  20.957  0.00  0.00    +0.000 C 
ENDBRANCH  24  27
ENDBRANCH  22  24
ENDBRANCH  20  23
ENDBRANCH   1  20
BRANCH  10  29
ATOM     29  O   UNL     1       4.300   1.211  18.376  0.00  0.00    +0.000 OA
ATOM     30  H   UNL     1       4.648   0.813  19.193  0.00  0.00    +0.000 HD
ENDBRANCH  10  29
TORSDOF 5
ENDMDL
MODEL 4
REMARK VINA RESULT:      -7.4      1.424      1.947
REMARK  Name = 
REMARK  11 active torsions:
REMARK  status: ('A' for Active; 'I' for Inactive)
REMARK    1  A    between atoms: C_1  and  C_2
REMARK    2  A    between atoms: C_2  and  C_3
REMARK    3  A    between atoms: C_2  and  C_4
REMARK    4  A    between atoms: C_4  and  C_5
REMARK    5  A    between atoms: C_4  and  C_6
REMARK    6  A    between atoms: C_7  and  C_8
REMARK    7  A    between atoms: C_8  and  C_9
REMARK    8  A    between atoms: C_8  and  C_10
REMARK    9  A    between atoms: C_19  and  O_20
REMARK   10  A    between atoms: C_23  and  C_24
REMARK   11  A    between atoms: C_28  and  C_29
REMARK                            x       y       z     vdW  Elec       q    Type
REMARK                         _______ _______ _______ _____ _____    ______ ____
ROOT
ATOM      1  C   UNL     1      -0.059  11.549  19.721  0.00  0.00    +0.000 C 
ATOM      2  C   UNL     1      -0.769  11.133  21.044  0.00  0.00    +0.000 C 
ATOM      3  C   UNL     1      -0.269   9.728  21.402  0.00  0.00    +0.000 C 
ATOM      4  C   UNL     1       0.874   9.482  20.421  0.00  0.00    +0.000 C 
ATOM      5  C   UNL     1       1.408   8.094  20.199  0.00  0.00    +0.000 C 
ATOM      6  C   UNL     1       1.178   7.067  21.037  0.00  0.00    +0.000 C 
ATOM      7  C   UNL     1       1.930   5.841  20.939  0.00  0.00    +0.000 C 
ATOM      8  C   UNL     1       2.638   5.516  19.843  0.00  0.00    +0.000 C 
ATOM      9  C   UNL     1       3.364   4.198  19.757  0.00  0.00    +0.000 C 
ATOM     10  C   UNL     1       4.710   4.299  19.039  0.00  0.00    +0.000 C 
ATOM     11  C   UNL     1       4.552   4.969  17.677  0.00  0.00    +0.000 C 
ATOM     12  C   UNL     1       3.988   6.374  17.842  0.00  0.00    +0.000 C 
ATOM     13  C   UNL     1       2.641   6.438  18.616  0.00  0.00    +0.000 C 
ATOM     14  C   UNL     1       1.499   5.921  17.703  0.00  0.00    +0.000 C 
ATOM     15  C   UNL     1       2.422   7.947  19.064  0.00  0.00    +0.000 C 
ATOM     16  C   UNL     1       2.189   8.894  17.857  0.00  0.00    +0.000 C 
ATOM     17  C   UNL     1       1.657  10.282  18.221  0.00  0.00    +0.000 C 
ATOM     18  C   UNL     1       0.414  10.191  19.127  0.00  0.00    +0.000 C 
ATOM     19  C   UNL     1      -0.745   9.455  18.412  0.00  0.00    +0.000 C 
ENDROOT
BRANCH   1  20
ATOM     20  C   UNL     1      -0.951  12.459  18.841  0.00  0.00    +0.000 C 
ATOM     21  C   UNL     1      -0.287  13.771  18.425  0.00  0.00    +0.000 C 
BRANCH  20  23
ATOM     22  C   UNL     1      -3.430  12.336  19.215  0.00  0.00    +0.000 C 
ATOM     23  C   UNL     1      -2.225  12.801  19.578  0.00  0.00    +0.000 C 
BRANCH  22  24
ATOM     24  C   UNL     1      -4.710  12.656  19.944  0.00  0.00    +0.000 C 
ATOM     25  C   UNL     1      -4.390  12.660  21.444  0.00  0.00    +0.000 C 
BRANCH  24  27
ATOM     26  C   UNL     1      -7.180  12.363  19.357  0.00  0.00    +0.000 C 
ATOM     27  C   UNL     1      -5.838  11.654  19.568  0.00  0.00    +0.000 C 
ATOM     28  C   UNL     1      -5.500  10.861  18.297  0.00  0.00    +0.000 C 
ENDBRANCH  24  27
ENDBRANCH  22  24
ENDBRANCH  20  23
ENDBRANCH   1  20
BRANCH  10  29
ATOM     29  O   UNL     1       5.265   2.998  18.859  0.00  0.00    +0.000 OA
ATOM     30  H   UNL     1       6.229   3.093  18.770  0.00  0.00    +0.000 HD
ENDBRANCH  10  29
TORSDOF 5
ENDMDL
MODEL 5
REMARK VINA RESULT:      -7.4      1.368      1.840
REMARK  Name = 
REMARK  11 active torsions:
REMARK  status: ('A' for Active; 'I' for Inactive)
REMARK    1  A    between atoms: C_1  and  C_2
REMARK    2  A    between atoms: C_2  and  C_3
REMARK    3  A    between atoms: C_2  and  C_4
REMARK    4  A    between atoms: C_4  and  C_5
REMARK    5  A    between atoms: C_4  and  C_6
REMARK    6  A    between atoms: C_7  and  C_8
REMARK    7  A    between atoms: C_8  and  C_9
REMARK    8  A    between atoms: C_8  and  C_10
REMARK    9  A    between atoms: C_19  and  O_20
REMARK   10  A    between atoms: C_23  and  C_24
REMARK   11  A    between atoms: C_28  and  C_29
REMARK                            x       y       z     vdW  Elec       q    Type
REMARK                         _______ _______ _______ _____ _____    ______ ____
ROOT
ATOM      1  C   UNL     1       1.416  10.514  19.599  0.00  0.00    +0.000 C 
ATOM      2  C   UNL     1       0.641  10.292  20.933  0.00  0.00    +0.000 C 
ATOM      3  C   UNL     1       0.746   8.800  21.270  0.00  0.00    +0.000 C 
ATOM      4  C   UNL     1       1.761   8.263  20.266  0.00  0.00    +0.000 C 
ATOM      5  C   UNL     1       1.893   6.786  20.024  0.00  0.00    +0.000 C 
ATOM      6  C   UNL     1       1.406   5.850  20.859  0.00  0.00    +0.000 C 
ATOM      7  C   UNL     1       1.793   4.466  20.738  0.00  0.00    +0.000 C 
ATOM      8  C   UNL     1       2.367   3.974  19.626  0.00  0.00    +0.000 C 
ATOM      9  C   UNL     1       2.705   2.509  19.517  0.00  0.00    +0.000 C 
ATOM     10  C   UNL     1       4.016   2.249  18.774  0.00  0.00    +0.000 C 
ATOM     11  C   UNL     1       4.024   2.953  17.420  0.00  0.00    +0.000 C 
ATOM     12  C   UNL     1       3.867   4.456  17.606  0.00  0.00    +0.000 C 
ATOM     13  C   UNL     1       2.602   4.875  18.406  0.00  0.00    +0.000 C 
ATOM     14  C   UNL     1       1.346   4.700  17.512  0.00  0.00    +0.000 C 
ATOM     15  C   UNL     1       2.809   6.381  18.869  0.00  0.00    +0.000 C 
ATOM     16  C   UNL     1       2.823   7.371  17.673  0.00  0.00    +0.000 C 
ATOM     17  C   UNL     1       2.696   8.847  18.057  0.00  0.00    +0.000 C 
ATOM     18  C   UNL     1       1.491   9.087  18.986  0.00  0.00    +0.000 C 
ATOM     19  C   UNL     1       0.163   8.703  18.288  0.00  0.00    +0.000 C 
ENDROOT
BRANCH   1  20
ATOM     20  C   UNL     1       0.790  11.644  18.742  0.00  0.00    +0.000 C 
ATOM     21  C   UNL     1       1.699  12.858  18.552  0.00  0.00    +0.000 C 
BRANCH  20  23
ATOM     22  C   UNL     1      -0.680  13.386  19.792  0.00  0.00    +0.000 C 
ATOM     23  C   UNL     1      -0.493  12.123  19.379  0.00  0.00    +0.000 C 
BRANCH  22  24
ATOM     24  C   UNL     1      -1.956  13.886  20.419  0.00  0.00    +0.000 C 
ATOM     25  C   UNL     1      -1.564  14.837  21.555  0.00  0.00    +0.000 C 
BRANCH  24  27
ATOM     26  C   UNL     1      -2.682  12.440  22.398  0.00  0.00    +0.000 C 
ATOM     27  C   UNL     1      -2.848  12.706  20.898  0.00  0.00    +0.000 C 
ATOM     28  C   UNL     1      -4.336  12.957  20.609  0.00  0.00    +0.000 C 
ENDBRANCH  24  27
ENDBRANCH  22  24
ENDBRANCH  20  23
ENDBRANCH   1  20
BRANCH  10  29
ATOM     29  O   UNL     1       4.192   0.848  18.574  0.00  0.00    +0.000 OA
ATOM     30  H   UNL     1       4.092   0.666  17.623  0.00  0.00    +0.000 HD
ENDBRANCH  10  29
TORSDOF 5
ENDMDL
MODEL 6
REMARK VINA RESULT:      -7.1      1.830      2.703
REMARK  Name = 
REMARK  11 active torsions:
REMARK  status: ('A' for Active; 'I' for Inactive)
REMARK    1  A    between atoms: C_1  and  C_2
REMARK    2  A    between atoms: C_2  and  C_3
REMARK    3  A    between atoms: C_2  and  C_4
REMARK    4  A    between atoms: C_4  and  C_5
REMARK    5  A    between atoms: C_4  and  C_6
REMARK    6  A    between atoms: C_7  and  C_8
REMARK    7  A    between atoms: C_8  and  C_9
REMARK    8  A    between atoms: C_8  and  C_10
REMARK    9  A    between atoms: C_19  and  O_20
REMARK   10  A    between atoms: C_23  and  C_24
REMARK   11  A    between atoms: C_28  and  C_29
REMARK                            x       y       z     vdW  Elec       q    Type
REMARK                         _______ _______ _______ _____ _____    ______ ____
ROOT
ATOM      1  C   UNL     1       1.546  10.416  19.663  0.00  0.00    +0.000 C 
ATOM      2  C   UNL     1       0.748  10.197  20.983  0.00  0.00    +0.000 C 
ATOM      3  C   UNL     1       0.794   8.697  21.294  0.00  0.00    +0.000 C 
ATOM      4  C   UNL     1       1.801   8.141  20.291  0.00  0.00    +0.000 C 
ATOM      5  C   UNL     1       1.882   6.665  20.023  0.00  0.00    +0.000 C 
ATOM      6  C   UNL     1       1.352   5.732  20.835  0.00  0.00    +0.000 C 
ATOM      7  C   UNL     1       1.690   4.338  20.692  0.00  0.00    +0.000 C 
ATOM      8  C   UNL     1       2.259   3.846  19.577  0.00  0.00    +0.000 C 
ATOM      9  C   UNL     1       2.545   2.372  19.444  0.00  0.00    +0.000 C 
ATOM     10  C   UNL     1       3.854   2.077  18.711  0.00  0.00    +0.000 C 
ATOM     11  C   UNL     1       3.903   2.805  17.371  0.00  0.00    +0.000 C 
ATOM     12  C   UNL     1       3.799   4.310  17.583  0.00  0.00    +0.000 C 
ATOM     13  C   UNL     1       2.540   4.760  18.377  0.00  0.00    +0.000 C 
ATOM     14  C   UNL     1       1.290   4.647  17.466  0.00  0.00    +0.000 C 
ATOM     15  C   UNL     1       2.797   6.248  18.871  0.00  0.00    +0.000 C 
ATOM     16  C   UNL     1       2.860   7.259  17.694  0.00  0.00    +0.000 C 
ATOM     17  C   UNL     1       2.783   8.731  18.104  0.00  0.00    +0.000 C 
ATOM     18  C   UNL     1       1.576   8.997  19.024  0.00  0.00    +0.000 C 
ATOM     19  C   UNL     1       0.243   8.676  18.304  0.00  0.00    +0.000 C 
ENDROOT
BRANCH   1  20
ATOM     20  C   UNL     1       0.972  11.583  18.821  0.00  0.00    +0.000 C 
ATOM     21  C   UNL     1       2.024  12.580  18.337  0.00  0.00    +0.000 C 
BRANCH  20  23
ATOM     22  C   UNL     1       0.197  13.544  20.181  0.00  0.00    +0.000 C 
ATOM     23  C   UNL     1      -0.051  12.347  19.629  0.00  0.00    +0.000 C 
BRANCH  22  24
ATOM     24  C   UNL     1      -0.814  14.327  20.980  0.00  0.00    +0.000 C 
ATOM     25  C   UNL     1      -0.701  15.793  20.546  0.00  0.00    +0.000 C 
BRANCH  24  27
ATOM     26  C   UNL     1      -1.138  15.315  23.315  0.00  0.00    +0.000 C 
ATOM     27  C   UNL     1      -0.599  14.129  22.507  0.00  0.00    +0.000 C 
ATOM     28  C   UNL     1      -1.269  12.845  23.019  0.00  0.00    +0.000 C 
ENDBRANCH  24  27
ENDBRANCH  22  24
ENDBRANCH  20  23
ENDBRANCH   1  20
BRANCH  10  29
ATOM     29  O   UNL     1       3.981   0.674  18.486  0.00  0.00    +0.000 OA
ATOM     30  H   UNL     1       3.463   0.450  17.695  0.00  0.00    +0.000 HD
ENDBRANCH  10  29
TORSDOF 5
ENDMDL
MODEL 7
REMARK VINA RESULT:      -7.1      4.009      9.211
REMARK  Name = 
REMARK  11 active torsions:
REMARK  status: ('A' for Active; 'I' for Inactive)
REMARK    1  A    between atoms: C_1  and  C_2
REMARK    2  A    between atoms: C_2  and  C_3
REMARK    3  A    between atoms: C_2  and  C_4
REMARK    4  A    between atoms: C_4  and  C_5
REMARK    5  A    between atoms: C_4  and  C_6
REMARK    6  A    between atoms: C_7  and  C_8
REMARK    7  A    between atoms: C_8  and  C_9
REMARK    8  A    between atoms: C_8  and  C_10
REMARK    9  A    between atoms: C_19  and  O_20
REMARK   10  A    between atoms: C_23  and  C_24
REMARK   11  A    between atoms: C_28  and  C_29
REMARK                            x       y       z     vdW  Elec       q    Type
REMARK                         _______ _______ _______ _____ _____    ______ ____
ROOT
ATOM      1  C   UNL     1       0.852   8.848  20.093  0.00  0.00    +0.000 C 
ATOM      2  C   UNL     1       1.328   8.588  21.554  0.00  0.00    +0.000 C 
ATOM      3  C   UNL     1       0.525   9.527  22.462  0.00  0.00    +0.000 C 
ATOM      4  C   UNL     1      -0.538  10.116  21.539  0.00  0.00    +0.000 C 
ATOM      5  C   UNL     1      -1.312  11.340  21.942  0.00  0.00    +0.000 C 
ATOM      6  C   UNL     1      -1.377  11.794  23.208  0.00  0.00    +0.000 C 
ATOM      7  C   UNL     1      -2.343  12.792  23.594  0.00  0.00    +0.000 C 
ATOM      8  C   UNL     1      -2.986  13.558  22.695  0.00  0.00    +0.000 C 
ATOM      9  C   UNL     1      -3.947  14.629  23.142  0.00  0.00    +0.000 C 
ATOM     10  C   UNL     1      -5.166  14.763  22.228  0.00  0.00    +0.000 C 
ATOM     11  C   UNL     1      -4.740  14.930  20.773  0.00  0.00    +0.000 C 
ATOM     12  C   UNL     1      -3.928  13.725  20.318  0.00  0.00    +0.000 C 
ATOM     13  C   UNL     1      -2.681  13.423  21.197  0.00  0.00    +0.000 C 
ATOM     14  C   UNL     1      -1.577  14.471  20.900  0.00  0.00    +0.000 C 
ATOM     15  C   UNL     1      -2.213  11.941  20.864  0.00  0.00    +0.000 C 
ATOM     16  C   UNL     1      -1.675  11.802  19.415  0.00  0.00    +0.000 C 
ATOM     17  C   UNL     1      -0.918  10.502  19.131  0.00  0.00    +0.000 C 
ATOM     18  C   UNL     1       0.183  10.250  20.178  0.00  0.00    +0.000 C 
ATOM     19  C   UNL     1       1.240  11.381  20.161  0.00  0.00    +0.000 C 
ENDROOT
BRANCH   1  20
ATOM     20  C   UNL     1       1.993   8.647  19.064  0.00  0.00    +0.000 C 
ATOM     21  C   UNL     1       1.559   8.818  17.609  0.00  0.00    +0.000 C 
BRANCH  20  23
ATOM     22  C   UNL     1       2.121   6.196  18.539  0.00  0.00    +0.000 C 
ATOM     23  C   UNL     1       2.581   7.262  19.210  0.00  0.00    +0.000 C 
BRANCH  22  24
ATOM     24  C   UNL     1       2.700   4.810  18.662  0.00  0.00    +0.000 C 
ATOM     25  C   UNL     1       2.035   3.941  17.589  0.00  0.00    +0.000 C 
BRANCH  24  27
ATOM     26  C   UNL     1       1.032   4.102  20.464  0.00  0.00    +0.000 C 
ATOM     27  C   UNL     1       2.513   4.247  20.100  0.00  0.00    +0.000 C 
ATOM     28  C   UNL     1       3.195   2.882  20.274  0.00  0.00    +0.000 C 
ENDBRANCH  24  27
ENDBRANCH  22  24
ENDBRANCH  20  23
ENDBRANCH   1  20
BRANCH  10  29
ATOM     29  O   UNL     1      -5.947  15.890  22.621  0.00  0.00    +0.000 OA
ATOM     30  H   UNL     1      -6.579  16.079  21.906  0.00  0.00    +0.000 HD
ENDBRANCH  10  29
TORSDOF 5
ENDMDL
MODEL 8
REMARK VINA RESULT:      -7.1      4.250      9.462
REMARK  Name = 
REMARK  11 active torsions:
REMARK  status: ('A' for Active; 'I' for Inactive)
REMARK    1  A    between atoms: C_1  and  C_2
REMARK    2  A    between atoms: C_2  and  C_3
REMARK    3  A    between atoms: C_2  and  C_4
REMARK    4  A    between atoms: C_4  and  C_5
REMARK    5  A    between atoms: C_4  and  C_6
REMARK    6  A    between atoms: C_7  and  C_8
REMARK    7  A    between atoms: C_8  and  C_9
REMARK    8  A    between atoms: C_8  and  C_10
REMARK    9  A    between atoms: C_19  and  O_20
REMARK   10  A    between atoms: C_23  and  C_24
REMARK   11  A    between atoms: C_28  and  C_29
REMARK                            x       y       z     vdW  Elec       q    Type
REMARK                         _______ _______ _______ _____ _____    ______ ____
ROOT
ATOM      1  C   UNL     1       0.506   9.252  20.247  0.00  0.00    +0.000 C 
ATOM      2  C   UNL     1       0.924   8.918  21.711  0.00  0.00    +0.000 C 
ATOM      3  C   UNL     1       0.125   9.849  22.630  0.00  0.00    +0.000 C 
ATOM      4  C   UNL     1      -0.886  10.512  21.699  0.00  0.00    +0.000 C 
ATOM      5  C   UNL     1      -1.628  11.747  22.126  0.00  0.00    +0.000 C 
ATOM      6  C   UNL     1      -1.719  12.154  23.406  0.00  0.00    +0.000 C 
ATOM      7  C   UNL     1      -2.661  13.171  23.801  0.00  0.00    +0.000 C 
ATOM      8  C   UNL     1      -3.246  13.994  22.914  0.00  0.00    +0.000 C 
ATOM      9  C   UNL     1      -4.183  15.082  23.373  0.00  0.00    +0.000 C 
ATOM     10  C   UNL     1      -5.366  15.296  22.428  0.00  0.00    +0.000 C 
ATOM     11  C   UNL     1      -4.887  15.504  20.995  0.00  0.00    +0.000 C 
ATOM     12  C   UNL     1      -4.103  14.288  20.517  0.00  0.00    +0.000 C 
ATOM     13  C   UNL     1      -2.898  13.907  21.422  0.00  0.00    +0.000 C 
ATOM     14  C   UNL     1      -1.748  14.925  21.203  0.00  0.00    +0.000 C 
ATOM     15  C   UNL     1      -2.472  12.423  21.045  0.00  0.00    +0.000 C 
ATOM     16  C   UNL     1      -1.891  12.321  19.609  0.00  0.00    +0.000 C 
ATOM     17  C   UNL     1      -1.172  11.006  19.297  0.00  0.00    +0.000 C 
ATOM     18  C   UNL     1      -0.116  10.673  20.367  0.00  0.00    +0.000 C 
ATOM     19  C   UNL     1       0.981  11.764  20.429  0.00  0.00    +0.000 C 
ENDROOT
BRANCH   1  20
ATOM     20  C   UNL     1       1.672   9.049  19.247  0.00  0.00    +0.000 C 
ATOM     21  C   UNL     1       1.296   9.308  17.789  0.00  0.00    +0.000 C 
BRANCH  20  23
ATOM     22  C   UNL     1       2.521   6.898  18.273  0.00  0.00    +0.000 C 
ATOM     23  C   UNL     1       2.195   7.635  19.345  0.00  0.00    +0.000 C 
BRANCH  22  24
ATOM     24  C   UNL     1       3.055   5.490  18.350  0.00  0.00    +0.000 C 
ATOM     25  C   UNL     1       4.209   5.385  17.347  0.00  0.00    +0.000 C 
BRANCH  24  27
ATOM     26  C   UNL     1       2.449   3.236  17.309  0.00  0.00    +0.000 C 
ATOM     27  C   UNL     1       1.931   4.447  18.093  0.00  0.00    +0.000 C 
ATOM     28  C   UNL     1       1.301   3.949  19.402  0.00  0.00    +0.000 C 
ENDBRANCH  24  27
ENDBRANCH  22  24
ENDBRANCH  20  23
ENDBRANCH   1  20
BRANCH  10  29
ATOM     29  O   UNL     1      -6.119  16.435  22.840  0.00  0.00    +0.000 OA
ATOM     30  H   UNL     1      -6.786  16.616  22.156  0.00  0.00    +0.000 HD
ENDBRANCH  10  29
TORSDOF 5
ENDMDL
MODEL 9
REMARK VINA RESULT:      -7.1      1.696      2.602
REMARK  Name = 
REMARK  11 active torsions:
REMARK  status: ('A' for Active; 'I' for Inactive)
REMARK    1  A    between atoms: C_1  and  C_2
REMARK    2  A    between atoms: C_2  and  C_3
REMARK    3  A    between atoms: C_2  and  C_4
REMARK    4  A    between atoms: C_4  and  C_5
REMARK    5  A    between atoms: C_4  and  C_6
REMARK    6  A    between atoms: C_7  and  C_8
REMARK    7  A    between atoms: C_8  and  C_9
REMARK    8  A    between atoms: C_8  and  C_10
REMARK    9  A    between atoms: C_19  and  O_20
REMARK   10  A    between atoms: C_23  and  C_24
REMARK   11  A    between atoms: C_28  and  C_29
REMARK                            x       y       z     vdW  Elec       q    Type
REMARK                         _______ _______ _______ _____ _____    ______ ____
ROOT
ATOM      1  C   UNL     1       0.089  11.421  19.714  0.00  0.00    +0.000 C 
ATOM      2  C   UNL     1      -0.651  11.017  21.025  0.00  0.00    +0.000 C 
ATOM      3  C   UNL     1      -0.189   9.601  21.385  0.00  0.00    +0.000 C 
ATOM      4  C   UNL     1       0.962   9.330  20.420  0.00  0.00    +0.000 C 
ATOM      5  C   UNL     1       1.466   7.931  20.200  0.00  0.00    +0.000 C 
ATOM      6  C   UNL     1       1.200   6.907  21.032  0.00  0.00    +0.000 C 
ATOM      7  C   UNL     1       1.924   5.663  20.940  0.00  0.00    +0.000 C 
ATOM      8  C   UNL     1       2.640   5.325  19.853  0.00  0.00    +0.000 C 
ATOM      9  C   UNL     1       3.336   3.991  19.773  0.00  0.00    +0.000 C 
ATOM     10  C   UNL     1       4.695   4.063  19.075  0.00  0.00    +0.000 C 
ATOM     11  C   UNL     1       4.573   4.741  17.714  0.00  0.00    +0.000 C 
ATOM     12  C   UNL     1       4.040   6.158  17.876  0.00  0.00    +0.000 C 
ATOM     13  C   UNL     1       2.683   6.251  18.630  0.00  0.00    +0.000 C 
ATOM     14  C   UNL     1       1.543   5.764  17.698  0.00  0.00    +0.000 C 
ATOM     15  C   UNL     1       2.493   7.763  19.080  0.00  0.00    +0.000 C 
ATOM     16  C   UNL     1       2.300   8.720  17.873  0.00  0.00    +0.000 C 
ATOM     17  C   UNL     1       1.796  10.119  18.234  0.00  0.00    +0.000 C 
ATOM     18  C   UNL     1       0.538  10.054  19.121  0.00  0.00    +0.000 C 
ATOM     19  C   UNL     1      -0.628   9.348  18.387  0.00  0.00    +0.000 C 
ENDROOT
BRANCH   1  20
ATOM     20  C   UNL     1      -0.769  12.355  18.824  0.00  0.00    +0.000 C 
ATOM     21  C   UNL     1      -0.133  13.718  18.554  0.00  0.00    +0.000 C 
BRANCH  20  23
ATOM     22  C   UNL     1      -2.344  13.597  20.331  0.00  0.00    +0.000 C 
ATOM     23  C   UNL     1      -2.113  12.593  19.472  0.00  0.00    +0.000 C 
BRANCH  22  24
ATOM     24  C   UNL     1      -3.680  13.859  20.979  0.00  0.00    +0.000 C 
ATOM     25  C   UNL     1      -3.627  15.268  21.580  0.00  0.00    +0.000 C 
BRANCH  24  27
ATOM     26  C   UNL     1      -3.000  12.738  23.173  0.00  0.00    +0.000 C 
ATOM     27  C   UNL     1      -4.020  12.764  22.030  0.00  0.00    +0.000 C 
ATOM     28  C   UNL     1      -5.420  12.961  22.630  0.00  0.00    +0.000 C 
ENDBRANCH  24  27
ENDBRANCH  22  24
ENDBRANCH  20  23
ENDBRANCH   1  20
BRANCH  10  29
ATOM     29  O   UNL     1       5.221   2.749  18.898  0.00  0.00    +0.000 OA
ATOM     30  H   UNL     1       6.115   2.732  19.281  0.00  0.00    +0.000 HD
ENDBRANCH  10  29
TORSDOF 5
ENDMDL
