MODEL 1
REMARK VINA RESULT:      -5.5      0.000      0.000
REMARK  Name = 
REMARK  4 active torsions:
REMARK  status: ('A' for Active; 'I' for Inactive)
REMARK    1  A    between atoms: C_1  and  S_2
REMARK    2  A    between atoms: S_2  and  C_3
REMARK    3  A    between atoms: N_5  and  C_6
REMARK    4  A    between atoms: C_10  and  C_11
REMARK                            x       y       z     vdW  Elec       q    Type
REMARK                         _______ _______ _______ _____ _____    ______ ____
ROOT
ATOM      1  C   UNL     1       7.044   5.636  17.168  0.00  0.00    +0.000 A 
ATOM      2  N   UNL     1       7.400   5.631  15.920  0.00  0.00    +0.000 NA
ATOM      3  N   UNL     1       6.684   4.801  15.071  0.00  0.00    +0.000 N 
ATOM      4  C   UNL     1       7.121   4.811  13.678  0.00  0.00    +0.000 C 
ATOM      5  C   UNL     1       5.630   4.006  15.503  0.00  0.00    +0.000 A 
ATOM      6  C   UNL     1       5.223   3.973  16.767  0.00  0.00    +0.000 A 
ATOM      7  N   UNL     1       4.248   3.302  17.437  0.00  0.00    +0.000 NA
ATOM      8  C   UNL     1       4.395   3.739  18.661  0.00  0.00    +0.000 A 
ATOM      9  C   UNL     1       3.545   3.294  19.802  0.00  0.00    +0.000 C 
ATOM     10  N   UNL     1       5.408   4.667  18.896  0.00  0.00    +0.000 NA
ATOM     11  C   UNL     1       5.932   4.819  17.710  0.00  0.00    +0.000 A 
ENDROOT
BRANCH   1  13
ATOM     12  C   UNL     1       7.832   8.173  17.668  0.00  0.00    +0.000 C 
ATOM     13  S   UNL     1       7.758   6.546  18.446  0.00  0.00    +0.000 S 
ENDBRANCH   1  13
TORSDOF 1
ENDMDL
MODEL 2
REMARK VINA RESULT:      -5.4      2.085      4.641
REMARK  Name = 
REMARK  4 active torsions:
REMARK  status: ('A' for Active; 'I' for Inactive)
REMARK    1  A    between atoms: C_1  and  S_2
REMARK    2  A    between atoms: S_2  and  C_3
REMARK    3  A    between atoms: N_5  and  C_6
REMARK    4  A    between atoms: C_10  and  C_11
REMARK                            x       y       z     vdW  Elec       q    Type
REMARK                         _______ _______ _______ _____ _____    ______ ____
ROOT
ATOM      1  C   UNL     1       4.919   4.296  17.595  0.00  0.00    +0.000 A 
ATOM      2  N   UNL     1       5.509   4.723  18.670  0.00  0.00    +0.000 NA
ATOM      3  N   UNL     1       6.822   5.150  18.533  0.00  0.00    +0.000 N 
ATOM      4  C   UNL     1       7.458   5.609  19.764  0.00  0.00    +0.000 C 
ATOM      5  C   UNL     1       7.497   5.137  17.319  0.00  0.00    +0.000 A 
ATOM      6  C   UNL     1       6.941   4.714  16.189  0.00  0.00    +0.000 A 
ATOM      7  N   UNL     1       7.368   4.598  14.903  0.00  0.00    +0.000 NA
ATOM      8  C   UNL     1       6.314   4.111  14.299  0.00  0.00    +0.000 A 
ATOM      9  C   UNL     1       6.270   3.798  12.842  0.00  0.00    +0.000 C 
ATOM     10  N   UNL     1       5.180   3.875  15.075  0.00  0.00    +0.000 NA
ATOM     11  C   UNL     1       5.568   4.252  16.263  0.00  0.00    +0.000 A 
ENDROOT
BRANCH   1  13
ATOM     12  C   UNL     1       3.537   2.047  18.172  0.00  0.00    +0.000 C 
ATOM     13  S   UNL     1       3.311   3.692  17.467  0.00  0.00    +0.000 S 
ENDBRANCH   1  13
TORSDOF 1
ENDMDL
MODEL 3
REMARK VINA RESULT:      -5.3      2.719      5.140
REMARK  Name = 
REMARK  4 active torsions:
REMARK  status: ('A' for Active; 'I' for Inactive)
REMARK    1  A    between atoms: C_1  and  S_2
REMARK    2  A    between atoms: S_2  and  C_3
REMARK    3  A    between atoms: N_5  and  C_6
REMARK    4  A    between atoms: C_10  and  C_11
REMARK                            x       y       z     vdW  Elec       q    Type
REMARK                         _______ _______ _______ _____ _____    ______ ____
ROOT
ATOM      1  C   UNL     1       3.509   4.205  17.929  0.00  0.00    +0.000 A 
ATOM      2  N   UNL     1       2.850   5.020  18.697  0.00  0.00    +0.000 NA
ATOM      3  N   UNL     1       3.082   6.374  18.511  0.00  0.00    +0.000 N 
ATOM      4  C   UNL     1       2.336   7.260  19.400  0.00  0.00    +0.000 C 
ATOM      5  C   UNL     1       3.963   6.866  17.557  0.00  0.00    +0.000 A 
ATOM      6  C   UNL     1       4.660   6.079  16.745  0.00  0.00    +0.000 A 
ATOM      7  N   UNL     1       5.565   6.295  15.753  0.00  0.00    +0.000 NA
ATOM      8  C   UNL     1       5.855   5.079  15.367  0.00  0.00    +0.000 A 
ATOM      9  C   UNL     1       6.825   4.771  14.277  0.00  0.00    +0.000 C 
ATOM     10  N   UNL     1       5.219   4.027  16.021  0.00  0.00    +0.000 NA
ATOM     11  C   UNL     1       4.466   4.648  16.888  0.00  0.00    +0.000 A 
ENDROOT
BRANCH   1  13
ATOM     12  C   UNL     1       1.887   2.240  18.833  0.00  0.00    +0.000 C 
ATOM     13  S   UNL     1       3.440   2.483  17.946  0.00  0.00    +0.000 S 
ENDBRANCH   1  13
TORSDOF 1
ENDMDL
MODEL 4
REMARK VINA RESULT:      -5.2      2.556      4.203
REMARK  Name = 
REMARK  4 active torsions:
REMARK  status: ('A' for Active; 'I' for Inactive)
REMARK    1  A    between atoms: C_1  and  S_2
REMARK    2  A    between atoms: S_2  and  C_3
REMARK    3  A    between atoms: N_5  and  C_6
REMARK    4  A    between atoms: C_10  and  C_11
REMARK                            x       y       z     vdW  Elec       q    Type
REMARK                         _______ _______ _______ _____ _____    ______ ____
ROOT
ATOM      1  C   UNL     1       5.619   5.003  18.259  0.00  0.00    +0.000 A 
ATOM      2  N   UNL     1       5.617   3.848  18.852  0.00  0.00    +0.000 NA
ATOM      3  N   UNL     1       4.446   3.482  19.498  0.00  0.00    +0.000 N 
ATOM      4  C   UNL     1       4.485   2.183  20.165  0.00  0.00    +0.000 C 
ATOM      5  C   UNL     1       3.314   4.286  19.525  0.00  0.00    +0.000 A 
ATOM      6  C   UNL     1       3.261   5.475  18.935  0.00  0.00    +0.000 A 
ATOM      7  N   UNL     1       2.307   6.437  18.814  0.00  0.00    +0.000 NA
ATOM      8  C   UNL     1       2.916   7.351  18.104  0.00  0.00    +0.000 A 
ATOM      9  C   UNL     1       2.280   8.635  17.692  0.00  0.00    +0.000 C 
ATOM     10  N   UNL     1       4.232   7.097  17.721  0.00  0.00    +0.000 NA
ATOM     11  C   UNL     1       4.455   5.920  18.240  0.00  0.00    +0.000 A 
ENDROOT
BRANCH   1  13
ATOM     12  C   UNL     1       6.920   4.708  15.908  0.00  0.00    +0.000 C 
ATOM     13  S   UNL     1       6.927   5.724  17.400  0.00  0.00    +0.000 S 
ENDBRANCH   1  13
TORSDOF 1
ENDMDL
MODEL 5
REMARK VINA RESULT:      -5.2      0.827      3.829
REMARK  Name = 
REMARK  4 active torsions:
REMARK  status: ('A' for Active; 'I' for Inactive)
REMARK    1  A    between atoms: C_1  and  S_2
REMARK    2  A    between atoms: S_2  and  C_3
REMARK    3  A    between atoms: N_5  and  C_6
REMARK    4  A    between atoms: C_10  and  C_11
REMARK                            x       y       z     vdW  Elec       q    Type
REMARK                         _______ _______ _______ _____ _____    ______ ____
ROOT
ATOM      1  C   UNL     1       6.420   5.450  17.955  0.00  0.00    +0.000 A 
ATOM      2  N   UNL     1       5.438   5.073  18.716  0.00  0.00    +0.000 NA
ATOM      3  N   UNL     1       4.421   4.352  18.109  0.00  0.00    +0.000 N 
ATOM      4  C   UNL     1       3.327   3.957  18.991  0.00  0.00    +0.000 C 
ATOM      5  C   UNL     1       4.425   4.030  16.757  0.00  0.00    +0.000 A 
ATOM      6  C   UNL     1       5.405   4.389  15.935  0.00  0.00    +0.000 A 
ATOM      7  N   UNL     1       5.648   4.211  14.608  0.00  0.00    +0.000 NA
ATOM      8  C   UNL     1       6.794   4.820  14.448  0.00  0.00    +0.000 A 
ATOM      9  C   UNL     1       7.503   4.910  13.139  0.00  0.00    +0.000 C 
ATOM     10  N   UNL     1       7.369   5.415  15.569  0.00  0.00    +0.000 NA
ATOM     11  C   UNL     1       6.502   5.148  16.506  0.00  0.00    +0.000 A 
ENDROOT
BRANCH   1  13
ATOM     12  C   UNL     1       7.429   7.934  17.613  0.00  0.00    +0.000 C 
ATOM     13  S   UNL     1       7.801   6.367  18.425  0.00  0.00    +0.000 S 
ENDBRANCH   1  13
TORSDOF 1
ENDMDL
MODEL 6
REMARK VINA RESULT:      -5.2      2.866      5.372
REMARK  Name = 
REMARK  4 active torsions:
REMARK  status: ('A' for Active; 'I' for Inactive)
REMARK    1  A    between atoms: C_1  and  S_2
REMARK    2  A    between atoms: S_2  and  C_3
REMARK    3  A    between atoms: N_5  and  C_6
REMARK    4  A    between atoms: C_10  and  C_11
REMARK                            x       y       z     vdW  Elec       q    Type
REMARK                         _______ _______ _______ _____ _____    ______ ____
ROOT
ATOM      1  C   UNL     1       2.653   5.674  19.678  0.00  0.00    +0.000 A 
ATOM      2  N   UNL     1       1.837   4.915  20.345  0.00  0.00    +0.000 NA
ATOM      3  N   UNL     1       2.263   3.622  20.609  0.00  0.00    +0.000 N 
ATOM      4  C   UNL     1       1.315   2.794  21.348  0.00  0.00    +0.000 C 
ATOM      5  C   UNL     1       3.497   3.135  20.198  0.00  0.00    +0.000 A 
ATOM      6  C   UNL     1       4.370   3.867  19.515  0.00  0.00    +0.000 A 
ATOM      7  N   UNL     1       5.611   3.640  19.005  0.00  0.00    +0.000 NA
ATOM      8  C   UNL     1       5.902   4.790  18.452  0.00  0.00    +0.000 A 
ATOM      9  C   UNL     1       7.184   5.060  17.741  0.00  0.00    +0.000 C 
ATOM     10  N   UNL     1       4.950   5.804  18.537  0.00  0.00    +0.000 NA
ATOM     11  C   UNL     1       3.986   5.231  19.205  0.00  0.00    +0.000 A 
ENDROOT
BRANCH   1  13
ATOM     12  C   UNL     1       1.553   7.938  20.663  0.00  0.00    +0.000 C 
ATOM     13  S   UNL     1       2.388   7.306  19.193  0.00  0.00    +0.000 S 
ENDBRANCH   1  13
TORSDOF 1
ENDMDL
MODEL 7
REMARK VINA RESULT:      -5.2      2.967      3.383
REMARK  Name = 
REMARK  4 active torsions:
REMARK  status: ('A' for Active; 'I' for Inactive)
REMARK    1  A    between atoms: C_1  and  S_2
REMARK    2  A    between atoms: S_2  and  C_3
REMARK    3  A    between atoms: N_5  and  C_6
REMARK    4  A    between atoms: C_10  and  C_11
REMARK                            x       y       z     vdW  Elec       q    Type
REMARK                         _______ _______ _______ _____ _____    ______ ____
ROOT
ATOM      1  C   UNL     1       3.399   6.193  17.992  0.00  0.00    +0.000 A 
ATOM      2  N   UNL     1       4.465   6.428  17.290  0.00  0.00    +0.000 NA
ATOM      3  N   UNL     1       5.011   5.352  16.606  0.00  0.00    +0.000 N 
ATOM      4  C   UNL     1       6.216   5.651  15.839  0.00  0.00    +0.000 C 
ATOM      5  C   UNL     1       4.466   4.075  16.648  0.00  0.00    +0.000 A 
ATOM      6  C   UNL     1       3.376   3.780  17.348  0.00  0.00    +0.000 A 
ATOM      7  N   UNL     1       2.656   2.644  17.555  0.00  0.00    +0.000 NA
ATOM      8  C   UNL     1       1.702   3.057  18.350  0.00  0.00    +0.000 A 
ATOM      9  C   UNL     1       0.628   2.168  18.878  0.00  0.00    +0.000 C 
ATOM     10  N   UNL     1       1.706   4.402  18.715  0.00  0.00    +0.000 NA
ATOM     11  C   UNL     1       2.755   4.861  18.089  0.00  0.00    +0.000 A 
ENDROOT
BRANCH   1  13
ATOM     12  C   UNL     1       2.236   8.618  17.729  0.00  0.00    +0.000 C 
ATOM     13  S   UNL     1       2.521   7.323  18.952  0.00  0.00    +0.000 S 
ENDBRANCH   1  13
TORSDOF 1
ENDMDL
MODEL 8
REMARK VINA RESULT:      -5.1      1.986      3.269
REMARK  Name = 
REMARK  4 active torsions:
REMARK  status: ('A' for Active; 'I' for Inactive)
REMARK    1  A    between atoms: C_1  and  S_2
REMARK    2  A    between atoms: S_2  and  C_3
REMARK    3  A    between atoms: N_5  and  C_6
REMARK    4  A    between atoms: C_10  and  C_11
REMARK                            x       y       z     vdW  Elec       q    Type
REMARK                         _______ _______ _______ _____ _____    ______ ____
ROOT
ATOM      1  C   UNL     1       5.793   4.526  16.589  0.00  0.00    +0.000 A 
ATOM      2  N   UNL     1       6.818   5.134  17.106  0.00  0.00    +0.000 NA
ATOM      3  N   UNL     1       6.762   5.400  18.466  0.00  0.00    +0.000 N 
ATOM      4  C   UNL     1       7.924   6.096  19.010  0.00  0.00    +0.000 C 
ATOM      5  C   UNL     1       5.681   5.046  19.262  0.00  0.00    +0.000 A 
ATOM      6  C   UNL     1       4.609   4.422  18.786  0.00  0.00    +0.000 A 
ATOM      7  N   UNL     1       3.446   3.976  19.331  0.00  0.00    +0.000 NA
ATOM      8  C   UNL     1       2.833   3.453  18.300  0.00  0.00    +0.000 A 
ATOM      9  C   UNL     1       1.487   2.817  18.377  0.00  0.00    +0.000 C 
ATOM     10  N   UNL     1       3.485   3.506  17.070  0.00  0.00    +0.000 NA
ATOM     11  C   UNL     1       4.601   4.113  17.368  0.00  0.00    +0.000 A 
ENDROOT
BRANCH   1  13
ATOM     12  C   UNL     1       7.039   4.853  14.213  0.00  0.00    +0.000 C 
ATOM     13  S   UNL     1       5.576   4.086  14.937  0.00  0.00    +0.000 S 
ENDBRANCH   1  13
TORSDOF 1
ENDMDL
MODEL 9
REMARK VINA RESULT:      -5.1      1.744      3.076
REMARK  Name = 
REMARK  4 active torsions:
REMARK  status: ('A' for Active; 'I' for Inactive)
REMARK    1  A    between atoms: C_1  and  S_2
REMARK    2  A    between atoms: S_2  and  C_3
REMARK    3  A    between atoms: N_5  and  C_6
REMARK    4  A    between atoms: C_10  and  C_11
REMARK                            x       y       z     vdW  Elec       q    Type
REMARK                         _______ _______ _______ _____ _____    ______ ____
ROOT
ATOM      1  C   UNL     1       6.057   5.026  16.190  0.00  0.00    +0.000 A 
ATOM      2  N   UNL     1       6.893   5.969  16.505  0.00  0.00    +0.000 NA
ATOM      3  N   UNL     1       7.030   6.255  17.855  0.00  0.00    +0.000 N 
ATOM      4  C   UNL     1       7.967   7.328  18.171  0.00  0.00    +0.000 C 
ATOM      5  C   UNL     1       6.325   5.582  18.845  0.00  0.00    +0.000 A 
ATOM      6  C   UNL     1       5.460   4.610  18.579  0.00  0.00    +0.000 A 
ATOM      7  N   UNL     1       4.660   3.813  19.338  0.00  0.00    +0.000 NA
ATOM      8  C   UNL     1       4.067   3.071  18.438  0.00  0.00    +0.000 A 
ATOM      9  C   UNL     1       3.069   2.014  18.769  0.00  0.00    +0.000 C 
ATOM     10  N   UNL     1       4.393   3.296  17.102  0.00  0.00    +0.000 NA
ATOM     11  C   UNL     1       5.268   4.261  17.184  0.00  0.00    +0.000 A 
ENDROOT
BRANCH   1  13
ATOM     12  C   UNL     1       7.216   4.855  13.754  0.00  0.00    +0.000 C 
ATOM     13  S   UNL     1       5.671   4.472  14.605  0.00  0.00    +0.000 S 
ENDBRANCH   1  13
TORSDOF 1
ENDMDL
