MODEL 1
REMARK VINA RESULT:      -7.3      0.000      0.000
REMARK  Name = 
REMARK  7 active torsions:
REMARK  status: ('A' for Active; 'I' for Inactive)
REMARK    1  A    between atoms: C_2  and  C_3
REMARK    2  A    between atoms: C_3  and  C_4
REMARK    3  A    between atoms: C_4  and  C_5
REMARK    4  A    between atoms: C_5  and  C_6
REMARK    5  A    between atoms: C_6  and  N_7
REMARK    6  A    between atoms: N_13  and  C_14
REMARK    7  A    between atoms: C_17  and  C_18
REMARK                            x       y       z     vdW  Elec       q    Type
REMARK                         _______ _______ _______ _____ _____    ______ ____
ROOT
ATOM      1  O   UNL     1       0.577   4.659  20.364  0.00  0.00    +0.000 OA
ATOM      2  C   UNL     1       1.800   4.702  20.460  0.00  0.00    +0.000 C 
ATOM      3  N   UNL     1       2.607   5.784  20.160  0.00  0.00    +0.000 N 
ATOM      4  H   UNL     1       3.605   5.617  20.115  0.00  0.00    +0.000 HD
ENDROOT
BRANCH   3   5
ATOM      5  C   UNL     1       2.172   7.081  19.818  0.00  0.00    +0.000 A 
ATOM      6  C   UNL     1       2.326   7.635  18.549  0.00  0.00    +0.000 A 
ATOM      7  C   UNL     1       1.858   8.927  18.269  0.00  0.00    +0.000 A 
ATOM      8  C   UNL     1       1.208   9.709  19.238  0.00  0.00    +0.000 A 
ATOM      9  C   UNL     1       1.057   9.131  20.511  0.00  0.00    +0.000 A 
ATOM     10  C   UNL     1       1.527   7.838  20.797  0.00  0.00    +0.000 A 
BRANCH   8  11
ATOM     11  C   UNL     1       0.687  11.059  18.915  0.00  0.00    +0.000 A 
ATOM     12  C   UNL     1       1.511  12.197  18.979  0.00  0.00    +0.000 A 
ATOM     13  C   UNL     1       1.016  13.462  18.657  0.00  0.00    +0.000 A 
ATOM     14  C   UNL     1      -0.305  13.568  18.265  0.00  0.00    +0.000 A 
ATOM     15  N   UNL     1      -1.143  12.517  18.190  0.00  0.00    +0.000 NA
ATOM     16  C   UNL     1      -0.634  11.304  18.519  0.00  0.00    +0.000 A 
ATOM     17  F   UNL     1      -1.506  10.283  18.456  0.00  0.00    +0.000 F 
ENDBRANCH   8  11
ENDBRANCH   3   5
BRANCH   2  18
ATOM     18  C   UNL     1       2.564   3.490  20.961  0.00  0.00    +0.000 C 
BRANCH  18  19
ATOM     19  C   UNL     1       2.524   2.307  19.993  0.00  0.00    +0.000 C 
BRANCH  19  20
ATOM     20  C   UNL     1       3.724   2.202  19.044  0.00  0.00    +0.000 C 
BRANCH  20  21
ATOM     21  C   UNL     1       4.872   3.154  19.387  0.00  0.00    +0.000 C 
BRANCH  21  22
ATOM     22  N   UNL     1       4.982   4.360  18.570  0.00  0.00    +0.000 NA
ATOM     23  C   UNL     1       4.505   4.232  17.183  0.00  0.00    +0.000 C 
ATOM     24  C   UNL     1       5.592   3.959  16.125  0.00  0.00    +0.000 C 
ATOM     25  O   UNL     1       6.709   4.846  16.260  0.00  0.00    +0.000 OA
ATOM     26  C   UNL     1       7.280   4.720  17.566  0.00  0.00    +0.000 C 
ATOM     27  C   UNL     1       6.258   5.079  18.653  0.00  0.00    +0.000 C 
ENDBRANCH  21  22
ENDBRANCH  20  21
ENDBRANCH  19  20
ENDBRANCH  18  19
ENDBRANCH   2  18
TORSDOF 7
ENDMDL
MODEL 2
REMARK VINA RESULT:      -7.3      0.592      1.109
REMARK  Name = 
REMARK  7 active torsions:
REMARK  status: ('A' for Active; 'I' for Inactive)
REMARK    1  A    between atoms: C_2  and  C_3
REMARK    2  A    between atoms: C_3  and  C_4
REMARK    3  A    between atoms: C_4  and  C_5
REMARK    4  A    between atoms: C_5  and  C_6
REMARK    5  A    between atoms: C_6  and  N_7
REMARK    6  A    between atoms: N_13  and  C_14
REMARK    7  A    between atoms: C_17  and  C_18
REMARK                            x       y       z     vdW  Elec       q    Type
REMARK                         _______ _______ _______ _____ _____    ______ ____
ROOT
ATOM      1  O   UNL     1       0.790   4.628  20.355  0.00  0.00    +0.000 OA
ATOM      2  C   UNL     1       2.010   4.762  20.374  0.00  0.00    +0.000 C 
ATOM      3  N   UNL     1       2.710   5.920  20.087  0.00  0.00    +0.000 N 
ATOM      4  H   UNL     1       3.712   5.835  19.968  0.00  0.00    +0.000 HD
ENDROOT
BRANCH   3   5
ATOM      5  C   UNL     1       2.156   7.195  19.853  0.00  0.00    +0.000 A 
ATOM      6  C   UNL     1       1.505   7.943  20.832  0.00  0.00    +0.000 A 
ATOM      7  C   UNL     1       0.987   9.212  20.538  0.00  0.00    +0.000 A 
ATOM      8  C   UNL     1       1.110   9.789  19.263  0.00  0.00    +0.000 A 
ATOM      9  C   UNL     1       1.775   9.022  18.290  0.00  0.00    +0.000 A 
ATOM     10  C   UNL     1       2.292   7.748  18.579  0.00  0.00    +0.000 A 
BRANCH   8  11
ATOM     11  C   UNL     1       0.589  11.148  18.980  0.00  0.00    +0.000 A 
ATOM     12  C   UNL     1       1.399  12.288  19.120  0.00  0.00    +0.000 A 
ATOM     13  C   UNL     1       0.906  13.562  18.835  0.00  0.00    +0.000 A 
ATOM     14  C   UNL     1      -0.402  13.675  18.403  0.00  0.00    +0.000 A 
ATOM     15  N   UNL     1      -1.228  12.623  18.254  0.00  0.00    +0.000 NA
ATOM     16  C   UNL     1      -0.721  11.400  18.549  0.00  0.00    +0.000 A 
ATOM     17  F   UNL     1      -1.581  10.376  18.413  0.00  0.00    +0.000 F 
ENDBRANCH   8  11
ENDBRANCH   3   5
BRANCH   2  18
ATOM     18  C   UNL     1       2.897   3.589  20.751  0.00  0.00    +0.000 C 
BRANCH  18  19
ATOM     19  C   UNL     1       2.969   2.513  19.668  0.00  0.00    +0.000 C 
BRANCH  19  20
ATOM     20  C   UNL     1       3.873   2.849  18.476  0.00  0.00    +0.000 C 
BRANCH  20  21
ATOM     21  C   UNL     1       5.080   3.718  18.838  0.00  0.00    +0.000 C 
BRANCH  21  22
ATOM     22  N   UNL     1       5.094   5.072  18.289  0.00  0.00    +0.000 NA
ATOM     23  C   UNL     1       4.465   5.226  16.967  0.00  0.00    +0.000 C 
ATOM     24  C   UNL     1       5.427   5.212  15.764  0.00  0.00    +0.000 C 
ATOM     25  O   UNL     1       6.549   6.080  15.961  0.00  0.00    +0.000 OA
ATOM     26  C   UNL     1       7.264   5.696  17.140  0.00  0.00    +0.000 C 
ATOM     27  C   UNL     1       6.369   5.791  18.383  0.00  0.00    +0.000 C 
ENDBRANCH  21  22
ENDBRANCH  20  21
ENDBRANCH  19  20
ENDBRANCH  18  19
ENDBRANCH   2  18
TORSDOF 7
ENDMDL
MODEL 3
REMARK VINA RESULT:      -7.2      1.456      2.100
REMARK  Name = 
REMARK  7 active torsions:
REMARK  status: ('A' for Active; 'I' for Inactive)
REMARK    1  A    between atoms: C_2  and  C_3
REMARK    2  A    between atoms: C_3  and  C_4
REMARK    3  A    between atoms: C_4  and  C_5
REMARK    4  A    between atoms: C_5  and  C_6
REMARK    5  A    between atoms: C_6  and  N_7
REMARK    6  A    between atoms: N_13  and  C_14
REMARK    7  A    between atoms: C_17  and  C_18
REMARK                            x       y       z     vdW  Elec       q    Type
REMARK                         _______ _______ _______ _____ _____    ______ ____
ROOT
ATOM      1  O   UNL     1       1.418   4.587  17.982  0.00  0.00    +0.000 OA
ATOM      2  C   UNL     1       2.453   4.679  18.636  0.00  0.00    +0.000 C 
ATOM      3  N   UNL     1       2.971   5.835  19.191  0.00  0.00    +0.000 N 
ATOM      4  H   UNL     1       3.918   5.792  19.548  0.00  0.00    +0.000 HD
ENDROOT
BRANCH   3   5
ATOM      5  C   UNL     1       2.343   7.098  19.227  0.00  0.00    +0.000 A 
ATOM      6  C   UNL     1       1.804   7.656  20.385  0.00  0.00    +0.000 A 
ATOM      7  C   UNL     1       1.205   8.923  20.357  0.00  0.00    +0.000 A 
ATOM      8  C   UNL     1       1.133   9.687  19.180  0.00  0.00    +0.000 A 
ATOM      9  C   UNL     1       1.689   9.110  18.024  0.00  0.00    +0.000 A 
ATOM     10  C   UNL     1       2.287   7.839  18.047  0.00  0.00    +0.000 A 
BRANCH   8  11
ATOM     11  C   UNL     1       0.529  11.041  19.176  0.00  0.00    +0.000 A 
ATOM     12  C   UNL     1       1.114  12.107  19.882  0.00  0.00    +0.000 A 
ATOM     13  C   UNL     1       0.548  13.382  19.860  0.00  0.00    +0.000 A 
ATOM     14  C   UNL     1      -0.602  13.575  19.118  0.00  0.00    +0.000 A 
ATOM     15  N   UNL     1      -1.211  12.594  18.426  0.00  0.00    +0.000 NA
ATOM     16  C   UNL     1      -0.641  11.364  18.477  0.00  0.00    +0.000 A 
ATOM     17  F   UNL     1      -1.291  10.405  17.795  0.00  0.00    +0.000 F 
ENDBRANCH   8  11
ENDBRANCH   3   5
BRANCH   2  18
ATOM     18  C   UNL     1       3.289   3.442  18.913  0.00  0.00    +0.000 C 
BRANCH  18  19
ATOM     19  C   UNL     1       3.873   2.812  17.648  0.00  0.00    +0.000 C 
BRANCH  19  20
ATOM     20  C   UNL     1       4.530   3.799  16.675  0.00  0.00    +0.000 C 
BRANCH  20  21
ATOM     21  C   UNL     1       5.894   4.317  17.141  0.00  0.00    +0.000 C 
BRANCH  21  22
ATOM     22  N   UNL     1       5.884   5.531  17.953  0.00  0.00    +0.000 NA
ATOM     23  C   UNL     1       6.150   6.782  17.226  0.00  0.00    +0.000 C 
ATOM     24  C   UNL     1       7.603   7.293  17.284  0.00  0.00    +0.000 C 
ATOM     25  O   UNL     1       8.120   7.295  18.619  0.00  0.00    +0.000 OA
ATOM     26  C   UNL     1       8.063   5.974  19.168  0.00  0.00    +0.000 C 
ATOM     27  C   UNL     1       6.618   5.461  19.222  0.00  0.00    +0.000 C 
ENDBRANCH  21  22
ENDBRANCH  20  21
ENDBRANCH  19  20
ENDBRANCH  18  19
ENDBRANCH   2  18
TORSDOF 7
ENDMDL
MODEL 4
REMARK VINA RESULT:      -7.1      1.298      1.875
REMARK  Name = 
REMARK  7 active torsions:
REMARK  status: ('A' for Active; 'I' for Inactive)
REMARK    1  A    between atoms: C_2  and  C_3
REMARK    2  A    between atoms: C_3  and  C_4
REMARK    3  A    between atoms: C_4  and  C_5
REMARK    4  A    between atoms: C_5  and  C_6
REMARK    5  A    between atoms: C_6  and  N_7
REMARK    6  A    between atoms: N_13  and  C_14
REMARK    7  A    between atoms: C_17  and  C_18
REMARK                            x       y       z     vdW  Elec       q    Type
REMARK                         _______ _______ _______ _____ _____    ______ ____
ROOT
ATOM      1  O   UNL     1       0.813   4.559  20.391  0.00  0.00    +0.000 OA
ATOM      2  C   UNL     1       2.032   4.701  20.385  0.00  0.00    +0.000 C 
ATOM      3  N   UNL     1       2.720   5.859  20.070  0.00  0.00    +0.000 N 
ATOM      4  H   UNL     1       3.719   5.779  19.933  0.00  0.00    +0.000 HD
ENDROOT
BRANCH   3   5
ATOM      5  C   UNL     1       2.152   7.128  19.831  0.00  0.00    +0.000 A 
ATOM      6  C   UNL     1       1.488   7.870  20.806  0.00  0.00    +0.000 A 
ATOM      7  C   UNL     1       0.958   9.133  20.507  0.00  0.00    +0.000 A 
ATOM      8  C   UNL     1       1.081   9.710  19.232  0.00  0.00    +0.000 A 
ATOM      9  C   UNL     1       1.761   8.948  18.264  0.00  0.00    +0.000 A 
ATOM     10  C   UNL     1       2.290   7.681  18.558  0.00  0.00    +0.000 A 
BRANCH   8  11
ATOM     11  C   UNL     1       0.547  11.063  18.943  0.00  0.00    +0.000 A 
ATOM     12  C   UNL     1      -0.836  11.318  18.934  0.00  0.00    +0.000 A 
ATOM     13  C   UNL     1      -1.330  12.597  18.678  0.00  0.00    +0.000 A 
ATOM     14  C   UNL     1      -0.423  13.614  18.440  0.00  0.00    +0.000 A 
ATOM     15  N   UNL     1       0.910  13.430  18.431  0.00  0.00    +0.000 NA
ATOM     16  C   UNL     1       1.358  12.173  18.673  0.00  0.00    +0.000 A 
ATOM     17  F   UNL     1       2.693  12.023  18.631  0.00  0.00    +0.000 F 
ENDBRANCH   8  11
ENDBRANCH   3   5
BRANCH   2  18
ATOM     18  C   UNL     1       2.934   3.539  20.760  0.00  0.00    +0.000 C 
BRANCH  18  19
ATOM     19  C   UNL     1       3.499   2.797  19.548  0.00  0.00    +0.000 C 
BRANCH  19  20
ATOM     20  C   UNL     1       4.689   3.482  18.865  0.00  0.00    +0.000 C 
BRANCH  20  21
ATOM     21  C   UNL     1       4.530   3.640  17.350  0.00  0.00    +0.000 C 
BRANCH  21  22
ATOM     22  N   UNL     1       4.871   4.947  16.794  0.00  0.00    +0.000 NA
ATOM     23  C   UNL     1       5.386   4.935  15.416  0.00  0.00    +0.000 C 
ATOM     24  C   UNL     1       6.921   4.976  15.276  0.00  0.00    +0.000 C 
ATOM     25  O   UNL     1       7.508   5.996  16.090  0.00  0.00    +0.000 OA
ATOM     26  C   UNL     1       7.167   5.785  17.464  0.00  0.00    +0.000 C 
ATOM     27  C   UNL     1       5.646   5.834  17.668  0.00  0.00    +0.000 C 
ENDBRANCH  21  22
ENDBRANCH  20  21
ENDBRANCH  19  20
ENDBRANCH  18  19
ENDBRANCH   2  18
TORSDOF 7
ENDMDL
MODEL 5
REMARK VINA RESULT:      -7.1      2.315      4.229
REMARK  Name = 
REMARK  7 active torsions:
REMARK  status: ('A' for Active; 'I' for Inactive)
REMARK    1  A    between atoms: C_2  and  C_3
REMARK    2  A    between atoms: C_3  and  C_4
REMARK    3  A    between atoms: C_4  and  C_5
REMARK    4  A    between atoms: C_5  and  C_6
REMARK    5  A    between atoms: C_6  and  N_7
REMARK    6  A    between atoms: N_13  and  C_14
REMARK    7  A    between atoms: C_17  and  C_18
REMARK                            x       y       z     vdW  Elec       q    Type
REMARK                         _______ _______ _______ _____ _____    ______ ____
ROOT
ATOM      1  O   UNL     1       5.478   7.413  17.726  0.00  0.00    +0.000 OA
ATOM      2  C   UNL     1       4.696   6.615  17.218  0.00  0.00    +0.000 C 
ATOM      3  N   UNL     1       3.354   6.475  17.524  0.00  0.00    +0.000 N 
ATOM      4  H   UNL     1       2.880   5.659  17.156  0.00  0.00    +0.000 HD
ENDROOT
BRANCH   3   5
ATOM      5  C   UNL     1       2.601   7.308  18.376  0.00  0.00    +0.000 A 
ATOM      6  C   UNL     1       2.349   7.013  19.715  0.00  0.00    +0.000 A 
ATOM      7  C   UNL     1       1.603   7.891  20.514  0.00  0.00    +0.000 A 
ATOM      8  C   UNL     1       1.093   9.101  20.014  0.00  0.00    +0.000 A 
ATOM      9  C   UNL     1       1.363   9.384  18.663  0.00  0.00    +0.000 A 
ATOM     10  C   UNL     1       2.107   8.506  17.858  0.00  0.00    +0.000 A 
BRANCH   8  11
ATOM     11  C   UNL     1       0.338  10.036  20.883  0.00  0.00    +0.000 A 
ATOM     12  C   UNL     1      -0.419  11.090  20.342  0.00  0.00    +0.000 A 
ATOM     13  C   UNL     1      -1.140  11.954  21.166  0.00  0.00    +0.000 A 
ATOM     14  C   UNL     1      -1.098  11.745  22.532  0.00  0.00    +0.000 A 
ATOM     15  N   UNL     1      -0.388  10.757  23.109  0.00  0.00    +0.000 NA
ATOM     16  C   UNL     1       0.310   9.940  22.281  0.00  0.00    +0.000 A 
ATOM     17  F   UNL     1       1.026   8.982  22.894  0.00  0.00    +0.000 F 
ENDBRANCH   8  11
ENDBRANCH   3   5
BRANCH   2  18
ATOM     18  C   UNL     1       5.177   5.668  16.133  0.00  0.00    +0.000 C 
BRANCH  18  19
ATOM     19  C   UNL     1       5.407   4.242  16.633  0.00  0.00    +0.000 C 
BRANCH  19  20
ATOM     20  C   UNL     1       4.212   3.295  16.470  0.00  0.00    +0.000 C 
BRANCH  20  21
ATOM     21  C   UNL     1       3.703   2.703  17.786  0.00  0.00    +0.000 C 
BRANCH  21  22
ATOM     22  N   UNL     1       2.934   3.599  18.646  0.00  0.00    +0.000 NA
ATOM     23  C   UNL     1       3.342   3.626  20.060  0.00  0.00    +0.000 C 
ATOM     24  C   UNL     1       2.518   2.736  21.011  0.00  0.00    +0.000 C 
ATOM     25  O   UNL     1       1.109   2.910  20.825  0.00  0.00    +0.000 OA
ATOM     26  C   UNL     1       0.752   2.611  19.472  0.00  0.00    +0.000 C 
ATOM     27  C   UNL     1       1.476   3.543  18.492  0.00  0.00    +0.000 C 
ENDBRANCH  21  22
ENDBRANCH  20  21
ENDBRANCH  19  20
ENDBRANCH  18  19
ENDBRANCH   2  18
TORSDOF 7
ENDMDL
MODEL 6
REMARK VINA RESULT:      -7.0      1.380      1.770
REMARK  Name = 
REMARK  7 active torsions:
REMARK  status: ('A' for Active; 'I' for Inactive)
REMARK    1  A    between atoms: C_2  and  C_3
REMARK    2  A    between atoms: C_3  and  C_4
REMARK    3  A    between atoms: C_4  and  C_5
REMARK    4  A    between atoms: C_5  and  C_6
REMARK    5  A    between atoms: C_6  and  N_7
REMARK    6  A    between atoms: N_13  and  C_14
REMARK    7  A    between atoms: C_17  and  C_18
REMARK                            x       y       z     vdW  Elec       q    Type
REMARK                         _______ _______ _______ _____ _____    ______ ____
ROOT
ATOM      1  O   UNL     1       1.571   4.690  17.713  0.00  0.00    +0.000 OA
ATOM      2  C   UNL     1       2.356   4.709  18.657  0.00  0.00    +0.000 C 
ATOM      3  N   UNL     1       2.793   5.833  19.335  0.00  0.00    +0.000 N 
ATOM      4  H   UNL     1       3.573   5.714  19.969  0.00  0.00    +0.000 HD
ENDROOT
BRANCH   3   5
ATOM      5  C   UNL     1       2.319   7.150  19.161  0.00  0.00    +0.000 A 
ATOM      6  C   UNL     1       2.420   7.852  17.962  0.00  0.00    +0.000 A 
ATOM      7  C   UNL     1       1.916   9.155  17.850  0.00  0.00    +0.000 A 
ATOM      8  C   UNL     1       1.280   9.802  18.923  0.00  0.00    +0.000 A 
ATOM      9  C   UNL     1       1.181   9.075  20.123  0.00  0.00    +0.000 A 
ATOM     10  C   UNL     1       1.688   7.770  20.240  0.00  0.00    +0.000 A 
BRANCH   8  11
ATOM     11  C   UNL     1       0.719  11.167  18.777  0.00  0.00    +0.000 A 
ATOM     12  C   UNL     1       1.539  12.308  18.845  0.00  0.00    +0.000 A 
ATOM     13  C   UNL     1       1.006  13.587  18.690  0.00  0.00    +0.000 A 
ATOM     14  C   UNL     1      -0.352  13.707  18.458  0.00  0.00    +0.000 A 
ATOM     15  N   UNL     1      -1.188  12.655  18.387  0.00  0.00    +0.000 NA
ATOM     16  C   UNL     1      -0.640  11.425  18.553  0.00  0.00    +0.000 A 
ATOM     17  F   UNL     1      -1.508  10.401  18.500  0.00  0.00    +0.000 F 
ENDBRANCH   8  11
ENDBRANCH   3   5
BRANCH   2  18
ATOM     18  C   UNL     1       2.933   3.411  19.192  0.00  0.00    +0.000 C 
BRANCH  18  19
ATOM     19  C   UNL     1       4.338   3.112  18.667  0.00  0.00    +0.000 C 
BRANCH  19  20
ATOM     20  C   UNL     1       4.552   3.409  17.178  0.00  0.00    +0.000 C 
BRANCH  20  21
ATOM     21  C   UNL     1       5.637   4.453  16.901  0.00  0.00    +0.000 C 
BRANCH  21  22
ATOM     22  N   UNL     1       5.745   5.547  17.862  0.00  0.00    +0.000 NA
ATOM     23  C   UNL     1       5.990   6.878  17.283  0.00  0.00    +0.000 C 
ATOM     24  C   UNL     1       7.460   7.341  17.271  0.00  0.00    +0.000 C 
ATOM     25  O   UNL     1       8.094   7.151  18.541  0.00  0.00    +0.000 OA
ATOM     26  C   UNL     1       8.039   5.771  18.915  0.00  0.00    +0.000 C 
ATOM     27  C   UNL     1       6.586   5.291  19.036  0.00  0.00    +0.000 C 
ENDBRANCH  21  22
ENDBRANCH  20  21
ENDBRANCH  19  20
ENDBRANCH  18  19
ENDBRANCH   2  18
TORSDOF 7
ENDMDL
MODEL 7
REMARK VINA RESULT:      -7.0      2.046      4.169
REMARK  Name = 
REMARK  7 active torsions:
REMARK  status: ('A' for Active; 'I' for Inactive)
REMARK    1  A    between atoms: C_2  and  C_3
REMARK    2  A    between atoms: C_3  and  C_4
REMARK    3  A    between atoms: C_4  and  C_5
REMARK    4  A    between atoms: C_5  and  C_6
REMARK    5  A    between atoms: C_6  and  N_7
REMARK    6  A    between atoms: N_13  and  C_14
REMARK    7  A    between atoms: C_17  and  C_18
REMARK                            x       y       z     vdW  Elec       q    Type
REMARK                         _______ _______ _______ _____ _____    ______ ____
ROOT
ATOM      1  O   UNL     1       5.622   7.510  17.825  0.00  0.00    +0.000 OA
ATOM      2  C   UNL     1       4.867   6.802  17.165  0.00  0.00    +0.000 C 
ATOM      3  N   UNL     1       3.508   6.643  17.367  0.00  0.00    +0.000 N 
ATOM      4  H   UNL     1       3.051   5.893  16.862  0.00  0.00    +0.000 HD
ENDROOT
BRANCH   3   5
ATOM      5  C   UNL     1       2.709   7.364  18.278  0.00  0.00    +0.000 A 
ATOM      6  C   UNL     1       2.477   6.954  19.590  0.00  0.00    +0.000 A 
ATOM      7  C   UNL     1       1.683   7.724  20.451  0.00  0.00    +0.000 A 
ATOM      8  C   UNL     1       1.104   8.937  20.044  0.00  0.00    +0.000 A 
ATOM      9  C   UNL     1       1.355   9.338  18.719  0.00  0.00    +0.000 A 
ATOM     10  C   UNL     1       2.146   8.567  17.852  0.00  0.00    +0.000 A 
BRANCH   8  11
ATOM     11  C   UNL     1       0.297   9.758  20.980  0.00  0.00    +0.000 A 
ATOM     12  C   UNL     1       0.139   9.391  22.328  0.00  0.00    +0.000 A 
ATOM     13  C   UNL     1      -0.608  10.177  23.205  0.00  0.00    +0.000 A 
ATOM     14  C   UNL     1      -1.184  11.335  22.717  0.00  0.00    +0.000 A 
ATOM     15  N   UNL     1      -1.072  11.737  21.437  0.00  0.00    +0.000 NA
ATOM     16  C   UNL     1      -0.349  10.944  20.608  0.00  0.00    +0.000 A 
ATOM     17  F   UNL     1      -0.281  11.364  19.333  0.00  0.00    +0.000 F 
ENDBRANCH   8  11
ENDBRANCH   3   5
BRANCH   2  18
ATOM     18  C   UNL     1       5.408   6.004  15.992  0.00  0.00    +0.000 C 
BRANCH  18  19
ATOM     19  C   UNL     1       4.722   4.649  15.815  0.00  0.00    +0.000 C 
BRANCH  19  20
ATOM     20  C   UNL     1       5.124   3.580  16.837  0.00  0.00    +0.000 C 
BRANCH  20  21
ATOM     21  C   UNL     1       3.937   2.864  17.488  0.00  0.00    +0.000 C 
BRANCH  21  22
ATOM     22  N   UNL     1       3.087   3.675  18.355  0.00  0.00    +0.000 NA
ATOM     23  C   UNL     1       3.399   3.609  19.792  0.00  0.00    +0.000 C 
ATOM     24  C   UNL     1       2.539   2.631  20.618  0.00  0.00    +0.000 C 
ATOM     25  O   UNL     1       1.141   2.785  20.349  0.00  0.00    +0.000 OA
ATOM     26  C   UNL     1       0.884   2.577  18.957  0.00  0.00    +0.000 C 
ATOM     27  C   UNL     1       1.645   3.596  18.097  0.00  0.00    +0.000 C 
ENDBRANCH  21  22
ENDBRANCH  20  21
ENDBRANCH  19  20
ENDBRANCH  18  19
ENDBRANCH   2  18
TORSDOF 7
ENDMDL
MODEL 8
REMARK VINA RESULT:      -6.9      1.994      4.040
REMARK  Name = 
REMARK  7 active torsions:
REMARK  status: ('A' for Active; 'I' for Inactive)
REMARK    1  A    between atoms: C_2  and  C_3
REMARK    2  A    between atoms: C_3  and  C_4
REMARK    3  A    between atoms: C_4  and  C_5
REMARK    4  A    between atoms: C_5  and  C_6
REMARK    5  A    between atoms: C_6  and  N_7
REMARK    6  A    between atoms: N_13  and  C_14
REMARK    7  A    between atoms: C_17  and  C_18
REMARK                            x       y       z     vdW  Elec       q    Type
REMARK                         _______ _______ _______ _____ _____    ______ ____
ROOT
ATOM      1  O   UNL     1       5.380   7.430  17.470  0.00  0.00    +0.000 OA
ATOM      2  C   UNL     1       4.611   6.545  17.107  0.00  0.00    +0.000 C 
ATOM      3  N   UNL     1       3.313   6.358  17.547  0.00  0.00    +0.000 N 
ATOM      4  H   UNL     1       2.862   5.486  17.297  0.00  0.00    +0.000 HD
ENDROOT
BRANCH   3   5
ATOM      5  C   UNL     1       2.584   7.223  18.390  0.00  0.00    +0.000 A 
ATOM      6  C   UNL     1       2.081   8.455  17.977  0.00  0.00    +0.000 A 
ATOM      7  C   UNL     1       1.351   9.263  18.860  0.00  0.00    +0.000 A 
ATOM      8  C   UNL     1       1.083   8.868  20.182  0.00  0.00    +0.000 A 
ATOM      9  C   UNL     1       1.594   7.619  20.577  0.00  0.00    +0.000 A 
ATOM     10  C   UNL     1       2.328   6.808  19.697  0.00  0.00    +0.000 A 
BRANCH   8  11
ATOM     11  C   UNL     1       0.278   9.718  21.091  0.00  0.00    +0.000 A 
ATOM     12  C   UNL     1       0.122   9.395  22.451  0.00  0.00    +0.000 A 
ATOM     13  C   UNL     1      -0.623  10.209  23.303  0.00  0.00    +0.000 A 
ATOM     14  C   UNL     1      -1.201  11.351  22.780  0.00  0.00    +0.000 A 
ATOM     15  N   UNL     1      -1.091  11.711  21.487  0.00  0.00    +0.000 NA
ATOM     16  C   UNL     1      -0.368  10.892  20.682  0.00  0.00    +0.000 A 
ATOM     17  F   UNL     1      -0.302  11.271  19.394  0.00  0.00    +0.000 F 
ENDBRANCH   8  11
ENDBRANCH   3   5
BRANCH   2  18
ATOM     18  C   UNL     1       5.056   5.531  16.069  0.00  0.00    +0.000 C 
BRANCH  18  19
ATOM     19  C   UNL     1       5.550   4.219  16.678  0.00  0.00    +0.000 C 
BRANCH  19  20
ATOM     20  C   UNL     1       4.458   3.335  17.293  0.00  0.00    +0.000 C 
BRANCH  20  21
ATOM     21  C   UNL     1       4.371   3.423  18.819  0.00  0.00    +0.000 C 
BRANCH  21  22
ATOM     22  N   UNL     1       3.463   2.484  19.473  0.00  0.00    +0.000 NA
ATOM     23  C   UNL     1       2.136   2.349  18.852  0.00  0.00    +0.000 C 
ATOM     24  C   UNL     1       1.011   3.185  19.492  0.00  0.00    +0.000 C 
ATOM     25  O   UNL     1       0.985   3.051  20.918  0.00  0.00    +0.000 OA
ATOM     26  C   UNL     1       2.242   3.453  21.471  0.00  0.00    +0.000 C 
ATOM     27  C   UNL     1       3.385   2.579  20.934  0.00  0.00    +0.000 C 
ENDBRANCH  21  22
ENDBRANCH  20  21
ENDBRANCH  19  20
ENDBRANCH  18  19
ENDBRANCH   2  18
TORSDOF 7
ENDMDL
MODEL 9
REMARK VINA RESULT:      -6.9      1.753      2.610
REMARK  Name = 
REMARK  7 active torsions:
REMARK  status: ('A' for Active; 'I' for Inactive)
REMARK    1  A    between atoms: C_2  and  C_3
REMARK    2  A    between atoms: C_3  and  C_4
REMARK    3  A    between atoms: C_4  and  C_5
REMARK    4  A    between atoms: C_5  and  C_6
REMARK    5  A    between atoms: C_6  and  N_7
REMARK    6  A    between atoms: N_13  and  C_14
REMARK    7  A    between atoms: C_17  and  C_18
REMARK                            x       y       z     vdW  Elec       q    Type
REMARK                         _______ _______ _______ _____ _____    ______ ____
ROOT
ATOM      1  O   UNL     1       1.634   4.364  19.632  0.00  0.00    +0.000 OA
ATOM      2  C   UNL     1       2.794   4.744  19.508  0.00  0.00    +0.000 C 
ATOM      3  N   UNL     1       3.214   6.052  19.345  0.00  0.00    +0.000 N 
ATOM      4  H   UNL     1       4.180   6.196  19.077  0.00  0.00    +0.000 HD
ENDROOT
BRANCH   3   5
ATOM      5  C   UNL     1       2.405   7.205  19.423  0.00  0.00    +0.000 A 
ATOM      6  C   UNL     1       1.778   7.626  20.595  0.00  0.00    +0.000 A 
ATOM      7  C   UNL     1       0.998   8.790  20.610  0.00  0.00    +0.000 A 
ATOM      8  C   UNL     1       0.824   9.586  19.465  0.00  0.00    +0.000 A 
ATOM      9  C   UNL     1       1.470   9.148  18.295  0.00  0.00    +0.000 A 
ATOM     10  C   UNL     1       2.250   7.980  18.274  0.00  0.00    +0.000 A 
BRANCH   8  11
ATOM     11  C   UNL     1       0.025  10.834  19.509  0.00  0.00    +0.000 A 
ATOM     12  C   UNL     1      -1.247  10.911  18.915  0.00  0.00    +0.000 A 
ATOM     13  C   UNL     1      -1.999  12.085  18.975  0.00  0.00    +0.000 A 
ATOM     14  C   UNL     1      -1.464  13.172  19.641  0.00  0.00    +0.000 A 
ATOM     15  N   UNL     1      -0.251  13.161  20.224  0.00  0.00    +0.000 NA
ATOM     16  C   UNL     1       0.459  12.008  20.139  0.00  0.00    +0.000 A 
ATOM     17  F   UNL     1       1.675  12.042  20.711  0.00  0.00    +0.000 F 
ENDBRANCH   8  11
ENDBRANCH   3   5
BRANCH   2  18
ATOM     18  C   UNL     1       3.930   3.738  19.542  0.00  0.00    +0.000 C 
BRANCH  18  19
ATOM     19  C   UNL     1       4.963   3.955  18.436  0.00  0.00    +0.000 C 
BRANCH  19  20
ATOM     20  C   UNL     1       6.230   4.704  18.867  0.00  0.00    +0.000 C 
BRANCH  20  21
ATOM     21  C   UNL     1       7.389   4.587  17.874  0.00  0.00    +0.000 C 
BRANCH  21  22
ATOM     22  N   UNL     1       7.420   5.569  16.793  0.00  0.00    +0.000 NA
ATOM     23  C   UNL     1       6.733   6.840  17.071  0.00  0.00    +0.000 C 
ATOM     24  C   UNL     1       5.295   6.956  16.531  0.00  0.00    +0.000 C 
ATOM     25  O   UNL     1       5.201   6.551  15.161  0.00  0.00    +0.000 OA
ATOM     26  C   UNL     1       5.650   5.200  15.017  0.00  0.00    +0.000 C 
ATOM     27  C   UNL     1       7.115   5.057  15.452  0.00  0.00    +0.000 C 
ENDBRANCH  21  22
ENDBRANCH  20  21
ENDBRANCH  19  20
ENDBRANCH  18  19
ENDBRANCH   2  18
TORSDOF 7
ENDMDL
