MODEL 1
REMARK VINA RESULT:      -6.6      0.000      0.000
REMARK  Name = 
REMARK  12 active torsions:
REMARK  status: ('A' for Active; 'I' for Inactive)
REMARK    1  A    between atoms: C_1  and  O_2
REMARK    2  A    between atoms: O_2  and  C_3
REMARK    3  A    between atoms: C_6  and  C_7
REMARK    4  A    between atoms: C_7  and  C_8
REMARK    5  A    between atoms: C_7  and  C_9
REMARK    6  A    between atoms: C_7  and  C_10
REMARK    7  A    between atoms: C_18  and  C_19
REMARK    8  A    between atoms: C_19  and  C_20
REMARK    9  A    between atoms: C_19  and  C_21
REMARK   10  A    between atoms: C_19  and  C_22
REMARK   11  A    between atoms: C_25  and  O_26
REMARK   12  A    between atoms: O_26  and  C_27
REMARK                            x       y       z     vdW  Elec       q    Type
REMARK                         _______ _______ _______ _____ _____    ______ ____
ROOT
ATOM      1  C   UNL     1       0.152   9.686  19.296  0.00  0.00    +0.000 A 
ATOM      2  C   UNL     1       1.024   9.560  18.166  0.00  0.00    +0.000 A 
ATOM      3  C   UNL     1       1.473   8.313  17.906  0.00  0.00    +0.000 A 
ATOM      4  C   UNL     1       1.980   7.636  19.005  0.00  0.00    +0.000 A 
ATOM      5  C   UNL     1       1.634   8.261  20.359  0.00  0.00    +0.000 A 
ATOM      6  C   UNL     1       0.656   9.374  20.545  0.00  0.00    +0.000 A 
ATOM      7  C   UNL     1       0.539  10.567  21.763  0.00  0.00    +0.000 C 
ATOM      8  S   UNL     1      -1.187  11.589  22.142  0.00  0.00    +0.000 S 
ATOM      9  C   UNL     1      -0.997  13.291  23.277  0.00  0.00    +0.000 C 
ATOM     10  C   UNL     1      -1.692  14.605  22.679  0.00  0.00    +0.000 A 
ATOM     11  C   UNL     1      -3.054  14.543  22.370  0.00  0.00    +0.000 A 
ATOM     12  C   UNL     1      -3.425  14.243  21.060  0.00  0.00    +0.000 A 
ATOM     13  C   UNL     1      -2.357  14.295  20.120  0.00  0.00    +0.000 A 
ATOM     14  C   UNL     1      -1.102  14.891  20.481  0.00  0.00    +0.000 A 
ATOM     15  C   UNL     1      -0.922  15.309  21.794  0.00  0.00    +0.000 A 
ATOM     16  C   UNL     1       0.195  14.887  19.691  0.00  0.00    +0.000 C 
ATOM     17  C   UNL     1       0.394  13.665  18.869  0.00  0.00    +0.000 C 
ATOM     18  C   UNL     1       1.891  13.232  18.700  0.00  0.00    +0.000 C 
ATOM     19  C   UNL     1       1.710  11.780  18.720  0.00  0.00    +0.000 C 
ATOM     20  C   UNL     1       2.292  10.573  18.053  0.00  0.00    +0.000 C 
ENDROOT
BRANCH   4  21
ATOM     21  C   UNL     1       3.036   6.530  18.514  0.00  0.00    +0.000 C 
ATOM     22  C   UNL     1       3.974   7.106  17.428  0.00  0.00    +0.000 C 
ATOM     23  C   UNL     1       3.877   5.843  19.599  0.00  0.00    +0.000 C 
ATOM     24  C   UNL     1       2.368   5.278  17.761  0.00  0.00    +0.000 C 
ENDBRANCH   4  21
BRANCH  12  25
ATOM     25  C   UNL     1      -4.818  13.638  20.785  0.00  0.00    +0.000 C 
ATOM     26  C   UNL     1      -5.902  14.682  20.385  0.00  0.00    +0.000 C 
ATOM     27  C   UNL     1      -4.818  12.563  19.680  0.00  0.00    +0.000 C 
ATOM     28  C   UNL     1      -5.313  12.995  22.098  0.00  0.00    +0.000 C 
ENDBRANCH  12  25
BRANCH   1  30
ATOM     29  C   UNL     1      -1.401  10.081  17.548  0.00  0.00    +0.000 C 
ATOM     30  O   UNL     1      -1.119  10.045  18.940  0.00  0.00    +0.000 OA
ENDBRANCH   1  30
BRANCH  15  31
ATOM     31  O   UNL     1       0.287  15.840  22.159  0.00  0.00    +0.000 OA
ATOM     32  C   UNL     1       0.200  16.899  23.108  0.00  0.00    +0.000 C 
ENDBRANCH  15  31
TORSDOF 4
ENDMDL
MODEL 2
REMARK VINA RESULT:      -6.6      0.082      1.084
REMARK  Name = 
REMARK  12 active torsions:
REMARK  status: ('A' for Active; 'I' for Inactive)
REMARK    1  A    between atoms: C_1  and  O_2
REMARK    2  A    between atoms: O_2  and  C_3
REMARK    3  A    between atoms: C_6  and  C_7
REMARK    4  A    between atoms: C_7  and  C_8
REMARK    5  A    between atoms: C_7  and  C_9
REMARK    6  A    between atoms: C_7  and  C_10
REMARK    7  A    between atoms: C_18  and  C_19
REMARK    8  A    between atoms: C_19  and  C_20
REMARK    9  A    between atoms: C_19  and  C_21
REMARK   10  A    between atoms: C_19  and  C_22
REMARK   11  A    between atoms: C_25  and  O_26
REMARK   12  A    between atoms: O_26  and  C_27
REMARK                            x       y       z     vdW  Elec       q    Type
REMARK                         _______ _______ _______ _____ _____    ______ ____
ROOT
ATOM      1  C   UNL     1       0.134   9.712  19.248  0.00  0.00    +0.000 A 
ATOM      2  C   UNL     1       0.999   9.599  18.112  0.00  0.00    +0.000 A 
ATOM      3  C   UNL     1       1.443   8.354  17.832  0.00  0.00    +0.000 A 
ATOM      4  C   UNL     1       1.953   7.661  18.919  0.00  0.00    +0.000 A 
ATOM      5  C   UNL     1       1.617   8.268  20.283  0.00  0.00    +0.000 A 
ATOM      6  C   UNL     1       0.644   9.381  20.490  0.00  0.00    +0.000 A 
ATOM      7  C   UNL     1       0.538  10.559  21.725  0.00  0.00    +0.000 C 
ATOM      8  S   UNL     1      -1.182  11.580  22.127  0.00  0.00    +0.000 S 
ATOM      9  C   UNL     1      -0.981  13.266  23.284  0.00  0.00    +0.000 C 
ATOM     10  C   UNL     1      -1.675  14.591  22.709  0.00  0.00    +0.000 A 
ATOM     11  C   UNL     1      -3.038  14.538  22.407  0.00  0.00    +0.000 A 
ATOM     12  C   UNL     1      -3.418  14.256  21.095  0.00  0.00    +0.000 A 
ATOM     13  C   UNL     1      -2.355  14.319  20.150  0.00  0.00    +0.000 A 
ATOM     14  C   UNL     1      -1.096  14.905  20.512  0.00  0.00    +0.000 A 
ATOM     15  C   UNL     1      -0.907  15.305  21.829  0.00  0.00    +0.000 A 
ATOM     16  C   UNL     1       0.197  14.908  19.714  0.00  0.00    +0.000 C 
ATOM     17  C   UNL     1       0.387  13.697  18.874  0.00  0.00    +0.000 C 
ATOM     18  C   UNL     1       1.882  13.260  18.691  0.00  0.00    +0.000 C 
ATOM     19  C   UNL     1       1.696  11.809  18.692  0.00  0.00    +0.000 C 
ATOM     20  C   UNL     1       2.270  10.609  18.005  0.00  0.00    +0.000 C 
ENDROOT
BRANCH   4  21
ATOM     21  C   UNL     1       3.002   6.558  18.406  0.00  0.00    +0.000 C 
ATOM     22  C   UNL     1       2.269   5.332  17.813  0.00  0.00    +0.000 C 
ATOM     23  C   UNL     1       4.080   7.030  17.421  0.00  0.00    +0.000 C 
ATOM     24  C   UNL     1       3.881   5.898  19.578  0.00  0.00    +0.000 C 
ENDBRANCH   4  21
BRANCH  12  25
ATOM     25  C   UNL     1      -4.814  13.660  20.819  0.00  0.00    +0.000 C 
ATOM     26  C   UNL     1      -4.835  12.559  19.717  0.00  0.00    +0.000 C 
ATOM     27  C   UNL     1      -5.480  13.045  22.065  0.00  0.00    +0.000 C 
ATOM     28  C   UNL     1      -5.712  14.802  20.295  0.00  0.00    +0.000 C 
ENDBRANCH  12  25
BRANCH   1  30
ATOM     29  C   UNL     1      -1.431  10.126  17.515  0.00  0.00    +0.000 C 
ATOM     30  O   UNL     1      -1.138  10.081  18.904  0.00  0.00    +0.000 OA
ENDBRANCH   1  30
BRANCH  15  31
ATOM     31  O   UNL     1       0.306  15.826  22.194  0.00  0.00    +0.000 OA
ATOM     32  C   UNL     1       0.231  16.843  23.190  0.00  0.00    +0.000 C 
ENDBRANCH  15  31
TORSDOF 4
ENDMDL
MODEL 3
REMARK VINA RESULT:      -5.6      8.594     12.130
REMARK  Name = 
REMARK  12 active torsions:
REMARK  status: ('A' for Active; 'I' for Inactive)
REMARK    1  A    between atoms: C_1  and  O_2
REMARK    2  A    between atoms: O_2  and  C_3
REMARK    3  A    between atoms: C_6  and  C_7
REMARK    4  A    between atoms: C_7  and  C_8
REMARK    5  A    between atoms: C_7  and  C_9
REMARK    6  A    between atoms: C_7  and  C_10
REMARK    7  A    between atoms: C_18  and  C_19
REMARK    8  A    between atoms: C_19  and  C_20
REMARK    9  A    between atoms: C_19  and  C_21
REMARK   10  A    between atoms: C_19  and  C_22
REMARK   11  A    between atoms: C_25  and  O_26
REMARK   12  A    between atoms: O_26  and  C_27
REMARK                            x       y       z     vdW  Elec       q    Type
REMARK                         _______ _______ _______ _____ _____    ______ ____
ROOT
ATOM      1  C   UNL     1       7.448  14.239  24.119  0.00  0.00    +0.000 A 
ATOM      2  C   UNL     1       7.877  14.597  25.437  0.00  0.00    +0.000 A 
ATOM      3  C   UNL     1       6.987  14.370  26.427  0.00  0.00    +0.000 A 
ATOM      4  C   UNL     1       5.705  14.835  26.176  0.00  0.00    +0.000 A 
ATOM      5  C   UNL     1       5.432  15.206  24.716  0.00  0.00    +0.000 A 
ATOM      6  C   UNL     1       6.358  14.903  23.585  0.00  0.00    +0.000 A 
ATOM      7  C   UNL     1       6.567  15.673  22.074  0.00  0.00    +0.000 C 
ATOM      8  S   UNL     1       7.441  14.749  20.478  0.00  0.00    +0.000 S 
ATOM      9  C   UNL     1       8.039  15.974  18.941  0.00  0.00    +0.000 C 
ATOM     10  C   UNL     1       9.545  15.769  18.434  0.00  0.00    +0.000 A 
ATOM     11  C   UNL     1       9.930  14.488  18.027  0.00  0.00    +0.000 A 
ATOM     12  C   UNL     1      10.558  13.657  18.955  0.00  0.00    +0.000 A 
ATOM     13  C   UNL     1      10.975  14.315  20.146  0.00  0.00    +0.000 A 
ATOM     14  C   UNL     1      10.990  15.749  20.214  0.00  0.00    +0.000 A 
ATOM     15  C   UNL     1      10.488  16.468  19.138  0.00  0.00    +0.000 A 
ATOM     16  C   UNL     1      11.232  16.623  21.433  0.00  0.00    +0.000 C 
ATOM     17  C   UNL     1      10.747  16.027  22.705  0.00  0.00    +0.000 C 
ATOM     18  C   UNL     1      10.243  17.070  23.762  0.00  0.00    +0.000 C 
ATOM     19  C   UNL     1       9.139  16.298  24.332  0.00  0.00    +0.000 C 
ATOM     20  C   UNL     1       8.501  16.081  25.669  0.00  0.00    +0.000 C 
ENDROOT
BRANCH   4  21
ATOM     21  C   UNL     1       4.955  15.118  27.567  0.00  0.00    +0.000 C 
ATOM     22  C   UNL     1       4.259  13.839  28.089  0.00  0.00    +0.000 C 
ATOM     23  C   UNL     1       5.793  15.736  28.695  0.00  0.00    +0.000 C 
ATOM     24  C   UNL     1       3.730  16.151  27.451  0.00  0.00    +0.000 C 
ENDBRANCH   4  21
BRANCH  12  25
ATOM     25  C   UNL     1      10.507  12.127  18.759  0.00  0.00    +0.000 C 
ATOM     26  C   UNL     1       9.219  11.613  18.050  0.00  0.00    +0.000 C 
ATOM     27  C   UNL     1      11.700  11.567  17.959  0.00  0.00    +0.000 C 
ATOM     28  C   UNL     1      10.507  11.479  20.160  0.00  0.00    +0.000 C 
ENDBRANCH  12  25
BRANCH   1  30
ATOM     29  C   UNL     1       7.445  12.033  23.249  0.00  0.00    +0.000 C 
ATOM     30  O   UNL     1       8.172  13.203  23.595  0.00  0.00    +0.000 OA
ENDBRANCH   1  30
BRANCH  15  31
ATOM     31  O   UNL     1      10.459  17.836  19.211  0.00  0.00    +0.000 OA
ATOM     32  C   UNL     1      10.654  18.494  17.962  0.00  0.00    +0.000 C 
ENDBRANCH  15  31
TORSDOF 4
ENDMDL
MODEL 4
REMARK VINA RESULT:      -5.6      1.743      3.940
REMARK  Name = 
REMARK  12 active torsions:
REMARK  status: ('A' for Active; 'I' for Inactive)
REMARK    1  A    between atoms: C_1  and  O_2
REMARK    2  A    between atoms: O_2  and  C_3
REMARK    3  A    between atoms: C_6  and  C_7
REMARK    4  A    between atoms: C_7  and  C_8
REMARK    5  A    between atoms: C_7  and  C_9
REMARK    6  A    between atoms: C_7  and  C_10
REMARK    7  A    between atoms: C_18  and  C_19
REMARK    8  A    between atoms: C_19  and  C_20
REMARK    9  A    between atoms: C_19  and  C_21
REMARK   10  A    between atoms: C_19  and  C_22
REMARK   11  A    between atoms: C_25  and  O_26
REMARK   12  A    between atoms: O_26  and  C_27
REMARK                            x       y       z     vdW  Elec       q    Type
REMARK                         _______ _______ _______ _____ _____    ______ ____
ROOT
ATOM      1  C   UNL     1       1.017  10.223  19.467  0.00  0.00    +0.000 A 
ATOM      2  C   UNL     1       1.787   9.308  20.254  0.00  0.00    +0.000 A 
ATOM      3  C   UNL     1       2.585   8.465  19.563  0.00  0.00    +0.000 A 
ATOM      4  C   UNL     1       1.968   7.816  18.505  0.00  0.00    +0.000 A 
ATOM      5  C   UNL     1       0.619   8.408  18.087  0.00  0.00    +0.000 A 
ATOM      6  C   UNL     1       0.077   9.703  18.596  0.00  0.00    +0.000 A 
ATOM      7  C   UNL     1      -1.532  10.257  18.749  0.00  0.00    +0.000 C 
ATOM      8  S   UNL     1      -2.005  12.237  18.896  0.00  0.00    +0.000 S 
ATOM      9  C   UNL     1      -3.903  12.665  19.559  0.00  0.00    +0.000 C 
ATOM     10  C   UNL     1      -3.997  13.722  20.759  0.00  0.00    +0.000 A 
ATOM     11  C   UNL     1      -3.402  14.974  20.577  0.00  0.00    +0.000 A 
ATOM     12  C   UNL     1      -2.103  15.167  21.047  0.00  0.00    +0.000 A 
ATOM     13  C   UNL     1      -1.629  14.133  21.903  0.00  0.00    +0.000 A 
ATOM     14  C   UNL     1      -2.538  13.159  22.436  0.00  0.00    +0.000 A 
ATOM     15  C   UNL     1      -3.860  13.185  22.010  0.00  0.00    +0.000 A 
ATOM     16  C   UNL     1      -2.204  11.897  23.213  0.00  0.00    +0.000 C 
ATOM     17  C   UNL     1      -0.914  11.274  22.821  0.00  0.00    +0.000 C 
ATOM     18  C   UNL     1      -0.883   9.710  22.943  0.00  0.00    +0.000 C 
ATOM     19  C   UNL     1      -0.049   9.409  21.779  0.00  0.00    +0.000 C 
ATOM     20  C   UNL     1       1.021   8.436  21.394  0.00  0.00    +0.000 C 
ENDROOT
BRANCH   4  21
ATOM     21  C   UNL     1       2.733   6.436  18.203  0.00  0.00    +0.000 C 
ATOM     22  C   UNL     1       1.738   5.341  17.751  0.00  0.00    +0.000 C 
ATOM     23  C   UNL     1       3.906   6.494  17.215  0.00  0.00    +0.000 C 
ATOM     24  C   UNL     1       3.412   5.769  19.496  0.00  0.00    +0.000 C 
ENDBRANCH   4  21
BRANCH  12  25
ATOM     25  C   UNL     1      -1.226  16.273  20.424  0.00  0.00    +0.000 C 
ATOM     26  C   UNL     1      -2.024  17.363  19.648  0.00  0.00    +0.000 C 
ATOM     27  C   UNL     1      -0.350  17.019  21.449  0.00  0.00    +0.000 C 
ATOM     28  C   UNL     1      -0.304  15.602  19.383  0.00  0.00    +0.000 C 
ENDBRANCH  12  25
BRANCH   1  30
ATOM     29  C   UNL     1       1.966  12.188  18.539  0.00  0.00    +0.000 C 
ATOM     30  O   UNL     1       1.394  11.524  19.657  0.00  0.00    +0.000 OA
ENDBRANCH   1  30
BRANCH  15  31
ATOM     31  O   UNL     1      -4.725  12.233  22.480  0.00  0.00    +0.000 OA
ATOM     32  C   UNL     1      -5.940  12.756  23.011  0.00  0.00    +0.000 C 
ENDBRANCH  15  31
TORSDOF 4
ENDMDL
MODEL 5
REMARK VINA RESULT:      -5.5      7.155     11.022
REMARK  Name = 
REMARK  12 active torsions:
REMARK  status: ('A' for Active; 'I' for Inactive)
REMARK    1  A    between atoms: C_1  and  O_2
REMARK    2  A    between atoms: O_2  and  C_3
REMARK    3  A    between atoms: C_6  and  C_7
REMARK    4  A    between atoms: C_7  and  C_8
REMARK    5  A    between atoms: C_7  and  C_9
REMARK    6  A    between atoms: C_7  and  C_10
REMARK    7  A    between atoms: C_18  and  C_19
REMARK    8  A    between atoms: C_19  and  C_20
REMARK    9  A    between atoms: C_19  and  C_21
REMARK   10  A    between atoms: C_19  and  C_22
REMARK   11  A    between atoms: C_25  and  O_26
REMARK   12  A    between atoms: O_26  and  C_27
REMARK                            x       y       z     vdW  Elec       q    Type
REMARK                         _______ _______ _______ _____ _____    ______ ____
ROOT
ATOM      1  C   UNL     1       4.901  15.201  19.324  0.00  0.00    +0.000 A 
ATOM      2  C   UNL     1       3.753  14.641  19.972  0.00  0.00    +0.000 A 
ATOM      3  C   UNL     1       2.560  14.936  19.411  0.00  0.00    +0.000 A 
ATOM      4  C   UNL     1       2.367  16.279  19.126  0.00  0.00    +0.000 A 
ATOM      5  C   UNL     1       3.637  17.133  19.168  0.00  0.00    +0.000 A 
ATOM      6  C   UNL     1       5.018  16.578  19.281  0.00  0.00    +0.000 A 
ATOM      7  C   UNL     1       6.452  17.267  19.906  0.00  0.00    +0.000 C 
ATOM      8  S   UNL     1       8.309  16.576  19.420  0.00  0.00    +0.000 S 
ATOM      9  C   UNL     1       9.849  17.196  20.631  0.00  0.00    +0.000 C 
ATOM     10  C   UNL     1      10.808  16.038  21.183  0.00  0.00    +0.000 A 
ATOM     11  C   UNL     1      11.418  15.193  20.251  0.00  0.00    +0.000 A 
ATOM     12  C   UNL     1      10.800  13.979  19.950  0.00  0.00    +0.000 A 
ATOM     13  C   UNL     1       9.744  13.623  20.836  0.00  0.00    +0.000 A 
ATOM     14  C   UNL     1       9.565  14.328  22.073  0.00  0.00    +0.000 A 
ATOM     15  C   UNL     1      10.373  15.429  22.329  0.00  0.00    +0.000 A 
ATOM     16  C   UNL     1       8.412  14.215  23.055  0.00  0.00    +0.000 C 
ATOM     17  C   UNL     1       7.106  13.909  22.414  0.00  0.00    +0.000 C 
ATOM     18  C   UNL     1       5.864  14.530  23.142  0.00  0.00    +0.000 C 
ATOM     19  C   UNL     1       5.047  14.843  21.969  0.00  0.00    +0.000 C 
ATOM     20  C   UNL     1       3.602  14.836  21.580  0.00  0.00    +0.000 C 
ENDROOT
BRANCH   4  21
ATOM     21  C   UNL     1       0.794  16.603  19.110  0.00  0.00    +0.000 C 
ATOM     22  C   UNL     1       0.335  17.179  20.470  0.00  0.00    +0.000 C 
ATOM     23  C   UNL     1       0.283  17.505  17.979  0.00  0.00    +0.000 C 
ATOM     24  C   UNL     1      -0.140  15.305  18.955  0.00  0.00    +0.000 C 
ENDBRANCH   4  21
BRANCH  12  25
ATOM     25  C   UNL     1      11.096  13.290  18.602  0.00  0.00    +0.000 C 
ATOM     26  C   UNL     1      12.161  14.018  17.730  0.00  0.00    +0.000 C 
ATOM     27  C   UNL     1      11.570  11.831  18.744  0.00  0.00    +0.000 C 
ATOM     28  C   UNL     1       9.791  13.305  17.776  0.00  0.00    +0.000 C 
ENDBRANCH  12  25
BRANCH   1  30
ATOM     29  C   UNL     1       6.174  14.504  17.449  0.00  0.00    +0.000 C 
ATOM     30  O   UNL     1       5.705  14.246  18.764  0.00  0.00    +0.000 OA
ENDBRANCH   1  30
BRANCH  15  31
ATOM     31  O   UNL     1      10.182  16.135  23.487  0.00  0.00    +0.000 OA
ATOM     32  C   UNL     1      11.360  16.752  23.999  0.00  0.00    +0.000 C 
ENDBRANCH  15  31
TORSDOF 4
ENDMDL
MODEL 6
REMARK VINA RESULT:      -5.5      1.735      3.939
REMARK  Name = 
REMARK  12 active torsions:
REMARK  status: ('A' for Active; 'I' for Inactive)
REMARK    1  A    between atoms: C_1  and  O_2
REMARK    2  A    between atoms: O_2  and  C_3
REMARK    3  A    between atoms: C_6  and  C_7
REMARK    4  A    between atoms: C_7  and  C_8
REMARK    5  A    between atoms: C_7  and  C_9
REMARK    6  A    between atoms: C_7  and  C_10
REMARK    7  A    between atoms: C_18  and  C_19
REMARK    8  A    between atoms: C_19  and  C_20
REMARK    9  A    between atoms: C_19  and  C_21
REMARK   10  A    between atoms: C_19  and  C_22
REMARK   11  A    between atoms: C_25  and  O_26
REMARK   12  A    between atoms: O_26  and  C_27
REMARK                            x       y       z     vdW  Elec       q    Type
REMARK                         _______ _______ _______ _____ _____    ______ ____
ROOT
ATOM      1  C   UNL     1       1.035  10.157  19.520  0.00  0.00    +0.000 A 
ATOM      2  C   UNL     1       1.783   9.229  20.313  0.00  0.00    +0.000 A 
ATOM      3  C   UNL     1       2.575   8.375  19.628  0.00  0.00    +0.000 A 
ATOM      4  C   UNL     1       1.958   7.738  18.562  0.00  0.00    +0.000 A 
ATOM      5  C   UNL     1       0.623   8.352  18.133  0.00  0.00    +0.000 A 
ATOM      6  C   UNL     1       0.096   9.653  18.639  0.00  0.00    +0.000 A 
ATOM      7  C   UNL     1      -1.506  10.233  18.778  0.00  0.00    +0.000 C 
ATOM      8  S   UNL     1      -1.950  12.219  18.925  0.00  0.00    +0.000 S 
ATOM      9  C   UNL     1      -3.847  12.675  19.571  0.00  0.00    +0.000 C 
ATOM     10  C   UNL     1      -3.936  13.732  20.772  0.00  0.00    +0.000 A 
ATOM     11  C   UNL     1      -3.320  14.974  20.599  0.00  0.00    +0.000 A 
ATOM     12  C   UNL     1      -2.023  15.146  21.082  0.00  0.00    +0.000 A 
ATOM     13  C   UNL     1      -1.573  14.103  21.940  0.00  0.00    +0.000 A 
ATOM     14  C   UNL     1      -2.503  13.142  22.462  0.00  0.00    +0.000 A 
ATOM     15  C   UNL     1      -3.820  13.189  22.023  0.00  0.00    +0.000 A 
ATOM     16  C   UNL     1      -2.196  11.873  23.240  0.00  0.00    +0.000 C 
ATOM     17  C   UNL     1      -0.912  11.231  22.858  0.00  0.00    +0.000 C 
ATOM     18  C   UNL     1      -0.906   9.667  22.977  0.00  0.00    +0.000 C 
ATOM     19  C   UNL     1      -0.065   9.355  21.821  0.00  0.00    +0.000 C 
ATOM     20  C   UNL     1       0.993   8.366  21.444  0.00  0.00    +0.000 C 
ENDROOT
BRANCH   4  21
ATOM     21  C   UNL     1       2.704   6.347  18.265  0.00  0.00    +0.000 C 
ATOM     22  C   UNL     1       3.442   5.836  19.524  0.00  0.00    +0.000 C 
ATOM     23  C   UNL     1       1.850   5.213  17.681  0.00  0.00    +0.000 C 
ATOM     24  C   UNL     1       3.895   6.460  17.193  0.00  0.00    +0.000 C 
ENDBRANCH   4  21
BRANCH  12  25
ATOM     25  C   UNL     1      -1.123  16.239  20.469  0.00  0.00    +0.000 C 
ATOM     26  C   UNL     1      -0.172  16.933  21.490  0.00  0.00    +0.000 C 
ATOM     27  C   UNL     1      -0.233  15.733  19.317  0.00  0.00    +0.000 C 
ATOM     28  C   UNL     1      -2.046  17.351  19.926  0.00  0.00    +0.000 C 
ENDBRANCH  12  25
BRANCH   1  30
ATOM     29  C   UNL     1       1.893  12.154  18.573  0.00  0.00    +0.000 C 
ATOM     30  O   UNL     1       1.430  11.452  19.717  0.00  0.00    +0.000 OA
ENDBRANCH   1  30
BRANCH  15  31
ATOM     31  O   UNL     1      -4.704  12.249  22.483  0.00  0.00    +0.000 OA
ATOM     32  C   UNL     1      -5.888  12.793  23.062  0.00  0.00    +0.000 C 
ENDBRANCH  15  31
TORSDOF 4
ENDMDL
MODEL 7
REMARK VINA RESULT:      -5.4      3.875      5.436
REMARK  Name = 
REMARK  12 active torsions:
REMARK  status: ('A' for Active; 'I' for Inactive)
REMARK    1  A    between atoms: C_1  and  O_2
REMARK    2  A    between atoms: O_2  and  C_3
REMARK    3  A    between atoms: C_6  and  C_7
REMARK    4  A    between atoms: C_7  and  C_8
REMARK    5  A    between atoms: C_7  and  C_9
REMARK    6  A    between atoms: C_7  and  C_10
REMARK    7  A    between atoms: C_18  and  C_19
REMARK    8  A    between atoms: C_19  and  C_20
REMARK    9  A    between atoms: C_19  and  C_21
REMARK   10  A    between atoms: C_19  and  C_22
REMARK   11  A    between atoms: C_25  and  O_26
REMARK   12  A    between atoms: O_26  and  C_27
REMARK                            x       y       z     vdW  Elec       q    Type
REMARK                         _______ _______ _______ _____ _____    ______ ____
ROOT
ATOM      1  C   UNL     1       0.504  14.482  19.371  0.00  0.00    +0.000 A 
ATOM      2  C   UNL     1       1.158  15.659  18.885  0.00  0.00    +0.000 A 
ATOM      3  C   UNL     1       2.429  15.492  18.461  0.00  0.00    +0.000 A 
ATOM      4  C   UNL     1       3.247  14.791  19.334  0.00  0.00    +0.000 A 
ATOM      5  C   UNL     1       2.507  14.039  20.443  0.00  0.00    +0.000 A 
ATOM      6  C   UNL     1       1.025  13.862  20.492  0.00  0.00    +0.000 A 
ATOM      7  C   UNL     1      -0.027  13.611  21.816  0.00  0.00    +0.000 C 
ATOM      8  S   UNL     1      -1.892  12.810  21.604  0.00  0.00    +0.000 S 
ATOM      9  C   UNL     1      -3.162  13.046  23.201  0.00  0.00    +0.000 C 
ATOM     10  C   UNL     1      -4.614  13.628  22.854  0.00  0.00    +0.000 A 
ATOM     11  C   UNL     1      -5.379  12.953  21.898  0.00  0.00    +0.000 A 
ATOM     12  C   UNL     1      -5.331  13.395  20.577  0.00  0.00    +0.000 A 
ATOM     13  C   UNL     1      -4.705  14.661  20.403  0.00  0.00    +0.000 A 
ATOM     14  C   UNL     1      -4.431  15.497  21.538  0.00  0.00    +0.000 A 
ATOM     15  C   UNL     1      -4.688  14.994  22.806  0.00  0.00    +0.000 A 
ATOM     16  C   UNL     1      -3.625  16.784  21.577  0.00  0.00    +0.000 C 
ATOM     17  C   UNL     1      -2.511  16.825  20.594  0.00  0.00    +0.000 C 
ATOM     18  C   UNL     1      -1.258  17.641  21.066  0.00  0.00    +0.000 C 
ATOM     19  C   UNL     1      -0.211  16.813  20.467  0.00  0.00    +0.000 C 
ATOM     20  C   UNL     1       1.119  17.000  19.806  0.00  0.00    +0.000 C 
ENDROOT
BRANCH   4  21
ATOM     21  C   UNL     1       4.778  15.209  19.087  0.00  0.00    +0.000 C 
ATOM     22  C   UNL     1       5.626  14.974  20.359  0.00  0.00    +0.000 C 
ATOM     23  C   UNL     1       5.485  14.576  17.881  0.00  0.00    +0.000 C 
ATOM     24  C   UNL     1       4.992  16.778  18.818  0.00  0.00    +0.000 C 
ENDBRANCH   4  21
BRANCH  12  25
ATOM     25  C   UNL     1      -5.683  12.417  19.436  0.00  0.00    +0.000 C 
ATOM     26  C   UNL     1      -4.447  11.804  18.713  0.00  0.00    +0.000 C 
ATOM     27  C   UNL     1      -6.559  11.231  19.887  0.00  0.00    +0.000 C 
ATOM     28  C   UNL     1      -6.451  13.215  18.360  0.00  0.00    +0.000 C 
ENDBRANCH  12  25
BRANCH   1  30
ATOM     29  C   UNL     1      -0.546  12.742  18.148  0.00  0.00    +0.000 C 
ATOM     30  O   UNL     1      -0.541  14.096  18.577  0.00  0.00    +0.000 OA
ENDBRANCH   1  30
BRANCH  15  31
ATOM     31  O   UNL     1      -4.390  15.767  23.897  0.00  0.00    +0.000 OA
ATOM     32  C   UNL     1      -5.514  16.432  24.469  0.00  0.00    +0.000 C 
ENDBRANCH  15  31
TORSDOF 4
ENDMDL
MODEL 8
REMARK VINA RESULT:      -5.4      6.998     10.892
REMARK  Name = 
REMARK  12 active torsions:
REMARK  status: ('A' for Active; 'I' for Inactive)
REMARK    1  A    between atoms: C_1  and  O_2
REMARK    2  A    between atoms: O_2  and  C_3
REMARK    3  A    between atoms: C_6  and  C_7
REMARK    4  A    between atoms: C_7  and  C_8
REMARK    5  A    between atoms: C_7  and  C_9
REMARK    6  A    between atoms: C_7  and  C_10
REMARK    7  A    between atoms: C_18  and  C_19
REMARK    8  A    between atoms: C_19  and  C_20
REMARK    9  A    between atoms: C_19  and  C_21
REMARK   10  A    between atoms: C_19  and  C_22
REMARK   11  A    between atoms: C_25  and  O_26
REMARK   12  A    between atoms: O_26  and  C_27
REMARK                            x       y       z     vdW  Elec       q    Type
REMARK                         _______ _______ _______ _____ _____    ______ ____
ROOT
ATOM      1  C   UNL     1       4.707  15.188  19.366  0.00  0.00    +0.000 A 
ATOM      2  C   UNL     1       3.542  14.612  19.965  0.00  0.00    +0.000 A 
ATOM      3  C   UNL     1       2.364  14.932  19.387  0.00  0.00    +0.000 A 
ATOM      4  C   UNL     1       2.183  16.285  19.145  0.00  0.00    +0.000 A 
ATOM      5  C   UNL     1       3.455  17.131  19.247  0.00  0.00    +0.000 A 
ATOM      6  C   UNL     1       4.831  16.566  19.374  0.00  0.00    +0.000 A 
ATOM      7  C   UNL     1       6.252  17.225  20.058  0.00  0.00    +0.000 C 
ATOM      8  S   UNL     1       8.118  16.542  19.593  0.00  0.00    +0.000 S 
ATOM      9  C   UNL     1       9.630  17.112  20.862  0.00  0.00    +0.000 C 
ATOM     10  C   UNL     1      10.571  15.931  21.396  0.00  0.00    +0.000 A 
ATOM     11  C   UNL     1      11.200  15.116  20.450  0.00  0.00    +0.000 A 
ATOM     12  C   UNL     1      10.584  13.917  20.091  0.00  0.00    +0.000 A 
ATOM     13  C   UNL     1       9.506  13.534  20.938  0.00  0.00    +0.000 A 
ATOM     14  C   UNL     1       9.300  14.197  22.195  0.00  0.00    +0.000 A 
ATOM     15  C   UNL     1      10.105  15.284  22.509  0.00  0.00    +0.000 A 
ATOM     16  C   UNL     1       8.122  14.055  23.143  0.00  0.00    +0.000 C 
ATOM     17  C   UNL     1       6.831  13.778  22.461  0.00  0.00    +0.000 C 
ATOM     18  C   UNL     1       5.574  14.379  23.180  0.00  0.00    +0.000 C 
ATOM     19  C   UNL     1       4.788  14.737  21.999  0.00  0.00    +0.000 C 
ATOM     20  C   UNL     1       3.352  14.750  21.575  0.00  0.00    +0.000 C 
ENDROOT
BRANCH   4  21
ATOM     21  C   UNL     1       0.612  16.617  19.102  0.00  0.00    +0.000 C 
ATOM     22  C   UNL     1      -0.221  15.325  18.937  0.00  0.00    +0.000 C 
ATOM     23  C   UNL     1       0.045  17.441  20.266  0.00  0.00    +0.000 C 
ATOM     24  C   UNL     1       0.161  17.481  17.825  0.00  0.00    +0.000 C 
ENDBRANCH   4  21
BRANCH  12  25
ATOM     25  C   UNL     1      10.910  13.274  18.727  0.00  0.00    +0.000 C 
ATOM     26  C   UNL     1      11.600  11.881  18.823  0.00  0.00    +0.000 C 
ATOM     27  C   UNL     1       9.678  13.091  17.820  0.00  0.00    +0.000 C 
ATOM     28  C   UNL     1      11.917  14.197  18.007  0.00  0.00    +0.000 C 
ENDBRANCH  12  25
BRANCH   1  30
ATOM     29  C   UNL     1       5.979  14.527  17.477  0.00  0.00    +0.000 C 
ATOM     30  O   UNL     1       5.521  14.250  18.792  0.00  0.00    +0.000 OA
ENDBRANCH   1  30
BRANCH  15  31
ATOM     31  O   UNL     1       9.888  15.949  23.686  0.00  0.00    +0.000 OA
ATOM     32  C   UNL     1      11.041  16.605  24.210  0.00  0.00    +0.000 C 
ENDBRANCH  15  31
TORSDOF 4
ENDMDL
MODEL 9
REMARK VINA RESULT:      -5.4      7.065     10.835
REMARK  Name = 
REMARK  12 active torsions:
REMARK  status: ('A' for Active; 'I' for Inactive)
REMARK    1  A    between atoms: C_1  and  O_2
REMARK    2  A    between atoms: O_2  and  C_3
REMARK    3  A    between atoms: C_6  and  C_7
REMARK    4  A    between atoms: C_7  and  C_8
REMARK    5  A    between atoms: C_7  and  C_9
REMARK    6  A    between atoms: C_7  and  C_10
REMARK    7  A    between atoms: C_18  and  C_19
REMARK    8  A    between atoms: C_19  and  C_20
REMARK    9  A    between atoms: C_19  and  C_21
REMARK   10  A    between atoms: C_19  and  C_22
REMARK   11  A    between atoms: C_25  and  O_26
REMARK   12  A    between atoms: O_26  and  C_27
REMARK                            x       y       z     vdW  Elec       q    Type
REMARK                         _______ _______ _______ _____ _____    ______ ____
ROOT
ATOM      1  C   UNL     1       4.781  15.227  19.448  0.00  0.00    +0.000 A 
ATOM      2  C   UNL     1       3.616  14.531  19.907  0.00  0.00    +0.000 A 
ATOM      3  C   UNL     1       2.470  14.805  19.246  0.00  0.00    +0.000 A 
ATOM      4  C   UNL     1       2.208  16.155  19.070  0.00  0.00    +0.000 A 
ATOM      5  C   UNL     1       3.399  17.080  19.334  0.00  0.00    +0.000 A 
ATOM      6  C   UNL     1       4.799  16.606  19.549  0.00  0.00    +0.000 A 
ATOM      7  C   UNL     1       6.103  17.318  20.393  0.00  0.00    +0.000 C 
ATOM      8  S   UNL     1       8.048  16.800  20.055  0.00  0.00    +0.000 S 
ATOM      9  C   UNL     1       9.400  17.390  21.485  0.00  0.00    +0.000 C 
ATOM     10  C   UNL     1      10.380  16.246  22.029  0.00  0.00    +0.000 A 
ATOM     11  C   UNL     1      11.146  15.541  21.096  0.00  0.00    +0.000 A 
ATOM     12  C   UNL     1      10.655  14.328  20.614  0.00  0.00    +0.000 A 
ATOM     13  C   UNL     1       9.542  13.816  21.338  0.00  0.00    +0.000 A 
ATOM     14  C   UNL     1       9.182  14.378  22.608  0.00  0.00    +0.000 A 
ATOM     15  C   UNL     1       9.873  15.496  23.056  0.00  0.00    +0.000 A 
ATOM     16  C   UNL     1       7.942  14.091  23.439  0.00  0.00    +0.000 C 
ATOM     17  C   UNL     1       6.738  13.770  22.630  0.00  0.00    +0.000 C 
ATOM     18  C   UNL     1       5.383  14.232  23.269  0.00  0.00    +0.000 C 
ATOM     19  C   UNL     1       4.674  14.611  22.047  0.00  0.00    +0.000 C 
ATOM     20  C   UNL     1       3.282  14.550  21.499  0.00  0.00    +0.000 C 
ENDROOT
BRANCH   4  21
ATOM     21  C   UNL     1       0.626  16.378  18.908  0.00  0.00    +0.000 C 
ATOM     22  C   UNL     1       0.324  17.409  17.795  0.00  0.00    +0.000 C 
ATOM     23  C   UNL     1      -0.232  15.125  18.684  0.00  0.00    +0.000 C 
ATOM     24  C   UNL     1      -0.075  17.043  20.190  0.00  0.00    +0.000 C 
ENDBRANCH   4  21
BRANCH  12  25
ATOM     25  C   UNL     1      11.142  13.801  19.248  0.00  0.00    +0.000 C 
ATOM     26  C   UNL     1      10.013  13.619  18.191  0.00  0.00    +0.000 C 
ATOM     27  C   UNL     1      12.218  14.688  18.591  0.00  0.00    +0.000 C 
ATOM     28  C   UNL     1      11.738  12.395  19.478  0.00  0.00    +0.000 C 
ENDBRANCH  12  25
BRANCH   1  30
ATOM     29  C   UNL     1       6.245  14.776  17.638  0.00  0.00    +0.000 C 
ATOM     30  O   UNL     1       5.708  14.387  18.894  0.00  0.00    +0.000 OA
ENDBRANCH   1  30
BRANCH  15  31
ATOM     31  O   UNL     1       9.508  16.066  24.247  0.00  0.00    +0.000 OA
ATOM     32  C   UNL     1      10.589  16.643  24.976  0.00  0.00    +0.000 C 
ENDBRANCH  15  31
TORSDOF 4
ENDMDL
