MODEL 1
REMARK VINA RESULT:      -8.0      0.000      0.000
REMARK  Name = 
REMARK  4 active torsions:
REMARK  status: ('A' for Active; 'I' for Inactive)
REMARK    1  A    between atoms: C_1  and  N_2
REMARK    2  A    between atoms: C_3  and  C_5
REMARK    3  A    between atoms: C_8  and  N_9
REMARK    4  A    between atoms: N_9  and  C_10
REMARK                            x       y       z     vdW  Elec       q    Type
REMARK                         _______ _______ _______ _____ _____    ______ ____
ROOT
ATOM      1  N   UNL     1       5.051   5.662  19.027  0.00  0.00    +0.000 N 
ATOM      2  H   UNL     1       5.776   5.394  19.689  0.00  0.00    +0.000 HD
ENDROOT
BRANCH   1   3
ATOM      3  C   UNL     1       3.799   5.348  19.482  0.00  0.00    +0.000 A 
ATOM      4  C   UNL     1       2.957   6.338  19.943  0.00  0.00    +0.000 A 
ATOM      5  N   UNL     1       2.137   5.671  20.804  0.00  0.00    +0.000 N 
ATOM      6  C   UNL     1       1.823   4.486  20.199  0.00  0.00    +0.000 A 
ATOM      7  C   UNL     1       0.695   3.672  20.337  0.00  0.00    +0.000 A 
ATOM      8  C   UNL     1       0.634   2.551  19.515  0.00  0.00    +0.000 A 
ATOM      9  C   UNL     1       1.687   2.240  18.657  0.00  0.00    +0.000 A 
ATOM     10  C   UNL     1       2.849   3.037  18.594  0.00  0.00    +0.000 A 
ATOM     11  C   UNL     1       2.920   4.215  19.362  0.00  0.00    +0.000 A 
ATOM     12  H   UNL     1       1.955   5.900  21.774  0.00  0.00    +0.000 HD
ENDBRANCH   1   3
BRANCH   1  16
ATOM     13  C   UNL     1       6.546   4.950  15.064  0.00  0.00    +0.000 A 
ATOM     14  C   UNL     1       7.230   4.466  16.195  0.00  0.00    +0.000 A 
ATOM     15  C   UNL     1       6.764   4.711  17.487  0.00  0.00    +0.000 A 
ATOM     16  C   UNL     1       5.600   5.427  17.716  0.00  0.00    +0.000 A 
ATOM     17  C   UNL     1       4.924   5.933  16.580  0.00  0.00    +0.000 A 
ATOM     18  C   UNL     1       5.394   5.715  15.283  0.00  0.00    +0.000 A 
BRANCH  13  21
ATOM     19  C   UNL     1       6.904   3.233  11.700  0.00  0.00    +0.000 C 
ATOM     20  N   UNL     1       6.501   3.607  13.023  0.00  0.00    +0.000 N 
ATOM     21  C   UNL     1       7.036   4.717  13.665  0.00  0.00    +0.000 C 
ATOM     22  O   UNL     1       7.840   5.472  13.158  0.00  0.00    +0.000 OA
ATOM     23  H   UNL     1       5.741   3.098  13.461  0.00  0.00    +0.000 HD
ENDBRANCH  13  21
ENDBRANCH   1  16
TORSDOF 3
ENDMDL
MODEL 2
REMARK VINA RESULT:      -7.8      2.860      4.272
REMARK  Name = 
REMARK  4 active torsions:
REMARK  status: ('A' for Active; 'I' for Inactive)
REMARK    1  A    between atoms: C_1  and  N_2
REMARK    2  A    between atoms: C_3  and  C_5
REMARK    3  A    between atoms: C_8  and  N_9
REMARK    4  A    between atoms: N_9  and  C_10
REMARK                            x       y       z     vdW  Elec       q    Type
REMARK                         _______ _______ _______ _____ _____    ______ ____
ROOT
ATOM      1  N   UNL     1       5.303   3.530  17.428  0.00  0.00    +0.000 N 
ATOM      2  H   UNL     1       5.366   3.322  16.433  0.00  0.00    +0.000 HD
ENDROOT
BRANCH   1   3
ATOM      3  C   UNL     1       4.106   3.132  17.961  0.00  0.00    +0.000 A 
ATOM      4  C   UNL     1       3.762   1.797  17.981  0.00  0.00    +0.000 A 
ATOM      5  N   UNL     1       2.400   1.829  18.000  0.00  0.00    +0.000 N 
ATOM      6  C   UNL     1       2.049   2.822  18.872  0.00  0.00    +0.000 A 
ATOM      7  C   UNL     1       0.899   2.974  19.653  0.00  0.00    +0.000 A 
ATOM      8  C   UNL     1       0.872   4.070  20.510  0.00  0.00    +0.000 A 
ATOM      9  C   UNL     1       1.918   4.992  20.520  0.00  0.00    +0.000 A 
ATOM     10  C   UNL     1       3.031   4.855  19.664  0.00  0.00    +0.000 A 
ATOM     11  C   UNL     1       3.126   3.725  18.831  0.00  0.00    +0.000 A 
ATOM     12  H   UNL     1       1.769   1.363  17.359  0.00  0.00    +0.000 HD
ENDBRANCH   1   3
BRANCH   1  16
ATOM     13  C   UNL     1       7.303   7.308  17.843  0.00  0.00    +0.000 A 
ATOM     14  C   UNL     1       7.720   6.182  18.577  0.00  0.00    +0.000 A 
ATOM     15  C   UNL     1       7.062   4.957  18.466  0.00  0.00    +0.000 A 
ATOM     16  C   UNL     1       5.981   4.787  17.616  0.00  0.00    +0.000 A 
ATOM     17  C   UNL     1       5.547   5.924  16.895  0.00  0.00    +0.000 A 
ATOM     18  C   UNL     1       6.182   7.162  17.016  0.00  0.00    +0.000 A 
BRANCH  13  21
ATOM     19  C   UNL     1       9.446  10.048  19.357  0.00  0.00    +0.000 C 
ATOM     20  N   UNL     1       8.770   8.813  19.089  0.00  0.00    +0.000 N 
ATOM     21  C   UNL     1       7.980   8.642  17.959  0.00  0.00    +0.000 C 
ATOM     22  O   UNL     1       7.831   9.487  17.101  0.00  0.00    +0.000 OA
ATOM     23  H   UNL     1       8.949   8.020  19.694  0.00  0.00    +0.000 HD
ENDBRANCH  13  21
ENDBRANCH   1  16
TORSDOF 3
ENDMDL
MODEL 3
REMARK VINA RESULT:      -7.8      2.811      4.350
REMARK  Name = 
REMARK  4 active torsions:
REMARK  status: ('A' for Active; 'I' for Inactive)
REMARK    1  A    between atoms: C_1  and  N_2
REMARK    2  A    between atoms: C_3  and  C_5
REMARK    3  A    between atoms: C_8  and  N_9
REMARK    4  A    between atoms: N_9  and  C_10
REMARK                            x       y       z     vdW  Elec       q    Type
REMARK                         _______ _______ _______ _____ _____    ______ ____
ROOT
ATOM      1  N   UNL     1       5.253   3.462  17.407  0.00  0.00    +0.000 N 
ATOM      2  H   UNL     1       5.346   3.151  16.442  0.00  0.00    +0.000 HD
ENDROOT
BRANCH   1   3
ATOM      3  C   UNL     1       4.056   3.087  17.954  0.00  0.00    +0.000 A 
ATOM      4  C   UNL     1       3.682   1.760  17.971  0.00  0.00    +0.000 A 
ATOM      5  N   UNL     1       2.322   1.821  18.010  0.00  0.00    +0.000 N 
ATOM      6  C   UNL     1       2.005   2.816  18.893  0.00  0.00    +0.000 A 
ATOM      7  C   UNL     1       0.870   2.988  19.691  0.00  0.00    +0.000 A 
ATOM      8  C   UNL     1       0.879   4.079  20.556  0.00  0.00    +0.000 A 
ATOM      9  C   UNL     1       1.945   4.977  20.556  0.00  0.00    +0.000 A 
ATOM     10  C   UNL     1       3.042   4.822  19.684  0.00  0.00    +0.000 A 
ATOM     11  C   UNL     1       3.101   3.695  18.842  0.00  0.00    +0.000 A 
ATOM     12  H   UNL     1       1.672   1.374  17.375  0.00  0.00    +0.000 HD
ENDBRANCH   1   3
BRANCH   1  16
ATOM     13  C   UNL     1       7.198   7.276  17.746  0.00  0.00    +0.000 A 
ATOM     14  C   UNL     1       6.010   7.131  17.006  0.00  0.00    +0.000 A 
ATOM     15  C   UNL     1       5.384   5.893  16.871  0.00  0.00    +0.000 A 
ATOM     16  C   UNL     1       5.890   4.753  17.473  0.00  0.00    +0.000 A 
ATOM     17  C   UNL     1       7.096   4.893  18.199  0.00  0.00    +0.000 A 
ATOM     18  C   UNL     1       7.747   6.123  18.321  0.00  0.00    +0.000 A 
BRANCH  13  21
ATOM     19  C   UNL     1       9.436   9.921  19.294  0.00  0.00    +0.000 C 
ATOM     20  N   UNL     1       8.729   8.709  19.001  0.00  0.00    +0.000 N 
ATOM     21  C   UNL     1       7.903   8.593  17.890  0.00  0.00    +0.000 C 
ATOM     22  O   UNL     1       7.743   9.473  17.070  0.00  0.00    +0.000 OA
ATOM     23  H   UNL     1       8.913   7.890  19.571  0.00  0.00    +0.000 HD
ENDBRANCH  13  21
ENDBRANCH   1  16
TORSDOF 3
ENDMDL
MODEL 4
REMARK VINA RESULT:      -7.7      2.869      7.315
REMARK  Name = 
REMARK  4 active torsions:
REMARK  status: ('A' for Active; 'I' for Inactive)
REMARK    1  A    between atoms: C_1  and  N_2
REMARK    2  A    between atoms: C_3  and  C_5
REMARK    3  A    between atoms: C_8  and  N_9
REMARK    4  A    between atoms: N_9  and  C_10
REMARK                            x       y       z     vdW  Elec       q    Type
REMARK                         _______ _______ _______ _____ _____    ______ ____
ROOT
ATOM      1  N   UNL     1       4.816   4.185  16.850  0.00  0.00    +0.000 N 
ATOM      2  H   UNL     1       5.097   3.461  17.508  0.00  0.00    +0.000 HD
ENDROOT
BRANCH   1   3
ATOM      3  C   UNL     1       5.797   4.456  15.935  0.00  0.00    +0.000 A 
ATOM      4  C   UNL     1       7.083   4.727  16.351  0.00  0.00    +0.000 A 
ATOM      5  N   UNL     1       7.584   5.483  15.334  0.00  0.00    +0.000 N 
ATOM      6  C   UNL     1       7.160   4.899  14.172  0.00  0.00    +0.000 A 
ATOM      7  C   UNL     1       7.734   4.902  12.898  0.00  0.00    +0.000 A 
ATOM      8  C   UNL     1       7.092   4.139  11.927  0.00  0.00    +0.000 A 
ATOM      9  C   UNL     1       5.902   3.474  12.217  0.00  0.00    +0.000 A 
ATOM     10  C   UNL     1       5.303   3.552  13.491  0.00  0.00    +0.000 A 
ATOM     11  C   UNL     1       5.957   4.259  14.518  0.00  0.00    +0.000 A 
ATOM     12  H   UNL     1       8.010   6.399  15.407  0.00  0.00    +0.000 HD
ENDBRANCH   1   3
BRANCH   1  16
ATOM     13  C   UNL     1       2.566   7.092  19.070  0.00  0.00    +0.000 A 
ATOM     14  C   UNL     1       2.568   5.736  19.446  0.00  0.00    +0.000 A 
ATOM     15  C   UNL     1       3.277   4.781  18.717  0.00  0.00    +0.000 A 
ATOM     16  C   UNL     1       4.025   5.125  17.604  0.00  0.00    +0.000 A 
ATOM     17  C   UNL     1       4.006   6.485  17.213  0.00  0.00    +0.000 A 
ATOM     18  C   UNL     1       3.280   7.446  17.919  0.00  0.00    +0.000 A 
BRANCH  13  21
ATOM     19  C   UNL     1       1.020   8.858  22.051  0.00  0.00    +0.000 C 
ATOM     20  N   UNL     1       1.751   7.965  21.203  0.00  0.00    +0.000 N 
ATOM     21  C   UNL     1       1.796   8.136  19.825  0.00  0.00    +0.000 C 
ATOM     22  O   UNL     1       1.266   9.058  19.239  0.00  0.00    +0.000 OA
ATOM     23  H   UNL     1       2.323   7.246  21.632  0.00  0.00    +0.000 HD
ENDBRANCH  13  21
ENDBRANCH   1  16
TORSDOF 3
ENDMDL
MODEL 5
REMARK VINA RESULT:      -7.7      0.177      1.081
REMARK  Name = 
REMARK  4 active torsions:
REMARK  status: ('A' for Active; 'I' for Inactive)
REMARK    1  A    between atoms: C_1  and  N_2
REMARK    2  A    between atoms: C_3  and  C_5
REMARK    3  A    between atoms: C_8  and  N_9
REMARK    4  A    between atoms: N_9  and  C_10
REMARK                            x       y       z     vdW  Elec       q    Type
REMARK                         _______ _______ _______ _____ _____    ______ ____
ROOT
ATOM      1  N   UNL     1       4.876   5.765  18.973  0.00  0.00    +0.000 N 
ATOM      2  H   UNL     1       5.646   5.569  19.610  0.00  0.00    +0.000 HD
ENDROOT
BRANCH   1   3
ATOM      3  C   UNL     1       3.670   5.378  19.492  0.00  0.00    +0.000 A 
ATOM      4  C   UNL     1       2.815   6.312  20.037  0.00  0.00    +0.000 A 
ATOM      5  N   UNL     1       2.080   5.580  20.921  0.00  0.00    +0.000 N 
ATOM      6  C   UNL     1       1.783   4.401  20.294  0.00  0.00    +0.000 A 
ATOM      7  C   UNL     1       0.702   3.532  20.471  0.00  0.00    +0.000 A 
ATOM      8  C   UNL     1       0.640   2.438  19.613  0.00  0.00    +0.000 A 
ATOM      9  C   UNL     1       1.652   2.205  18.683  0.00  0.00    +0.000 A 
ATOM     10  C   UNL     1       2.771   3.057  18.579  0.00  0.00    +0.000 A 
ATOM     11  C   UNL     1       2.836   4.210  19.384  0.00  0.00    +0.000 A 
ATOM     12  H   UNL     1       1.949   5.767  21.908  0.00  0.00    +0.000 HD
ENDBRANCH   1   3
BRANCH   1  16
ATOM     13  C   UNL     1       6.537   5.055  15.077  0.00  0.00    +0.000 A 
ATOM     14  C   UNL     1       5.415   5.888  15.246  0.00  0.00    +0.000 A 
ATOM     15  C   UNL     1       4.855   6.107  16.505  0.00  0.00    +0.000 A 
ATOM     16  C   UNL     1       5.386   5.529  17.647  0.00  0.00    +0.000 A 
ATOM     17  C   UNL     1       6.500   4.673  17.474  0.00  0.00    +0.000 A 
ATOM     18  C   UNL     1       7.054   4.427  16.216  0.00  0.00    +0.000 A 
BRANCH  13  21
ATOM     19  C   UNL     1       7.100   3.323  11.749  0.00  0.00    +0.000 C 
ATOM     20  N   UNL     1       6.595   3.723  13.028  0.00  0.00    +0.000 N 
ATOM     21  C   UNL     1       7.146   4.788  13.732  0.00  0.00    +0.000 C 
ATOM     22  O   UNL     1       8.052   5.479  13.315  0.00  0.00    +0.000 OA
ATOM     23  H   UNL     1       5.758   3.274  13.383  0.00  0.00    +0.000 HD
ENDBRANCH  13  21
ENDBRANCH   1  16
TORSDOF 3
ENDMDL
MODEL 6
REMARK VINA RESULT:      -7.6      3.011      7.345
REMARK  Name = 
REMARK  4 active torsions:
REMARK  status: ('A' for Active; 'I' for Inactive)
REMARK    1  A    between atoms: C_1  and  N_2
REMARK    2  A    between atoms: C_3  and  C_5
REMARK    3  A    between atoms: C_8  and  N_9
REMARK    4  A    between atoms: N_9  and  C_10
REMARK                            x       y       z     vdW  Elec       q    Type
REMARK                         _______ _______ _______ _____ _____    ______ ____
ROOT
ATOM      1  N   UNL     1       5.282   3.472  16.612  0.00  0.00    +0.000 N 
ATOM      2  H   UNL     1       5.707   2.683  17.095  0.00  0.00    +0.000 HD
ENDROOT
BRANCH   1   3
ATOM      3  C   UNL     1       6.136   4.039  15.705  0.00  0.00    +0.000 A 
ATOM      4  C   UNL     1       7.348   4.553  16.115  0.00  0.00    +0.000 A 
ATOM      5  N   UNL     1       7.622   5.493  15.167  0.00  0.00    +0.000 N 
ATOM      6  C   UNL     1       7.285   4.938  13.963  0.00  0.00    +0.000 A 
ATOM      7  C   UNL     1       7.784   5.188  12.682  0.00  0.00    +0.000 A 
ATOM      8  C   UNL     1       7.284   4.393  11.656  0.00  0.00    +0.000 A 
ATOM      9  C   UNL     1       6.285   3.453  11.906  0.00  0.00    +0.000 A 
ATOM     10  C   UNL     1       5.744   3.277  13.196  0.00  0.00    +0.000 A 
ATOM     11  C   UNL     1       6.271   4.015  14.273  0.00  0.00    +0.000 A 
ATOM     12  H   UNL     1       7.837   6.471  15.322  0.00  0.00    +0.000 HD
ENDBRANCH   1   3
BRANCH   1  16
ATOM     13  C   UNL     1       2.739   5.519  19.402  0.00  0.00    +0.000 A 
ATOM     14  C   UNL     1       4.106   5.326  19.674  0.00  0.00    +0.000 A 
ATOM     15  C   UNL     1       4.935   4.642  18.785  0.00  0.00    +0.000 A 
ATOM     16  C   UNL     1       4.456   4.138  17.587  0.00  0.00    +0.000 A 
ATOM     17  C   UNL     1       3.077   4.312  17.323  0.00  0.00    +0.000 A 
ATOM     18  C   UNL     1       2.231   4.973  18.217  0.00  0.00    +0.000 A 
BRANCH  13  21
ATOM     19  C   UNL     1       1.224   8.419  21.323  0.00  0.00    +0.000 C 
ATOM     20  N   UNL     1       1.998   7.609  20.430  0.00  0.00    +0.000 N 
ATOM     21  C   UNL     1       1.821   6.233  20.352  0.00  0.00    +0.000 C 
ATOM     22  O   UNL     1       0.988   5.619  20.985  0.00  0.00    +0.000 OA
ATOM     23  H   UNL     1       2.625   8.067  19.777  0.00  0.00    +0.000 HD
ENDBRANCH  13  21
ENDBRANCH   1  16
TORSDOF 3
ENDMDL
MODEL 7
REMARK VINA RESULT:      -7.4      3.096      7.357
REMARK  Name = 
REMARK  4 active torsions:
REMARK  status: ('A' for Active; 'I' for Inactive)
REMARK    1  A    between atoms: C_1  and  N_2
REMARK    2  A    between atoms: C_3  and  C_5
REMARK    3  A    between atoms: C_8  and  N_9
REMARK    4  A    between atoms: N_9  and  C_10
REMARK                            x       y       z     vdW  Elec       q    Type
REMARK                         _______ _______ _______ _____ _____    ______ ____
ROOT
ATOM      1  N   UNL     1       4.679   4.278  16.710  0.00  0.00    +0.000 N 
ATOM      2  H   UNL     1       4.878   3.495  17.328  0.00  0.00    +0.000 HD
ENDROOT
BRANCH   1   3
ATOM      3  C   UNL     1       5.698   4.503  15.823  0.00  0.00    +0.000 A 
ATOM      4  C   UNL     1       6.978   4.736  16.277  0.00  0.00    +0.000 A 
ATOM      5  N   UNL     1       7.538   5.461  15.268  0.00  0.00    +0.000 N 
ATOM      6  C   UNL     1       7.130   4.878  14.100  0.00  0.00    +0.000 A 
ATOM      7  C   UNL     1       7.744   4.845  12.845  0.00  0.00    +0.000 A 
ATOM      8  C   UNL     1       7.107   4.093  11.863  0.00  0.00    +0.000 A 
ATOM      9  C   UNL     1       5.887   3.472  12.122  0.00  0.00    +0.000 A 
ATOM     10  C   UNL     1       5.251   3.586  13.376  0.00  0.00    +0.000 A 
ATOM     11  C   UNL     1       5.896   4.284  14.415  0.00  0.00    +0.000 A 
ATOM     12  H   UNL     1       7.992   6.363  15.345  0.00  0.00    +0.000 HD
ENDBRANCH   1   3
BRANCH   1  16
ATOM     13  C   UNL     1       2.457   7.059  19.112  0.00  0.00    +0.000 A 
ATOM     14  C   UNL     1       3.186   7.492  17.989  0.00  0.00    +0.000 A 
ATOM     15  C   UNL     1       3.929   6.600  17.216  0.00  0.00    +0.000 A 
ATOM     16  C   UNL     1       3.970   5.246  17.507  0.00  0.00    +0.000 A 
ATOM     17  C   UNL     1       3.255   4.813  18.649  0.00  0.00    +0.000 A 
ATOM     18  C   UNL     1       2.527   5.700  19.445  0.00  0.00    +0.000 A 
BRANCH  13  21
ATOM     19  C   UNL     1       0.598  10.221  20.083  0.00  0.00    +0.000 C 
ATOM     20  N   UNL     1       1.318   9.205  19.373  0.00  0.00    +0.000 N 
ATOM     21  C   UNL     1       1.665   8.000  19.972  0.00  0.00    +0.000 C 
ATOM     22  O   UNL     1       1.360   7.694  21.106  0.00  0.00    +0.000 OA
ATOM     23  H   UNL     1       1.496   9.337  18.383  0.00  0.00    +0.000 HD
ENDBRANCH  13  21
ENDBRANCH   1  16
TORSDOF 3
ENDMDL
MODEL 8
REMARK VINA RESULT:      -7.4      4.560      7.808
REMARK  Name = 
REMARK  4 active torsions:
REMARK  status: ('A' for Active; 'I' for Inactive)
REMARK    1  A    between atoms: C_1  and  N_2
REMARK    2  A    between atoms: C_3  and  C_5
REMARK    3  A    between atoms: C_8  and  N_9
REMARK    4  A    between atoms: N_9  and  C_10
REMARK                            x       y       z     vdW  Elec       q    Type
REMARK                         _______ _______ _______ _____ _____    ______ ____
ROOT
ATOM      1  N   UNL     1       2.623   7.584  17.919  0.00  0.00    +0.000 N 
ATOM      2  H   UNL     1       2.058   7.809  17.103  0.00  0.00    +0.000 HD
ENDROOT
BRANCH   1   3
ATOM      3  C   UNL     1       3.185   6.340  17.827  0.00  0.00    +0.000 A 
ATOM      4  C   UNL     1       4.544   6.175  17.994  0.00  0.00    +0.000 A 
ATOM      5  N   UNL     1       4.807   5.037  17.291  0.00  0.00    +0.000 N 
ATOM      6  C   UNL     1       3.792   4.165  17.573  0.00  0.00    +0.000 A 
ATOM      7  C   UNL     1       3.776   2.767  17.572  0.00  0.00    +0.000 A 
ATOM      8  C   UNL     1       2.595   2.160  17.986  0.00  0.00    +0.000 A 
ATOM      9  C   UNL     1       1.477   2.927  18.312  0.00  0.00    +0.000 A 
ATOM     10  C   UNL     1       1.497   4.335  18.229  0.00  0.00    +0.000 A 
ATOM     11  C   UNL     1       2.694   4.988  17.878  0.00  0.00    +0.000 A 
ATOM     12  H   UNL     1       5.492   4.921  16.553  0.00  0.00    +0.000 HD
ENDBRANCH   1   3
BRANCH   1  16
ATOM     13  C   UNL     1       0.645   9.462  21.235  0.00  0.00    +0.000 A 
ATOM     14  C   UNL     1       1.254   8.201  21.374  0.00  0.00    +0.000 A 
ATOM     15  C   UNL     1       1.879   7.573  20.297  0.00  0.00    +0.000 A 
ATOM     16  C   UNL     1       1.945   8.168  19.047  0.00  0.00    +0.000 A 
ATOM     17  C   UNL     1       1.313   9.426  18.902  0.00  0.00    +0.000 A 
ATOM     18  C   UNL     1       0.663  10.054  19.966  0.00  0.00    +0.000 A 
BRANCH  13  21
ATOM     19  C   UNL     1      -1.695  11.885  22.982  0.00  0.00    +0.000 C 
ATOM     20  N   UNL     1      -0.982  11.116  22.006  0.00  0.00    +0.000 N 
ATOM     21  C   UNL     1      -0.051  10.151  22.373  0.00  0.00    +0.000 C 
ATOM     22  O   UNL     1       0.201   9.854  23.522  0.00  0.00    +0.000 OA
ATOM     23  H   UNL     1      -1.232  11.218  21.029  0.00  0.00    +0.000 HD
ENDBRANCH  13  21
ENDBRANCH   1  16
TORSDOF 3
ENDMDL
MODEL 9
REMARK VINA RESULT:      -7.3      3.955      7.229
REMARK  Name = 
REMARK  4 active torsions:
REMARK  status: ('A' for Active; 'I' for Inactive)
REMARK    1  A    between atoms: C_1  and  N_2
REMARK    2  A    between atoms: C_3  and  C_5
REMARK    3  A    between atoms: C_8  and  N_9
REMARK    4  A    between atoms: N_9  and  C_10
REMARK                            x       y       z     vdW  Elec       q    Type
REMARK                         _______ _______ _______ _____ _____    ______ ____
ROOT
ATOM      1  N   UNL     1       2.876   5.435  18.914  0.00  0.00    +0.000 N 
ATOM      2  H   UNL     1       2.528   4.954  19.741  0.00  0.00    +0.000 HD
ENDROOT
BRANCH   1   3
ATOM      3  C   UNL     1       4.132   5.019  18.567  0.00  0.00    +0.000 A 
ATOM      4  C   UNL     1       4.732   3.976  19.242  0.00  0.00    +0.000 A 
ATOM      5  N   UNL     1       6.062   4.222  19.073  0.00  0.00    +0.000 N 
ATOM      6  C   UNL     1       6.221   4.610  17.771  0.00  0.00    +0.000 A 
ATOM      7  C   UNL     1       7.327   4.497  16.924  0.00  0.00    +0.000 A 
ATOM      8  C   UNL     1       7.148   4.922  15.611  0.00  0.00    +0.000 A 
ATOM      9  C   UNL     1       5.942   5.492  15.206  0.00  0.00    +0.000 A 
ATOM     10  C   UNL     1       4.868   5.665  16.103  0.00  0.00    +0.000 A 
ATOM     11  C   UNL     1       4.988   5.187  17.422  0.00  0.00    +0.000 A 
ATOM     12  H   UNL     1       6.764   4.303  19.799  0.00  0.00    +0.000 HD
ENDBRANCH   1   3
BRANCH   1  16
ATOM     13  C   UNL     1       1.307   9.417  19.278  0.00  0.00    +0.000 A 
ATOM     14  C   UNL     1       1.804   8.943  18.050  0.00  0.00    +0.000 A 
ATOM     15  C   UNL     1       2.336   7.659  17.927  0.00  0.00    +0.000 A 
ATOM     16  C   UNL     1       2.385   6.787  19.002  0.00  0.00    +0.000 A 
ATOM     17  C   UNL     1       1.906   7.270  20.243  0.00  0.00    +0.000 A 
ATOM     18  C   UNL     1       1.393   8.562  20.384  0.00  0.00    +0.000 A 
BRANCH  13  21
ATOM     19  C   UNL     1      -0.540  12.599  18.353  0.00  0.00    +0.000 C 
ATOM     20  N   UNL     1       0.020  11.280  18.360  0.00  0.00    +0.000 N 
ATOM     21  C   UNL     1       0.748  10.800  19.442  0.00  0.00    +0.000 C 
ATOM     22  O   UNL     1       0.932  11.424  20.466  0.00  0.00    +0.000 OA
ATOM     23  H   UNL     1      -0.200  10.655  17.593  0.00  0.00    +0.000 HD
ENDBRANCH  13  21
ENDBRANCH   1  16
TORSDOF 3
ENDMDL
