MODEL 1
REMARK VINA RESULT:      -8.7      0.000      0.000
REMARK  Name = 
REMARK  3 active torsions:
REMARK  status: ('A' for Active; 'I' for Inactive)
REMARK    1  A    between atoms: C_2  and  O_3
REMARK    2  A    between atoms: C_2  and  C_4
REMARK    3  A    between atoms: C_5  and  C_6
REMARK                            x       y       z     vdW  Elec       q    Type
REMARK                         _______ _______ _______ _____ _____    ______ ____
ROOT
ATOM      1  C   UNL     1       3.944   4.581  18.616  0.00  0.00    +0.000 A 
ATOM      2  C   UNL     1       4.544   5.407  17.671  0.00  0.00    +0.000 A 
ATOM      3  N   UNL     1       3.978   6.655  17.788  0.00  0.00    +0.000 N 
ATOM      4  C   UNL     1       3.076   6.676  18.833  0.00  0.00    +0.000 A 
ATOM      5  C   UNL     1       2.291   7.722  19.336  0.00  0.00    +0.000 A 
ATOM      6  C   UNL     1       1.458   7.447  20.430  0.00  0.00    +0.000 A 
ATOM      7  C   UNL     1       1.412   6.179  20.999  0.00  0.00    +0.000 A 
ATOM      8  C   UNL     1       2.201   5.149  20.486  0.00  0.00    +0.000 A 
ATOM      9  C   UNL     1       3.041   5.392  19.376  0.00  0.00    +0.000 A 
ATOM     10  H   UNL     1       4.180   7.449  17.195  0.00  0.00    +0.000 HD
ENDROOT
BRANCH   2  11
ATOM     11  C   UNL     1       5.481   5.134  16.633  0.00  0.00    +0.000 A 
ATOM     12  C   UNL     1       5.165   4.233  15.689  0.00  0.00    +0.000 A 
ATOM     13  C   UNL     1       5.971   4.130  14.478  0.00  0.00    +0.000 A 
ATOM     14  C   UNL     1       5.646   3.256  13.435  0.00  0.00    +0.000 A 
ATOM     15  C   UNL     1       6.388   3.282  12.249  0.00  0.00    +0.000 A 
ATOM     16 CL   UNL     1       5.972   2.217  10.961  0.00  0.00    +0.000 Cl
ATOM     17  C   UNL     1       7.452   4.170  12.089  0.00  0.00    +0.000 A 
ATOM     18  C   UNL     1       7.790   5.033  13.129  0.00  0.00    +0.000 A 
ATOM     19  C   UNL     1       7.048   4.996  14.309  0.00  0.00    +0.000 A 
ATOM     20  O   UNL     1       7.433   5.881  15.333  0.00  0.00    +0.000 OA
ATOM     21  C   UNL     1       6.709   5.975  16.519  0.00  0.00    +0.000 A 
ATOM     22  O   UNL     1       7.078   6.711  17.430  0.00  0.00    +0.000 OA
ENDBRANCH   2  11
BRANCH   1  24
ATOM     23  O   UNL     1       3.601   2.281  18.191  0.00  0.00    +0.000 OA
ATOM     24  C   UNL     1       4.219   3.161  18.775  0.00  0.00    +0.000 C 
BRANCH  24  25
ATOM     25  O   UNL     1       5.208   2.872  19.657  0.00  0.00    +0.000 OA
ATOM     26  H   UNL     1       5.289   3.567  20.338  0.00  0.00    +0.000 HD
ENDBRANCH  24  25
ENDBRANCH   1  24
TORSDOF 3
ENDMDL
MODEL 2
REMARK VINA RESULT:      -7.7      2.912      7.324
REMARK  Name = 
REMARK  3 active torsions:
REMARK  status: ('A' for Active; 'I' for Inactive)
REMARK    1  A    between atoms: C_2  and  O_3
REMARK    2  A    between atoms: C_2  and  C_4
REMARK    3  A    between atoms: C_5  and  C_6
REMARK                            x       y       z     vdW  Elec       q    Type
REMARK                         _______ _______ _______ _____ _____    ______ ____
ROOT
ATOM      1  C   UNL     1       6.396   5.182  15.870  0.00  0.00    +0.000 A 
ATOM      2  C   UNL     1       5.200   4.567  16.229  0.00  0.00    +0.000 A 
ATOM      3  N   UNL     1       4.710   3.925  15.116  0.00  0.00    +0.000 N 
ATOM      4  C   UNL     1       5.594   4.050  14.063  0.00  0.00    +0.000 A 
ATOM      5  C   UNL     1       5.531   3.544  12.757  0.00  0.00    +0.000 A 
ATOM      6  C   UNL     1       6.597   3.831  11.893  0.00  0.00    +0.000 A 
ATOM      7  C   UNL     1       7.682   4.591  12.315  0.00  0.00    +0.000 A 
ATOM      8  C   UNL     1       7.730   5.087  13.618  0.00  0.00    +0.000 A 
ATOM      9  C   UNL     1       6.664   4.825  14.509  0.00  0.00    +0.000 A 
ATOM     10  H   UNL     1       3.827   3.435  15.063  0.00  0.00    +0.000 HD
ENDROOT
BRANCH   2  11
ATOM     11  C   UNL     1       4.440   4.606  17.433  0.00  0.00    +0.000 A 
ATOM     12  C   UNL     1       4.125   5.797  17.967  0.00  0.00    +0.000 A 
ATOM     13  C   UNL     1       3.131   5.881  19.032  0.00  0.00    +0.000 A 
ATOM     14  C   UNL     1       2.718   7.102  19.576  0.00  0.00    +0.000 A 
ATOM     15  C   UNL     1       1.678   7.131  20.512  0.00  0.00    +0.000 A 
ATOM     16 CL   UNL     1       1.161   8.638  21.164  0.00  0.00    +0.000 Cl
ATOM     17  C   UNL     1       1.044   5.954  20.913  0.00  0.00    +0.000 A 
ATOM     18  C   UNL     1       1.460   4.734  20.387  0.00  0.00    +0.000 A 
ATOM     19  C   UNL     1       2.500   4.715  19.458  0.00  0.00    +0.000 A 
ATOM     20  O   UNL     1       2.889   3.458  18.961  0.00  0.00    +0.000 OA
ATOM     21  C   UNL     1       3.864   3.339  17.974  0.00  0.00    +0.000 A 
ATOM     22  O   UNL     1       4.237   2.238  17.580  0.00  0.00    +0.000 OA
ENDBRANCH   2  11
BRANCH   1  24
ATOM     23  O   UNL     1       7.305   7.231  16.621  0.00  0.00    +0.000 OA
ATOM     24  C   UNL     1       7.198   6.019  16.749  0.00  0.00    +0.000 C 
BRANCH  24  25
ATOM     25  O   UNL     1       7.860   5.344  17.724  0.00  0.00    +0.000 OA
ATOM     26  H   UNL     1       7.271   5.146  18.478  0.00  0.00    +0.000 HD
ENDBRANCH  24  25
ENDBRANCH   1  24
TORSDOF 3
ENDMDL
MODEL 3
REMARK VINA RESULT:      -7.6      3.861      7.507
REMARK  Name = 
REMARK  3 active torsions:
REMARK  status: ('A' for Active; 'I' for Inactive)
REMARK    1  A    between atoms: C_2  and  O_3
REMARK    2  A    between atoms: C_2  and  C_4
REMARK    3  A    between atoms: C_5  and  C_6
REMARK                            x       y       z     vdW  Elec       q    Type
REMARK                         _______ _______ _______ _____ _____    ______ ____
ROOT
ATOM      1  C   UNL     1       3.344   5.215  17.529  0.00  0.00    +0.000 A 
ATOM      2  C   UNL     1       3.541   6.542  17.896  0.00  0.00    +0.000 A 
ATOM      3  N   UNL     1       4.783   6.921  17.443  0.00  0.00    +0.000 N 
ATOM      4  C   UNL     1       5.366   5.893  16.730  0.00  0.00    +0.000 A 
ATOM      5  C   UNL     1       6.600   5.831  16.066  0.00  0.00    +0.000 A 
ATOM      6  C   UNL     1       6.929   4.638  15.409  0.00  0.00    +0.000 A 
ATOM      7  C   UNL     1       6.063   3.551  15.411  0.00  0.00    +0.000 A 
ATOM      8  C   UNL     1       4.838   3.629  16.076  0.00  0.00    +0.000 A 
ATOM      9  C   UNL     1       4.483   4.814  16.758  0.00  0.00    +0.000 A 
ATOM     10  H   UNL     1       5.219   7.818  17.609  0.00  0.00    +0.000 HD
ENDROOT
BRANCH   2  11
ATOM     11  C   UNL     1       2.762   7.429  18.693  0.00  0.00    +0.000 A 
ATOM     12  C   UNL     1       2.329   8.581  18.156  0.00  0.00    +0.000 A 
ATOM     13  C   UNL     1       1.316   9.374  18.842  0.00  0.00    +0.000 A 
ATOM     14  C   UNL     1       0.783  10.544  18.294  0.00  0.00    +0.000 A 
ATOM     15  C   UNL     1      -0.269  11.201  18.943  0.00  0.00    +0.000 A 
ATOM     16 CL   UNL     1      -0.934  12.631  18.253  0.00  0.00    +0.000 Cl
ATOM     17  C   UNL     1      -0.797  10.703  20.134  0.00  0.00    +0.000 A 
ATOM     18  C   UNL     1      -0.261   9.546  20.694  0.00  0.00    +0.000 A 
ATOM     19  C   UNL     1       0.790   8.901  20.043  0.00  0.00    +0.000 A 
ATOM     20  O   UNL     1       1.303   7.741  20.651  0.00  0.00    +0.000 OA
ATOM     21  C   UNL     1       2.299   6.983  20.041  0.00  0.00    +0.000 A 
ATOM     22  O   UNL     1       2.779   6.001  20.599  0.00  0.00    +0.000 OA
ENDBRANCH   2  11
BRANCH   1  24
ATOM     23  O   UNL     1       1.122   4.453  17.254  0.00  0.00    +0.000 OA
ATOM     24  C   UNL     1       2.176   4.419  17.876  0.00  0.00    +0.000 C 
BRANCH  24  25
ATOM     25  O   UNL     1       2.328   3.642  18.978  0.00  0.00    +0.000 OA
ATOM     26  H   UNL     1       1.634   3.828  19.639  0.00  0.00    +0.000 HD
ENDBRANCH  24  25
ENDBRANCH   1  24
TORSDOF 3
ENDMDL
MODEL 4
REMARK VINA RESULT:      -7.4      4.890      7.218
REMARK  Name = 
REMARK  3 active torsions:
REMARK  status: ('A' for Active; 'I' for Inactive)
REMARK    1  A    between atoms: C_2  and  O_3
REMARK    2  A    between atoms: C_2  and  C_4
REMARK    3  A    between atoms: C_5  and  C_6
REMARK                            x       y       z     vdW  Elec       q    Type
REMARK                         _______ _______ _______ _____ _____    ______ ____
ROOT
ATOM      1  C   UNL     1       0.148  10.102  21.327  0.00  0.00    +0.000 A 
ATOM      2  C   UNL     1       0.528   9.713  20.046  0.00  0.00    +0.000 A 
ATOM      3  N   UNL     1      -0.258  10.399  19.151  0.00  0.00    +0.000 N 
ATOM      4  C   UNL     1      -1.091  11.275  19.818  0.00  0.00    +0.000 A 
ATOM      5  C   UNL     1      -2.033  12.188  19.325  0.00  0.00    +0.000 A 
ATOM      6  C   UNL     1      -2.738  12.966  20.254  0.00  0.00    +0.000 A 
ATOM      7  C   UNL     1      -2.512  12.838  21.620  0.00  0.00    +0.000 A 
ATOM      8  C   UNL     1      -1.569  11.925  22.094  0.00  0.00    +0.000 A 
ATOM      9  C   UNL     1      -0.851  11.118  21.183  0.00  0.00    +0.000 A 
ATOM     10  H   UNL     1      -0.243  10.281  18.147  0.00  0.00    +0.000 HD
ENDROOT
BRANCH   2  11
ATOM     11  C   UNL     1       1.443   8.721  19.591  0.00  0.00    +0.000 A 
ATOM     12  C   UNL     1       1.596   7.596  20.308  0.00  0.00    +0.000 A 
ATOM     13  C   UNL     1       2.308   6.457  19.738  0.00  0.00    +0.000 A 
ATOM     14  C   UNL     1       2.437   5.241  20.416  0.00  0.00    +0.000 A 
ATOM     15  C   UNL     1       3.028   4.146  19.775  0.00  0.00    +0.000 A 
ATOM     16 CL   UNL     1       3.167   2.645  20.607  0.00  0.00    +0.000 Cl
ATOM     17  C   UNL     1       3.494   4.250  18.464  0.00  0.00    +0.000 A 
ATOM     18  C   UNL     1       3.382   5.463  17.788  0.00  0.00    +0.000 A 
ATOM     19  C   UNL     1       2.796   6.550  18.437  0.00  0.00    +0.000 A 
ATOM     20  O   UNL     1       2.713   7.755  17.716  0.00  0.00    +0.000 OA
ATOM     21  C   UNL     1       2.076   8.873  18.247  0.00  0.00    +0.000 A 
ATOM     22  O   UNL     1       2.051   9.938  17.636  0.00  0.00    +0.000 OA
ENDBRANCH   2  11
BRANCH   1  24
ATOM     23  O   UNL     1       1.888   9.587  22.844  0.00  0.00    +0.000 OA
ATOM     24  C   UNL     1       0.697   9.558  22.560  0.00  0.00    +0.000 C 
BRANCH  24  25
ATOM     25  O   UNL     1      -0.216   8.977  23.378  0.00  0.00    +0.000 OA
ATOM     26  H   UNL     1       0.215   8.561  24.149  0.00  0.00    +0.000 HD
ENDBRANCH  24  25
ENDBRANCH   1  24
TORSDOF 3
ENDMDL
MODEL 5
REMARK VINA RESULT:      -7.4      3.448      5.740
REMARK  Name = 
REMARK  3 active torsions:
REMARK  status: ('A' for Active; 'I' for Inactive)
REMARK    1  A    between atoms: C_2  and  O_3
REMARK    2  A    between atoms: C_2  and  C_4
REMARK    3  A    between atoms: C_5  and  C_6
REMARK                            x       y       z     vdW  Elec       q    Type
REMARK                         _______ _______ _______ _____ _____    ______ ____
ROOT
ATOM      1  C   UNL     1       1.047   9.184  19.540  0.00  0.00    +0.000 A 
ATOM      2  C   UNL     1       1.530   7.981  20.045  0.00  0.00    +0.000 A 
ATOM      3  N   UNL     1       1.277   7.963  21.396  0.00  0.00    +0.000 N 
ATOM      4  C   UNL     1       0.579   9.095  21.767  0.00  0.00    +0.000 A 
ATOM      5  C   UNL     1       0.086   9.491  23.019  0.00  0.00    +0.000 A 
ATOM      6  C   UNL     1      -0.603  10.709  23.095  0.00  0.00    +0.000 A 
ATOM      7  C   UNL     1      -0.794  11.500  21.967  0.00  0.00    +0.000 A 
ATOM      8  C   UNL     1      -0.298  11.091  20.728  0.00  0.00    +0.000 A 
ATOM      9  C   UNL     1       0.412   9.874  20.623  0.00  0.00    +0.000 A 
ATOM     10  H   UNL     1       1.563   7.236  22.037  0.00  0.00    +0.000 HD
ENDROOT
BRANCH   2  11
ATOM     11  C   UNL     1       2.275   6.930  19.437  0.00  0.00    +0.000 A 
ATOM     12  C   UNL     1       3.150   7.229  18.463  0.00  0.00    +0.000 A 
ATOM     13  C   UNL     1       4.114   6.231  18.013  0.00  0.00    +0.000 A 
ATOM     14  C   UNL     1       5.088   6.511  17.051  0.00  0.00    +0.000 A 
ATOM     15  C   UNL     1       6.059   5.552  16.742  0.00  0.00    +0.000 A 
ATOM     16 CL   UNL     1       7.268   5.910  15.570  0.00  0.00    +0.000 Cl
ATOM     17  C   UNL     1       6.070   4.313  17.384  0.00  0.00    +0.000 A 
ATOM     18  C   UNL     1       5.093   4.021  18.333  0.00  0.00    +0.000 A 
ATOM     19  C   UNL     1       4.127   4.982  18.629  0.00  0.00    +0.000 A 
ATOM     20  O   UNL     1       3.157   4.637  19.589  0.00  0.00    +0.000 OA
ATOM     21  C   UNL     1       2.198   5.554  20.010  0.00  0.00    +0.000 A 
ATOM     22  O   UNL     1       1.322   5.233  20.809  0.00  0.00    +0.000 OA
ENDBRANCH   2  11
BRANCH   1  24
ATOM     23  O   UNL     1       2.223  10.021  17.667  0.00  0.00    +0.000 OA
ATOM     24  C   UNL     1       1.176   9.619  18.157  0.00  0.00    +0.000 C 
BRANCH  24  25
ATOM     25  O   UNL     1       0.025   9.576  17.441  0.00  0.00    +0.000 OA
ATOM     26  H   UNL     1       0.189   9.277  16.526  0.00  0.00    +0.000 HD
ENDBRANCH  24  25
ENDBRANCH   1  24
TORSDOF 3
ENDMDL
MODEL 6
REMARK VINA RESULT:      -7.4      1.789      2.541
REMARK  Name = 
REMARK  3 active torsions:
REMARK  status: ('A' for Active; 'I' for Inactive)
REMARK    1  A    between atoms: C_2  and  O_3
REMARK    2  A    between atoms: C_2  and  C_4
REMARK    3  A    between atoms: C_5  and  C_6
REMARK                            x       y       z     vdW  Elec       q    Type
REMARK                         _______ _______ _______ _____ _____    ______ ____
ROOT
ATOM      1  C   UNL     1       3.702   5.059  18.462  0.00  0.00    +0.000 A 
ATOM      2  C   UNL     1       4.703   4.215  17.990  0.00  0.00    +0.000 A 
ATOM      3  N   UNL     1       4.780   3.140  18.843  0.00  0.00    +0.000 N 
ATOM      4  C   UNL     1       3.805   3.231  19.817  0.00  0.00    +0.000 A 
ATOM      5  C   UNL     1       3.488   2.362  20.871  0.00  0.00    +0.000 A 
ATOM      6  C   UNL     1       2.424   2.716  21.712  0.00  0.00    +0.000 A 
ATOM      7  C   UNL     1       1.705   3.889  21.509  0.00  0.00    +0.000 A 
ATOM      8  C   UNL     1       2.033   4.742  20.455  0.00  0.00    +0.000 A 
ATOM      9  C   UNL     1       3.109   4.419  19.598  0.00  0.00    +0.000 A 
ATOM     10  H   UNL     1       5.453   2.388  18.781  0.00  0.00    +0.000 HD
ENDROOT
BRANCH   2  11
ATOM     11  C   UNL     1       5.636   4.358  16.924  0.00  0.00    +0.000 A 
ATOM     12  C   UNL     1       5.464   3.637  15.804  0.00  0.00    +0.000 A 
ATOM     13  C   UNL     1       6.230   3.954  14.604  0.00  0.00    +0.000 A 
ATOM     14  C   UNL     1       6.041   3.278  13.395  0.00  0.00    +0.000 A 
ATOM     15  C   UNL     1       6.720   3.701  12.246  0.00  0.00    +0.000 A 
ATOM     16 CL   UNL     1       6.468   2.878  10.756  0.00  0.00    +0.000 Cl
ATOM     17  C   UNL     1       7.588   4.793  12.290  0.00  0.00    +0.000 A 
ATOM     18  C   UNL     1       7.793   5.461  13.495  0.00  0.00    +0.000 A 
ATOM     19  C   UNL     1       7.115   5.029  14.635  0.00  0.00    +0.000 A 
ATOM     20  O   UNL     1       7.361   5.731  15.828  0.00  0.00    +0.000 OA
ATOM     21  C   UNL     1       6.676   5.427  17.002  0.00  0.00    +0.000 A 
ATOM     22  O   UNL     1       6.931   6.008  18.053  0.00  0.00    +0.000 OA
ENDBRANCH   2  11
BRANCH   1  24
ATOM     23  O   UNL     1       2.211   6.650  17.549  0.00  0.00    +0.000 OA
ATOM     24  C   UNL     1       3.350   6.343  17.875  0.00  0.00    +0.000 C 
BRANCH  24  25
ATOM     25  O   UNL     1       4.397   7.183  17.681  0.00  0.00    +0.000 OA
ATOM     26  H   UNL     1       5.239   6.766  17.949  0.00  0.00    +0.000 HD
ENDBRANCH  24  25
ENDBRANCH   1  24
TORSDOF 3
ENDMDL
MODEL 7
REMARK VINA RESULT:      -7.3      7.900     11.878
REMARK  Name = 
REMARK  3 active torsions:
REMARK  status: ('A' for Active; 'I' for Inactive)
REMARK    1  A    between atoms: C_2  and  O_3
REMARK    2  A    between atoms: C_2  and  C_4
REMARK    3  A    between atoms: C_5  and  C_6
REMARK                            x       y       z     vdW  Elec       q    Type
REMARK                         _______ _______ _______ _____ _____    ______ ____
ROOT
ATOM      1  C   UNL     1       0.359   9.822  21.323  0.00  0.00    +0.000 A 
ATOM      2  C   UNL     1      -0.089  11.024  20.785  0.00  0.00    +0.000 A 
ATOM      3  N   UNL     1       0.387  11.109  19.498  0.00  0.00    +0.000 N 
ATOM      4  C   UNL     1       1.074   9.959  19.164  0.00  0.00    +0.000 A 
ATOM      5  C   UNL     1       1.702   9.588  17.967  0.00  0.00    +0.000 A 
ATOM      6  C   UNL     1       2.325   8.334  17.917  0.00  0.00    +0.000 A 
ATOM      7  C   UNL     1       2.320   7.482  19.016  0.00  0.00    +0.000 A 
ATOM      8  C   UNL     1       1.690   7.866  20.200  0.00  0.00    +0.000 A 
ATOM      9  C   UNL     1       1.064   9.130  20.286  0.00  0.00    +0.000 A 
ATOM     10  H   UNL     1       0.265  11.898  18.878  0.00  0.00    +0.000 HD
ENDROOT
BRANCH   2  11
ATOM     11  C   UNL     1      -0.800  12.114  21.364  0.00  0.00    +0.000 A 
ATOM     12  C   UNL     1      -2.125  12.005  21.548  0.00  0.00    +0.000 A 
ATOM     13  C   UNL     1      -2.832  12.975  22.377  0.00  0.00    +0.000 A 
ATOM     14  C   UNL     1      -4.198  12.869  22.655  0.00  0.00    +0.000 A 
ATOM     15  C   UNL     1      -4.799  13.763  23.549  0.00  0.00    +0.000 A 
ATOM     16 CL   UNL     1      -6.477  13.615  23.902  0.00  0.00    +0.000 Cl
ATOM     17  C   UNL     1      -4.051  14.763  24.171  0.00  0.00    +0.000 A 
ATOM     18  C   UNL     1      -2.693  14.885  23.887  0.00  0.00    +0.000 A 
ATOM     19  C   UNL     1      -2.105  13.992  22.991  0.00  0.00    +0.000 A 
ATOM     20  O   UNL     1      -0.732  14.160  22.731  0.00  0.00    +0.000 OA
ATOM     21  C   UNL     1      -0.037  13.274  21.912  0.00  0.00    +0.000 A 
ATOM     22  O   UNL     1       1.149  13.454  21.647  0.00  0.00    +0.000 OA
ENDBRANCH   2  11
BRANCH   1  24
ATOM     23  O   UNL     1       0.825   9.709  23.638  0.00  0.00    +0.000 OA
ATOM     24  C   UNL     1       0.123   9.382  22.690  0.00  0.00    +0.000 C 
BRANCH  24  25
ATOM     25  O   UNL     1      -0.932   8.542  22.840  0.00  0.00    +0.000 OA
ATOM     26  H   UNL     1      -1.510   8.830  23.573  0.00  0.00    +0.000 HD
ENDBRANCH  24  25
ENDBRANCH   1  24
TORSDOF 3
ENDMDL
MODEL 8
REMARK VINA RESULT:      -7.2      6.180     10.208
REMARK  Name = 
REMARK  3 active torsions:
REMARK  status: ('A' for Active; 'I' for Inactive)
REMARK    1  A    between atoms: C_2  and  O_3
REMARK    2  A    between atoms: C_2  and  C_4
REMARK    3  A    between atoms: C_5  and  C_6
REMARK                            x       y       z     vdW  Elec       q    Type
REMARK                         _______ _______ _______ _____ _____    ______ ____
ROOT
ATOM      1  C   UNL     1       1.678   8.888  19.085  0.00  0.00    +0.000 A 
ATOM      2  C   UNL     1       1.211   8.904  20.395  0.00  0.00    +0.000 A 
ATOM      3  N   UNL     1       1.466   7.670  20.945  0.00  0.00    +0.000 N 
ATOM      4  C   UNL     1       2.149   6.877  20.045  0.00  0.00    +0.000 A 
ATOM      5  C   UNL     1       2.638   5.569  20.173  0.00  0.00    +0.000 A 
ATOM      6  C   UNL     1       3.311   5.013  19.076  0.00  0.00    +0.000 A 
ATOM      7  C   UNL     1       3.490   5.733  17.900  0.00  0.00    +0.000 A 
ATOM      8  C   UNL     1       2.998   7.034  17.790  0.00  0.00    +0.000 A 
ATOM      9  C   UNL     1       2.305   7.617  18.874  0.00  0.00    +0.000 A 
ATOM     10  H   UNL     1       1.190   7.372  21.871  0.00  0.00    +0.000 HD
ENDROOT
BRANCH   2  11
ATOM     11  C   UNL     1       0.480   9.883  21.127  0.00  0.00    +0.000 A 
ATOM     12  C   UNL     1      -0.406  10.656  20.479  0.00  0.00    +0.000 A 
ATOM     13  C   UNL     1      -1.357  11.468  21.231  0.00  0.00    +0.000 A 
ATOM     14  C   UNL     1      -2.342  12.238  20.605  0.00  0.00    +0.000 A 
ATOM     15  C   UNL     1      -3.299  12.906  21.378  0.00  0.00    +0.000 A 
ATOM     16 CL   UNL     1      -4.522  13.836  20.602  0.00  0.00    +0.000 Cl
ATOM     17  C   UNL     1      -3.285  12.815  22.770  0.00  0.00    +0.000 A 
ATOM     18  C   UNL     1      -2.296  12.062  23.400  0.00  0.00    +0.000 A 
ATOM     19  C   UNL     1      -1.345  11.405  22.622  0.00  0.00    +0.000 A 
ATOM     20  O   UNL     1      -0.363  10.664  23.305  0.00  0.00    +0.000 OA
ATOM     21  C   UNL     1       0.584   9.909  22.617  0.00  0.00    +0.000 A 
ATOM     22  O   UNL     1       1.470   9.306  23.215  0.00  0.00    +0.000 OA
ENDBRANCH   2  11
BRANCH   1  24
ATOM     23  O   UNL     1       2.368  10.878  18.011  0.00  0.00    +0.000 OA
ATOM     24  C   UNL     1       1.541   9.984  18.138  0.00  0.00    +0.000 C 
BRANCH  24  25
ATOM     25  O   UNL     1       0.396   9.965  17.411  0.00  0.00    +0.000 OA
ATOM     26  H   UNL     1       0.022   9.064  17.365  0.00  0.00    +0.000 HD
ENDBRANCH  24  25
ENDBRANCH   1  24
TORSDOF 3
ENDMDL
MODEL 9
REMARK VINA RESULT:      -7.2      6.204      8.678
REMARK  Name = 
REMARK  3 active torsions:
REMARK  status: ('A' for Active; 'I' for Inactive)
REMARK    1  A    between atoms: C_2  and  O_3
REMARK    2  A    between atoms: C_2  and  C_4
REMARK    3  A    between atoms: C_5  and  C_6
REMARK                            x       y       z     vdW  Elec       q    Type
REMARK                         _______ _______ _______ _____ _____    ______ ____
ROOT
ATOM      1  C   UNL     1      -0.098  12.731  18.730  0.00  0.00    +0.000 A 
ATOM      2  C   UNL     1       0.971  11.932  19.123  0.00  0.00    +0.000 A 
ATOM      3  N   UNL     1       2.054  12.753  19.329  0.00  0.00    +0.000 N 
ATOM      4  C   UNL     1       1.694  14.074  19.147  0.00  0.00    +0.000 A 
ATOM      5  C   UNL     1       2.449  15.248  19.274  0.00  0.00    +0.000 A 
ATOM      6  C   UNL     1       1.805  16.469  19.031  0.00  0.00    +0.000 A 
ATOM      7  C   UNL     1       0.461  16.516  18.675  0.00  0.00    +0.000 A 
ATOM      8  C   UNL     1      -0.276  15.338  18.554  0.00  0.00    +0.000 A 
ATOM      9  C   UNL     1       0.349  14.091  18.781  0.00  0.00    +0.000 A 
ATOM     10  H   UNL     1       2.986  12.446  19.571  0.00  0.00    +0.000 HD
ENDROOT
BRANCH   2  11
ATOM     11  C   UNL     1       1.110  10.517  19.218  0.00  0.00    +0.000 A 
ATOM     12  C   UNL     1       1.823   9.867  18.284  0.00  0.00    +0.000 A 
ATOM     13  C   UNL     1       2.211   8.477  18.495  0.00  0.00    +0.000 A 
ATOM     14  C   UNL     1       3.010   7.776  17.586  0.00  0.00    +0.000 A 
ATOM     15  C   UNL     1       3.447   6.483  17.896  0.00  0.00    +0.000 A 
ATOM     16 CL   UNL     1       4.445   5.632  16.781  0.00  0.00    +0.000 Cl
ATOM     17  C   UNL     1       3.096   5.879  19.104  0.00  0.00    +0.000 A 
ATOM     18  C   UNL     1       2.289   6.566  20.007  0.00  0.00    +0.000 A 
ATOM     19  C   UNL     1       1.854   7.852  19.688  0.00  0.00    +0.000 A 
ATOM     20  O   UNL     1       1.035   8.502  20.629  0.00  0.00    +0.000 OA
ATOM     21  C   UNL     1       0.614   9.815  20.438  0.00  0.00    +0.000 A 
ATOM     22  O   UNL     1      -0.143  10.360  21.237  0.00  0.00    +0.000 OA
ENDBRANCH   2  11
BRANCH   1  24
ATOM     23  O   UNL     1      -2.241  11.829  19.160  0.00  0.00    +0.000 OA
ATOM     24  C   UNL     1      -1.414  12.237  18.355  0.00  0.00    +0.000 C 
BRANCH  24  25
ATOM     25  O   UNL     1      -1.656  12.230  17.020  0.00  0.00    +0.000 OA
ATOM     26  H   UNL     1      -1.461  13.100  16.621  0.00  0.00    +0.000 HD
ENDBRANCH  24  25
ENDBRANCH   1  24
TORSDOF 3
ENDMDL
