MODEL 1
REMARK VINA RESULT:      -7.6      0.000      0.000
REMARK  Name = 
REMARK  2 active torsions:
REMARK  status: ('A' for Active; 'I' for Inactive)
REMARK    1  A    between atoms: O_1  and  C_2
REMARK    2  A    between atoms: C_4  and  C_5
REMARK                            x       y       z     vdW  Elec       q    Type
REMARK                         _______ _______ _______ _____ _____    ______ ____
ROOT
ATOM      1  C   UNL     1       6.283   5.429  18.405  0.00  0.00    +0.000 A 
ATOM      2  C   UNL     1       5.257   5.054  19.256  0.00  0.00    +0.000 A 
ATOM      3  C   UNL     1       4.238   4.264  18.744  0.00  0.00    +0.000 A 
ATOM      4  N   UNL     1       4.237   3.794  17.469  0.00  0.00    +0.000 NA
ATOM      5  C   UNL     1       5.228   4.175  16.640  0.00  0.00    +0.000 A 
ATOM      6  C   UNL     1       5.206   3.760  15.309  0.00  0.00    +0.000 A 
ATOM      7  C   UNL     1       6.180   4.212  14.439  0.00  0.00    +0.000 A 
ATOM      8  C   UNL     1       7.195   5.034  14.859  0.00  0.00    +0.000 A 
ATOM      9  C   UNL     1       7.287   5.440  16.165  0.00  0.00    +0.000 A 
ATOM     10  C   UNL     1       6.289   5.018  17.067  0.00  0.00    +0.000 A 
ATOM     11  O   UNL     1       8.034   5.390  13.852  0.00  0.00    +0.000 OA
ATOM     12  C   UNL     1       7.389   4.758  12.729  0.00  0.00    +0.000 C 
ATOM     13  O   UNL     1       6.259   3.942  13.108  0.00  0.00    +0.000 OA
ENDROOT
BRANCH   3  14
ATOM     14  C   UNL     1       3.048   3.918  19.537  0.00  0.00    +0.000 A 
ATOM     15  C   UNL     1       1.786   4.487  19.524  0.00  0.00    +0.000 A 
ATOM     16  C   UNL     1       0.899   3.891  20.472  0.00  0.00    +0.000 A 
ATOM     17  C   UNL     1       1.513   2.895  21.195  0.00  0.00    +0.000 A 
ATOM     18  S   UNL     1       3.138   2.676  20.729  0.00  0.00    +0.000 S 
ENDBRANCH   3  14
BRANCH   1  19
ATOM     19  O   UNL     1       7.290   6.237  18.866  0.00  0.00    +0.000 OA
ATOM     20  H   UNL     1       7.771   5.780  19.574  0.00  0.00    +0.000 HD
ENDBRANCH   1  19
TORSDOF 2
ENDMDL
MODEL 2
REMARK VINA RESULT:      -7.1      3.582      4.246
REMARK  Name = 
REMARK  2 active torsions:
REMARK  status: ('A' for Active; 'I' for Inactive)
REMARK    1  A    between atoms: O_1  and  C_2
REMARK    2  A    between atoms: C_4  and  C_5
REMARK                            x       y       z     vdW  Elec       q    Type
REMARK                         _______ _______ _______ _____ _____    ______ ____
ROOT
ATOM      1  C   UNL     1       2.962   4.839  19.407  0.00  0.00    +0.000 A 
ATOM      2  C   UNL     1       2.218   5.831  20.024  0.00  0.00    +0.000 A 
ATOM      3  C   UNL     1       2.269   7.112  19.495  0.00  0.00    +0.000 A 
ATOM      4  N   UNL     1       2.964   7.419  18.369  0.00  0.00    +0.000 NA
ATOM      5  C   UNL     1       3.701   6.455  17.782  0.00  0.00    +0.000 A 
ATOM      6  C   UNL     1       4.476   6.769  16.666  0.00  0.00    +0.000 A 
ATOM      7  C   UNL     1       5.290   5.801  16.110  0.00  0.00    +0.000 A 
ATOM      8  C   UNL     1       5.330   4.522  16.604  0.00  0.00    +0.000 A 
ATOM      9  C   UNL     1       4.558   4.150  17.674  0.00  0.00    +0.000 A 
ATOM     10  C   UNL     1       3.741   5.126  18.280  0.00  0.00    +0.000 A 
ATOM     11  O   UNL     1       6.209   3.729  15.940  0.00  0.00    +0.000 OA
ATOM     12  C   UNL     1       6.778   4.675  15.014  0.00  0.00    +0.000 C 
ATOM     13  O   UNL     1       6.141   5.970  15.061  0.00  0.00    +0.000 OA
ENDROOT
BRANCH   3  14
ATOM     14  C   UNL     1       1.610   8.252  20.152  0.00  0.00    +0.000 A 
ATOM     15  C   UNL     1       1.270   8.423  21.483  0.00  0.00    +0.000 A 
ATOM     16  C   UNL     1       0.606   9.665  21.730  0.00  0.00    +0.000 A 
ATOM     17  C   UNL     1       0.444  10.399  20.579  0.00  0.00    +0.000 A 
ATOM     18  S   UNL     1       1.091   9.604  19.217  0.00  0.00    +0.000 S 
ENDBRANCH   3  14
BRANCH   1  19
ATOM     19  O   UNL     1       2.962   3.568  19.920  0.00  0.00    +0.000 OA
ATOM     20  H   UNL     1       3.870   3.226  19.935  0.00  0.00    +0.000 HD
ENDBRANCH   1  19
TORSDOF 2
ENDMDL
MODEL 3
REMARK VINA RESULT:      -7.1      3.016      6.391
REMARK  Name = 
REMARK  2 active torsions:
REMARK  status: ('A' for Active; 'I' for Inactive)
REMARK    1  A    between atoms: O_1  and  C_2
REMARK    2  A    between atoms: C_4  and  C_5
REMARK                            x       y       z     vdW  Elec       q    Type
REMARK                         _______ _______ _______ _____ _____    ______ ____
ROOT
ATOM      1  C   UNL     1       6.312   4.658  18.132  0.00  0.00    +0.000 A 
ATOM      2  C   UNL     1       6.861   4.831  16.872  0.00  0.00    +0.000 A 
ATOM      3  C   UNL     1       6.078   4.524  15.769  0.00  0.00    +0.000 A 
ATOM      4  N   UNL     1       4.783   4.125  15.871  0.00  0.00    +0.000 NA
ATOM      5  C   UNL     1       4.258   3.942  17.098  0.00  0.00    +0.000 A 
ATOM      6  C   UNL     1       2.954   3.465  17.221  0.00  0.00    +0.000 A 
ATOM      7  C   UNL     1       2.441   3.206  18.478  0.00  0.00    +0.000 A 
ATOM      8  C   UNL     1       3.170   3.438  19.616  0.00  0.00    +0.000 A 
ATOM      9  C   UNL     1       4.443   3.944  19.554  0.00  0.00    +0.000 A 
ATOM     10  C   UNL     1       5.002   4.190  18.283  0.00  0.00    +0.000 A 
ATOM     11  O   UNL     1       2.503   3.094  20.748  0.00  0.00    +0.000 OA
ATOM     12  C   UNL     1       1.293   2.545  20.190  0.00  0.00    +0.000 C 
ATOM     13  O   UNL     1       1.213   2.688  18.754  0.00  0.00    +0.000 OA
ENDROOT
BRANCH   3  14
ATOM     14  C   UNL     1       6.615   4.560  14.400  0.00  0.00    +0.000 A 
ATOM     15  C   UNL     1       7.594   5.376  13.860  0.00  0.00    +0.000 A 
ATOM     16  C   UNL     1       7.819   5.128  12.470  0.00  0.00    +0.000 A 
ATOM     17  C   UNL     1       6.993   4.141  11.985  0.00  0.00    +0.000 A 
ATOM     18  S   UNL     1       5.965   3.516  13.192  0.00  0.00    +0.000 S 
ENDBRANCH   3  14
BRANCH   1  19
ATOM     19  O   UNL     1       7.066   4.919  19.246  0.00  0.00    +0.000 OA
ATOM     20  H   UNL     1       7.536   4.113  19.514  0.00  0.00    +0.000 HD
ENDBRANCH   1  19
TORSDOF 2
ENDMDL
MODEL 4
REMARK VINA RESULT:      -7.1      3.041      6.405
REMARK  Name = 
REMARK  2 active torsions:
REMARK  status: ('A' for Active; 'I' for Inactive)
REMARK    1  A    between atoms: O_1  and  C_2
REMARK    2  A    between atoms: C_4  and  C_5
REMARK                            x       y       z     vdW  Elec       q    Type
REMARK                         _______ _______ _______ _____ _____    ______ ____
ROOT
ATOM      1  C   UNL     1       6.255   4.605  18.001  0.00  0.00    +0.000 A 
ATOM      2  C   UNL     1       6.684   4.588  16.685  0.00  0.00    +0.000 A 
ATOM      3  C   UNL     1       5.743   4.351  15.693  0.00  0.00    +0.000 A 
ATOM      4  N   UNL     1       4.419   4.200  15.953  0.00  0.00    +0.000 NA
ATOM      5  C   UNL     1       4.008   4.200  17.237  0.00  0.00    +0.000 A 
ATOM      6  C   UNL     1       2.663   3.975  17.526  0.00  0.00    +0.000 A 
ATOM      7  C   UNL     1       2.255   3.900  18.844  0.00  0.00    +0.000 A 
ATOM      8  C   UNL     1       3.134   4.077  19.882  0.00  0.00    +0.000 A 
ATOM      9  C   UNL     1       4.460   4.340  19.654  0.00  0.00    +0.000 A 
ATOM     10  C   UNL     1       4.910   4.392  18.318  0.00  0.00    +0.000 A 
ATOM     11  O   UNL     1       2.546   3.938  21.099  0.00  0.00    +0.000 OA
ATOM     12  C   UNL     1       1.206   3.578  20.710  0.00  0.00    +0.000 C 
ATOM     13  O   UNL     1       0.994   3.632  19.282  0.00  0.00    +0.000 OA
ENDROOT
BRANCH   3  14
ATOM     14  C   UNL     1       6.124   4.194  14.281  0.00  0.00    +0.000 A 
ATOM     15  C   UNL     1       5.537   3.423  13.292  0.00  0.00    +0.000 A 
ATOM     16  C   UNL     1       6.223   3.510  12.041  0.00  0.00    +0.000 A 
ATOM     17  C   UNL     1       7.323   4.331  12.114  0.00  0.00    +0.000 A 
ATOM     18  S   UNL     1       7.523   4.996  13.671  0.00  0.00    +0.000 S 
ENDBRANCH   3  14
BRANCH   1  19
ATOM     19  O   UNL     1       7.162   4.804  19.011  0.00  0.00    +0.000 OA
ATOM     20  H   UNL     1       6.819   5.473  19.625  0.00  0.00    +0.000 HD
ENDBRANCH   1  19
TORSDOF 2
ENDMDL
MODEL 5
REMARK VINA RESULT:      -7.0      5.417      8.177
REMARK  Name = 
REMARK  2 active torsions:
REMARK  status: ('A' for Active; 'I' for Inactive)
REMARK    1  A    between atoms: O_1  and  C_2
REMARK    2  A    between atoms: C_4  and  C_5
REMARK                            x       y       z     vdW  Elec       q    Type
REMARK                         _______ _______ _______ _____ _____    ______ ____
ROOT
ATOM      1  C   UNL     1       1.889   9.260  18.223  0.00  0.00    +0.000 A 
ATOM      2  C   UNL     1       2.640   8.147  17.885  0.00  0.00    +0.000 A 
ATOM      3  C   UNL     1       2.730   7.115  18.808  0.00  0.00    +0.000 A 
ATOM      4  N   UNL     1       2.068   7.123  19.993  0.00  0.00    +0.000 NA
ATOM      5  C   UNL     1       1.353   8.216  20.325  0.00  0.00    +0.000 A 
ATOM      6  C   UNL     1       0.724   8.273  21.569  0.00  0.00    +0.000 A 
ATOM      7  C   UNL     1       0.054   9.422  21.940  0.00  0.00    +0.000 A 
ATOM      8  C   UNL     1      -0.040  10.504  21.102  0.00  0.00    +0.000 A 
ATOM      9  C   UNL     1       0.525  10.487  19.854  0.00  0.00    +0.000 A 
ATOM     10  C   UNL     1       1.241   9.338  19.460  0.00  0.00    +0.000 A 
ATOM     11  O   UNL     1      -0.713  11.544  21.659  0.00  0.00    +0.000 OA
ATOM     12  C   UNL     1      -0.969  11.023  22.978  0.00  0.00    +0.000 C 
ATOM     13  O   UNL     1      -0.557   9.647  23.136  0.00  0.00    +0.000 OA
ENDROOT
BRANCH   3  14
ATOM     14  C   UNL     1       3.601   5.949  18.588  0.00  0.00    +0.000 A 
ATOM     15  C   UNL     1       4.532   5.722  17.588  0.00  0.00    +0.000 A 
ATOM     16  C   UNL     1       5.161   4.443  17.696  0.00  0.00    +0.000 A 
ATOM     17  C   UNL     1       4.681   3.723  18.765  0.00  0.00    +0.000 A 
ATOM     18  S   UNL     1       3.492   4.583  19.633  0.00  0.00    +0.000 S 
ENDBRANCH   3  14
BRANCH   1  19
ATOM     19  O   UNL     1       1.803  10.314  17.350  0.00  0.00    +0.000 OA
ATOM     20  H   UNL     1       2.623  10.834  17.390  0.00  0.00    +0.000 HD
ENDBRANCH   1  19
TORSDOF 2
ENDMDL
MODEL 6
REMARK VINA RESULT:      -7.0      4.532      7.139
REMARK  Name = 
REMARK  2 active torsions:
REMARK  status: ('A' for Active; 'I' for Inactive)
REMARK    1  A    between atoms: O_1  and  C_2
REMARK    2  A    between atoms: C_4  and  C_5
REMARK                            x       y       z     vdW  Elec       q    Type
REMARK                         _______ _______ _______ _____ _____    ______ ____
ROOT
ATOM      1  C   UNL     1       2.768   6.209  19.895  0.00  0.00    +0.000 A 
ATOM      2  C   UNL     1       3.623   5.571  19.011  0.00  0.00    +0.000 A 
ATOM      3  C   UNL     1       3.904   6.198  17.806  0.00  0.00    +0.000 A 
ATOM      4  N   UNL     1       3.429   7.429  17.485  0.00  0.00    +0.000 NA
ATOM      5  C   UNL     1       2.584   8.038  18.340  0.00  0.00    +0.000 A 
ATOM      6  C   UNL     1       2.031   9.271  17.996  0.00  0.00    +0.000 A 
ATOM      7  C   UNL     1       1.107   9.860  18.837  0.00  0.00    +0.000 A 
ATOM      8  C   UNL     1       0.741   9.281  20.025  0.00  0.00    +0.000 A 
ATOM      9  C   UNL     1       1.283   8.089  20.431  0.00  0.00    +0.000 A 
ATOM     10  C   UNL     1       2.207   7.450  19.578  0.00  0.00    +0.000 A 
ATOM     11  O   UNL     1      -0.198   9.999  20.694  0.00  0.00    +0.000 OA
ATOM     12  C   UNL     1      -0.441  11.064  19.754  0.00  0.00    +0.000 C 
ATOM     13  O   UNL     1       0.442  11.027  18.612  0.00  0.00    +0.000 OA
ENDROOT
BRANCH   3  14
ATOM     14  C   UNL     1       4.701   5.544  16.757  0.00  0.00    +0.000 A 
ATOM     15  C   UNL     1       5.316   6.096  15.646  0.00  0.00    +0.000 A 
ATOM     16  C   UNL     1       5.978   5.122  14.836  0.00  0.00    +0.000 A 
ATOM     17  C   UNL     1       5.837   3.851  15.343  0.00  0.00    +0.000 A 
ATOM     18  S   UNL     1       4.923   3.834  16.782  0.00  0.00    +0.000 S 
ENDBRANCH   3  14
BRANCH   1  19
ATOM     19  O   UNL     1       2.441   5.605  21.082  0.00  0.00    +0.000 OA
ATOM     20  H   UNL     1       1.646   6.025  21.449  0.00  0.00    +0.000 HD
ENDBRANCH   1  19
TORSDOF 2
ENDMDL
MODEL 7
REMARK VINA RESULT:      -7.0      4.870      6.401
REMARK  Name = 
REMARK  2 active torsions:
REMARK  status: ('A' for Active; 'I' for Inactive)
REMARK    1  A    between atoms: O_1  and  C_2
REMARK    2  A    between atoms: C_4  and  C_5
REMARK                            x       y       z     vdW  Elec       q    Type
REMARK                         _______ _______ _______ _____ _____    ______ ____
ROOT
ATOM      1  C   UNL     1       2.221   8.056  18.458  0.00  0.00    +0.000 A 
ATOM      2  C   UNL     1       1.612   8.991  19.278  0.00  0.00    +0.000 A 
ATOM      3  C   UNL     1       1.196   8.584  20.537  0.00  0.00    +0.000 A 
ATOM      4  N   UNL     1       1.416   7.334  21.020  0.00  0.00    +0.000 NA
ATOM      5  C   UNL     1       1.993   6.423  20.212  0.00  0.00    +0.000 A 
ATOM      6  C   UNL     1       2.162   5.115  20.665  0.00  0.00    +0.000 A 
ATOM      7  C   UNL     1       2.685   4.162  19.812  0.00  0.00    +0.000 A 
ATOM      8  C   UNL     1       3.077   4.475  18.536  0.00  0.00    +0.000 A 
ATOM      9  C   UNL     1       2.969   5.754  18.053  0.00  0.00    +0.000 A 
ATOM     10  C   UNL     1       2.412   6.740  18.892  0.00  0.00    +0.000 A 
ATOM     11  O   UNL     1       3.537   3.399  17.847  0.00  0.00    +0.000 OA
ATOM     12  C   UNL     1       3.320   2.351  18.812  0.00  0.00    +0.000 C 
ATOM     13  O   UNL     1       2.856   2.840  20.090  0.00  0.00    +0.000 OA
ENDROOT
BRANCH   3  14
ATOM     14  C   UNL     1       0.432   9.472  21.429  0.00  0.00    +0.000 A 
ATOM     15  C   UNL     1      -0.245   9.173  22.599  0.00  0.00    +0.000 A 
ATOM     16  C   UNL     1      -0.898  10.310  23.168  0.00  0.00    +0.000 A 
ATOM     17  C   UNL     1      -0.716  11.441  22.407  0.00  0.00    +0.000 A 
ATOM     18  S   UNL     1       0.239  11.137  21.028  0.00  0.00    +0.000 S 
ENDBRANCH   3  14
BRANCH   1  19
ATOM     19  O   UNL     1       2.617   8.413  17.195  0.00  0.00    +0.000 OA
ATOM     20  H   UNL     1       3.378   9.012  17.252  0.00  0.00    +0.000 HD
ENDBRANCH   1  19
TORSDOF 2
ENDMDL
MODEL 8
REMARK VINA RESULT:      -6.9      5.697      8.325
REMARK  Name = 
REMARK  2 active torsions:
REMARK  status: ('A' for Active; 'I' for Inactive)
REMARK    1  A    between atoms: O_1  and  C_2
REMARK    2  A    between atoms: C_4  and  C_5
REMARK                            x       y       z     vdW  Elec       q    Type
REMARK                         _______ _______ _______ _____ _____    ______ ____
ROOT
ATOM      1  C   UNL     1       1.736   9.087  18.445  0.00  0.00    +0.000 A 
ATOM      2  C   UNL     1       2.358   7.856  18.328  0.00  0.00    +0.000 A 
ATOM      3  C   UNL     1       2.342   7.008  19.425  0.00  0.00    +0.000 A 
ATOM      4  N   UNL     1       1.693   7.307  20.580  0.00  0.00    +0.000 NA
ATOM      5  C   UNL     1       1.105   8.513  20.696  0.00  0.00    +0.000 A 
ATOM      6  C   UNL     1       0.495   8.866  21.900  0.00  0.00    +0.000 A 
ATOM      7  C   UNL     1      -0.043  10.130  22.045  0.00  0.00    +0.000 A 
ATOM      8  C   UNL     1      -0.025  11.043  21.022  0.00  0.00    +0.000 A 
ATOM      9  C   UNL     1       0.527  10.735  19.805  0.00  0.00    +0.000 A 
ATOM     10  C   UNL     1       1.109   9.461  19.638  0.00  0.00    +0.000 A 
ATOM     11  O   UNL     1      -0.576  12.235  21.369  0.00  0.00    +0.000 OA
ATOM     12  C   UNL     1      -0.877  11.996  22.758  0.00  0.00    +0.000 C 
ATOM     13  O   UNL     1      -0.617  10.636  23.171  0.00  0.00    +0.000 OA
ENDROOT
BRANCH   3  14
ATOM     14  C   UNL     1       3.078   5.734  19.435  0.00  0.00    +0.000 A 
ATOM     15  C   UNL     1       2.754   4.534  20.046  0.00  0.00    +0.000 A 
ATOM     16  C   UNL     1       3.747   3.526  19.852  0.00  0.00    +0.000 A 
ATOM     17  C   UNL     1       4.810   3.988  19.111  0.00  0.00    +0.000 A 
ATOM     18  S   UNL     1       4.608   5.616  18.649  0.00  0.00    +0.000 S 
ENDBRANCH   3  14
BRANCH   1  19
ATOM     19  O   UNL     1       1.760   9.966  17.392  0.00  0.00    +0.000 OA
ATOM     20  H   UNL     1       0.987   9.811  16.826  0.00  0.00    +0.000 HD
ENDBRANCH   1  19
TORSDOF 2
ENDMDL
MODEL 9
REMARK VINA RESULT:      -6.8      3.637      4.276
REMARK  Name = 
REMARK  2 active torsions:
REMARK  status: ('A' for Active; 'I' for Inactive)
REMARK    1  A    between atoms: O_1  and  C_2
REMARK    2  A    between atoms: C_4  and  C_5
REMARK                            x       y       z     vdW  Elec       q    Type
REMARK                         _______ _______ _______ _____ _____    ______ ____
ROOT
ATOM      1  C   UNL     1       3.068   5.172  19.498  0.00  0.00    +0.000 A 
ATOM      2  C   UNL     1       2.259   6.184  19.987  0.00  0.00    +0.000 A 
ATOM      3  C   UNL     1       2.248   7.396  19.314  0.00  0.00    +0.000 A 
ATOM      4  N   UNL     1       2.945   7.610  18.167  0.00  0.00    +0.000 NA
ATOM      5  C   UNL     1       3.744   6.629  17.704  0.00  0.00    +0.000 A 
ATOM      6  C   UNL     1       4.520   6.855  16.568  0.00  0.00    +0.000 A 
ATOM      7  C   UNL     1       5.396   5.877  16.137  0.00  0.00    +0.000 A 
ATOM      8  C   UNL     1       5.498   4.669  16.778  0.00  0.00    +0.000 A 
ATOM      9  C   UNL     1       4.730   4.379  17.875  0.00  0.00    +0.000 A 
ATOM     10  C   UNL     1       3.849   5.370  18.355  0.00  0.00    +0.000 A 
ATOM     11  O   UNL     1       6.432   3.855  16.220  0.00  0.00    +0.000 OA
ATOM     12  C   UNL     1       6.963   4.718  15.196  0.00  0.00    +0.000 C 
ATOM     13  O   UNL     1       6.254   5.972  15.085  0.00  0.00    +0.000 OA
ENDROOT
BRANCH   3  14
ATOM     14  C   UNL     1       1.516   8.565  19.826  0.00  0.00    +0.000 A 
ATOM     15  C   UNL     1       1.064   9.686  19.151  0.00  0.00    +0.000 A 
ATOM     16  C   UNL     1       0.418  10.628  20.009  0.00  0.00    +0.000 A 
ATOM     17  C   UNL     1       0.409  10.208  21.318  0.00  0.00    +0.000 A 
ATOM     18  S   UNL     1       1.164   8.691  21.509  0.00  0.00    +0.000 S 
ENDBRANCH   3  14
BRANCH   1  19
ATOM     19  O   UNL     1       3.129   3.971  20.156  0.00  0.00    +0.000 OA
ATOM     20  H   UNL     1       3.427   3.281  19.541  0.00  0.00    +0.000 HD
ENDBRANCH   1  19
TORSDOF 2
ENDMDL
