MODEL 1
REMARK VINA RESULT:      -8.0      0.000      0.000
REMARK  Name = 
REMARK  6 active torsions:
REMARK  status: ('A' for Active; 'I' for Inactive)
REMARK    1  A    between atoms: C_1  and  O_2
REMARK    2  A    between atoms: O_2  and  C_3
REMARK    3  A    between atoms: C_8  and  C_9
REMARK    4  A    between atoms: C_9  and  C_10
REMARK    5  A    between atoms: C_9  and  C_11
REMARK    6  A    between atoms: C_17  and  C_18
REMARK                            x       y       z     vdW  Elec       q    Type
REMARK                         _______ _______ _______ _____ _____    ______ ____
ROOT
ATOM      1  C   UNL     1       0.011  11.350  21.195  0.00  0.00    +0.000 A 
ATOM      2  N   UNL     1       1.075  12.062  21.535  0.00  0.00    +0.000 NA
ATOM      3  N   UNL     1       0.773  13.392  21.355  0.00  0.00    +0.000 NA
ATOM      4  C   UNL     1      -0.462  13.453  20.927  0.00  0.00    +0.000 A 
ATOM      5  N   UNL     1      -1.016  12.201  20.830  0.00  0.00    +0.000 N 
ATOM      6  N   UNL     1      -2.251  11.835  20.375  0.00  0.00    +0.000 NA
ATOM      7  C   UNL     1      -3.145  12.780  20.249  0.00  0.00    +0.000 C 
ATOM      8  C   UNL     1      -2.992  14.207  20.771  0.00  0.00    +0.000 C 
ATOM      9  S   UNL     1      -1.339  14.856  20.465  0.00  0.00    +0.000 S 
ENDROOT
BRANCH   7  10
ATOM     10  C   UNL     1      -4.445  12.417  19.593  0.00  0.00    +0.000 A 
ATOM     11  C   UNL     1      -5.680  12.865  20.077  0.00  0.00    +0.000 A 
ATOM     12  C   UNL     1      -6.859  12.526  19.405  0.00  0.00    +0.000 A 
ATOM     13  C   UNL     1      -6.812  11.730  18.262  0.00  0.00    +0.000 A 
ATOM     14  C   UNL     1      -5.588  11.272  17.782  0.00  0.00    +0.000 A 
ATOM     15  C   UNL     1      -4.408  11.612  18.444  0.00  0.00    +0.000 A 
ENDBRANCH   7  10
BRANCH   1  16
ATOM     16  C   UNL     1      -0.117   9.856  21.193  0.00  0.00    +0.000 C 
ATOM     17  C   UNL     1       0.107   9.285  22.599  0.00  0.00    +0.000 C 
BRANCH  16  23
ATOM     18  C   UNL     1       4.006   6.080  17.726  0.00  0.00    +0.000 A 
ATOM     19  C   UNL     1       3.730   5.480  18.954  0.00  0.00    +0.000 A 
ATOM     20  C   UNL     1       2.855   6.092  19.856  0.00  0.00    +0.000 A 
ATOM     21  C   UNL     1       2.254   7.320  19.552  0.00  0.00    +0.000 A 
ATOM     22  C   UNL     1       1.386   7.952  20.462  0.00  0.00    +0.000 A 
ATOM     23  C   UNL     1       0.807   9.199  20.178  0.00  0.00    +0.000 A 
ATOM     24  C   UNL     1       1.101   9.805  18.949  0.00  0.00    +0.000 A 
ATOM     25  C   UNL     1       1.948   9.180  18.028  0.00  0.00    +0.000 A 
ATOM     26  C   UNL     1       2.536   7.938  18.317  0.00  0.00    +0.000 A 
ATOM     27  C   UNL     1       3.402   7.301  17.411  0.00  0.00    +0.000 A 
BRANCH  18  29
ATOM     28  C   UNL     1       4.937   4.164  16.678  0.00  0.00    +0.000 C 
ATOM     29  O   UNL     1       4.841   5.580  16.763  0.00  0.00    +0.000 OA
ENDBRANCH  18  29
ENDBRANCH  16  23
ENDBRANCH   1  16
TORSDOF 4
ENDMDL
MODEL 2
REMARK VINA RESULT:      -7.9      2.089      2.984
REMARK  Name = 
REMARK  6 active torsions:
REMARK  status: ('A' for Active; 'I' for Inactive)
REMARK    1  A    between atoms: C_1  and  O_2
REMARK    2  A    between atoms: O_2  and  C_3
REMARK    3  A    between atoms: C_8  and  C_9
REMARK    4  A    between atoms: C_9  and  C_10
REMARK    5  A    between atoms: C_9  and  C_11
REMARK    6  A    between atoms: C_17  and  C_18
REMARK                            x       y       z     vdW  Elec       q    Type
REMARK                         _______ _______ _______ _____ _____    ______ ____
ROOT
ATOM      1  C   UNL     1       1.099   8.821  20.720  0.00  0.00    +0.000 A 
ATOM      2  N   UNL     1       1.852   9.294  21.703  0.00  0.00    +0.000 NA
ATOM      3  N   UNL     1       1.530  10.618  21.887  0.00  0.00    +0.000 NA
ATOM      4  C   UNL     1       0.587  10.909  21.027  0.00  0.00    +0.000 A 
ATOM      5  N   UNL     1       0.245   9.812  20.276  0.00  0.00    +0.000 N 
ATOM      6  N   UNL     1      -0.646   9.715  19.245  0.00  0.00    +0.000 NA
ATOM      7  C   UNL     1      -1.490  10.701  19.090  0.00  0.00    +0.000 C 
ATOM      8  C   UNL     1      -1.704  11.837  20.087  0.00  0.00    +0.000 C 
ATOM      9  S   UNL     1      -0.143  12.440  20.757  0.00  0.00    +0.000 S 
ENDROOT
BRANCH   7  10
ATOM     10  C   UNL     1      -2.355  10.681  17.864  0.00  0.00    +0.000 A 
ATOM     11  C   UNL     1      -3.534  11.431  17.766  0.00  0.00    +0.000 A 
ATOM     12  C   UNL     1      -4.284  11.405  16.587  0.00  0.00    +0.000 A 
ATOM     13  C   UNL     1      -3.872  10.622  15.510  0.00  0.00    +0.000 A 
ATOM     14  C   UNL     1      -2.707   9.865  15.605  0.00  0.00    +0.000 A 
ATOM     15  C   UNL     1      -1.952   9.893  16.777  0.00  0.00    +0.000 A 
ENDBRANCH   7  10
BRANCH   1  16
ATOM     16  C   UNL     1       1.125   7.437  20.145  0.00  0.00    +0.000 C 
ATOM     17  C   UNL     1       1.168   6.381  21.257  0.00  0.00    +0.000 C 
BRANCH  16  23
ATOM     18  C   UNL     1       6.399   5.598  16.667  0.00  0.00    +0.000 A 
ATOM     19  C   UNL     1       6.230   4.749  17.759  0.00  0.00    +0.000 A 
ATOM     20  C   UNL     1       5.156   4.933  18.634  0.00  0.00    +0.000 A 
ATOM     21  C   UNL     1       4.242   5.976  18.440  0.00  0.00    +0.000 A 
ATOM     22  C   UNL     1       3.167   6.179  19.327  0.00  0.00    +0.000 A 
ATOM     23  C   UNL     1       2.267   7.243  19.157  0.00  0.00    +0.000 A 
ATOM     24  C   UNL     1       2.452   8.103  18.066  0.00  0.00    +0.000 A 
ATOM     25  C   UNL     1       3.504   7.903  17.167  0.00  0.00    +0.000 A 
ATOM     26  C   UNL     1       4.410   6.845  17.343  0.00  0.00    +0.000 A 
ATOM     27  C   UNL     1       5.484   6.635  16.460  0.00  0.00    +0.000 A 
BRANCH  18  29
ATOM     28  C   UNL     1       7.078   4.921  14.495  0.00  0.00    +0.000 C 
ATOM     29  O   UNL     1       7.406   5.519  15.742  0.00  0.00    +0.000 OA
ENDBRANCH  18  29
ENDBRANCH  16  23
ENDBRANCH   1  16
TORSDOF 4
ENDMDL
MODEL 3
REMARK VINA RESULT:      -7.9      2.517      4.711
REMARK  Name = 
REMARK  6 active torsions:
REMARK  status: ('A' for Active; 'I' for Inactive)
REMARK    1  A    between atoms: C_1  and  O_2
REMARK    2  A    between atoms: O_2  and  C_3
REMARK    3  A    between atoms: C_8  and  C_9
REMARK    4  A    between atoms: C_9  and  C_10
REMARK    5  A    between atoms: C_9  and  C_11
REMARK    6  A    between atoms: C_17  and  C_18
REMARK                            x       y       z     vdW  Elec       q    Type
REMARK                         _______ _______ _______ _____ _____    ______ ____
ROOT
ATOM      1  C   UNL     1      -3.528  13.939  22.004  0.00  0.00    +0.000 A 
ATOM      2  N   UNL     1      -4.409  14.500  22.819  0.00  0.00    +0.000 NA
ATOM      3  N   UNL     1      -5.669  14.222  22.343  0.00  0.00    +0.000 NA
ATOM      4  C   UNL     1      -5.521  13.493  21.266  0.00  0.00    +0.000 A 
ATOM      5  N   UNL     1      -4.195  13.251  21.008  0.00  0.00    +0.000 N 
ATOM      6  N   UNL     1      -3.626  12.586  19.959  0.00  0.00    +0.000 NA
ATOM      7  C   UNL     1      -4.414  11.849  19.222  0.00  0.00    +0.000 C 
ATOM      8  C   UNL     1      -5.860  11.500  19.562  0.00  0.00    +0.000 C 
ATOM      9  S   UNL     1      -6.755  12.921  20.216  0.00  0.00    +0.000 S 
ENDROOT
BRANCH   7  10
ATOM     10  C   UNL     1      -3.831  11.253  17.974  0.00  0.00    +0.000 A 
ATOM     11  C   UNL     1      -4.410  11.440  16.712  0.00  0.00    +0.000 A 
ATOM     12  C   UNL     1      -3.806  10.893  15.576  0.00  0.00    +0.000 A 
ATOM     13  C   UNL     1      -2.635  10.146  15.695  0.00  0.00    +0.000 A 
ATOM     14  C   UNL     1      -2.061   9.946  16.947  0.00  0.00    +0.000 A 
ATOM     15  C   UNL     1      -2.656  10.496  18.083  0.00  0.00    +0.000 A 
ENDBRANCH   7  10
BRANCH   1  16
ATOM     16  C   UNL     1      -2.033  14.005  22.101  0.00  0.00    +0.000 C 
ATOM     17  C   UNL     1      -1.453  14.928  21.022  0.00  0.00    +0.000 C 
BRANCH  16  23
ATOM     18  C   UNL     1       1.132   8.417  20.673  0.00  0.00    +0.000 A 
ATOM     19  C   UNL     1       1.254   9.316  19.615  0.00  0.00    +0.000 A 
ATOM     20  C   UNL     1       0.677  10.586  19.701  0.00  0.00    +0.000 A 
ATOM     21  C   UNL     1      -0.042  10.973  20.839  0.00  0.00    +0.000 A 
ATOM     22  C   UNL     1      -0.640  12.244  20.926  0.00  0.00    +0.000 A 
ATOM     23  C   UNL     1      -1.391  12.625  22.050  0.00  0.00    +0.000 A 
ATOM     24  C   UNL     1      -1.522  11.711  23.104  0.00  0.00    +0.000 A 
ATOM     25  C   UNL     1      -0.918  10.452  23.039  0.00  0.00    +0.000 A 
ATOM     26  C   UNL     1      -0.177  10.067  21.910  0.00  0.00    +0.000 A 
ATOM     27  C   UNL     1       0.426   8.800  21.818  0.00  0.00    +0.000 A 
BRANCH  18  29
ATOM     28  C   UNL     1       2.391   6.735  19.568  0.00  0.00    +0.000 C 
ATOM     29  O   UNL     1       1.651   7.150  20.708  0.00  0.00    +0.000 OA
ENDBRANCH  18  29
ENDBRANCH  16  23
ENDBRANCH   1  16
TORSDOF 4
ENDMDL
MODEL 4
REMARK VINA RESULT:      -7.8      2.019      2.487
REMARK  Name = 
REMARK  6 active torsions:
REMARK  status: ('A' for Active; 'I' for Inactive)
REMARK    1  A    between atoms: C_1  and  O_2
REMARK    2  A    between atoms: O_2  and  C_3
REMARK    3  A    between atoms: C_8  and  C_9
REMARK    4  A    between atoms: C_9  and  C_10
REMARK    5  A    between atoms: C_9  and  C_11
REMARK    6  A    between atoms: C_17  and  C_18
REMARK                            x       y       z     vdW  Elec       q    Type
REMARK                         _______ _______ _______ _____ _____    ______ ____
ROOT
ATOM      1  C   UNL     1       0.783  10.647  21.053  0.00  0.00    +0.000 A 
ATOM      2  N   UNL     1       1.757  11.377  21.574  0.00  0.00    +0.000 NA
ATOM      3  N   UNL     1       1.815  12.566  20.886  0.00  0.00    +0.000 NA
ATOM      4  C   UNL     1       0.871  12.533  19.981  0.00  0.00    +0.000 A 
ATOM      5  N   UNL     1       0.160  11.361  20.047  0.00  0.00    +0.000 N 
ATOM      6  N   UNL     1      -0.858  10.921  19.248  0.00  0.00    +0.000 NA
ATOM      7  C   UNL     1      -1.433  11.802  18.473  0.00  0.00    +0.000 C 
ATOM      8  C   UNL     1      -1.210  13.311  18.546  0.00  0.00    +0.000 C 
ATOM      9  S   UNL     1       0.529  13.719  18.785  0.00  0.00    +0.000 S 
ENDROOT
BRANCH   7  10
ATOM     10  C   UNL     1      -2.432  11.295  17.475  0.00  0.00    +0.000 A 
ATOM     11  C   UNL     1      -3.771  11.705  17.480  0.00  0.00    +0.000 A 
ATOM     12  C   UNL     1      -4.652  11.229  16.504  0.00  0.00    +0.000 A 
ATOM     13  C   UNL     1      -4.207  10.335  15.532  0.00  0.00    +0.000 A 
ATOM     14  C   UNL     1      -2.879   9.915  15.528  0.00  0.00    +0.000 A 
ATOM     15  C   UNL     1      -1.994  10.392  16.495  0.00  0.00    +0.000 A 
ENDBRANCH   7  10
BRANCH   1  16
ATOM     16  C   UNL     1       0.374   9.261  21.454  0.00  0.00    +0.000 C 
ATOM     17  C   UNL     1       0.525   9.061  22.968  0.00  0.00    +0.000 C 
BRANCH  16  23
ATOM     18  C   UNL     1       3.305   3.852  19.122  0.00  0.00    +0.000 A 
ATOM     19  C   UNL     1       2.684   3.570  20.338  0.00  0.00    +0.000 A 
ATOM     20  C   UNL     1       1.975   4.567  21.014  0.00  0.00    +0.000 A 
ATOM     21  C   UNL     1       1.888   5.864  20.494  0.00  0.00    +0.000 A 
ATOM     22  C   UNL     1       1.190   6.878  21.178  0.00  0.00    +0.000 A 
ATOM     23  C   UNL     1       1.127   8.189  20.679  0.00  0.00    +0.000 A 
ATOM     24  C   UNL     1       1.767   8.470  19.464  0.00  0.00    +0.000 A 
ATOM     25  C   UNL     1       2.448   7.469  18.765  0.00  0.00    +0.000 A 
ATOM     26  C   UNL     1       2.520   6.160  19.270  0.00  0.00    +0.000 A 
ATOM     27  C   UNL     1       3.213   5.143  18.591  0.00  0.00    +0.000 A 
BRANCH  18  29
ATOM     28  C   UNL     1       3.557   1.622  18.348  0.00  0.00    +0.000 C 
ATOM     29  O   UNL     1       4.025   2.964  18.368  0.00  0.00    +0.000 OA
ENDBRANCH  18  29
ENDBRANCH  16  23
ENDBRANCH   1  16
TORSDOF 4
ENDMDL
MODEL 5
REMARK VINA RESULT:      -7.8      2.415      3.803
REMARK  Name = 
REMARK  6 active torsions:
REMARK  status: ('A' for Active; 'I' for Inactive)
REMARK    1  A    between atoms: C_1  and  O_2
REMARK    2  A    between atoms: O_2  and  C_3
REMARK    3  A    between atoms: C_8  and  C_9
REMARK    4  A    between atoms: C_9  and  C_10
REMARK    5  A    between atoms: C_9  and  C_11
REMARK    6  A    between atoms: C_17  and  C_18
REMARK                            x       y       z     vdW  Elec       q    Type
REMARK                         _______ _______ _______ _____ _____    ______ ____
ROOT
ATOM      1  C   UNL     1      -1.674  11.767  18.436  0.00  0.00    +0.000 A 
ATOM      2  N   UNL     1      -1.783  11.430  17.160  0.00  0.00    +0.000 NA
ATOM      3  N   UNL     1      -3.121  11.344  16.855  0.00  0.00    +0.000 NA
ATOM      4  C   UNL     1      -3.784  11.643  17.942  0.00  0.00    +0.000 A 
ATOM      5  N   UNL     1      -2.934  11.949  18.975  0.00  0.00    +0.000 N 
ATOM      6  N   UNL     1      -3.226  12.256  20.274  0.00  0.00    +0.000 NA
ATOM      7  C   UNL     1      -4.465  12.562  20.551  0.00  0.00    +0.000 C 
ATOM      8  C   UNL     1      -5.558  12.815  19.515  0.00  0.00    +0.000 C 
ATOM      9  S   UNL     1      -5.488  11.623  18.165  0.00  0.00    +0.000 S 
ENDROOT
BRANCH   7  10
ATOM     10  C   UNL     1      -4.827  12.733  21.997  0.00  0.00    +0.000 A 
ATOM     11  C   UNL     1      -6.121  13.072  22.412  0.00  0.00    +0.000 A 
ATOM     12  C   UNL     1      -6.412  13.184  23.775  0.00  0.00    +0.000 A 
ATOM     13  C   UNL     1      -5.415  12.975  24.726  0.00  0.00    +0.000 A 
ATOM     14  C   UNL     1      -4.123  12.649  24.319  0.00  0.00    +0.000 A 
ATOM     15  C   UNL     1      -3.829  12.529  22.961  0.00  0.00    +0.000 A 
ENDBRANCH   7  10
BRANCH   1  16
ATOM     16  C   UNL     1      -0.409  11.942  19.223  0.00  0.00    +0.000 C 
ATOM     17  C   UNL     1       0.530  12.942  18.536  0.00  0.00    +0.000 C 
BRANCH  16  23
ATOM     18  C   UNL     1       3.061   6.353  19.119  0.00  0.00    +0.000 A 
ATOM     19  C   UNL     1       3.194   7.018  17.901  0.00  0.00    +0.000 A 
ATOM     20  C   UNL     1       2.559   8.246  17.697  0.00  0.00    +0.000 A 
ATOM     21  C   UNL     1       1.770   8.823  18.700  0.00  0.00    +0.000 A 
ATOM     22  C   UNL     1       1.114  10.051  18.496  0.00  0.00    +0.000 A 
ATOM     23  C   UNL     1       0.295  10.618  19.486  0.00  0.00    +0.000 A 
ATOM     24  C   UNL     1       0.153   9.937  20.703  0.00  0.00    +0.000 A 
ATOM     25  C   UNL     1       0.814   8.725  20.926  0.00  0.00    +0.000 A 
ATOM     26  C   UNL     1       1.624   8.153  19.932  0.00  0.00    +0.000 A 
ATOM     27  C   UNL     1       2.284   6.928  20.130  0.00  0.00    +0.000 A 
BRANCH  18  29
ATOM     28  C   UNL     1       2.797   4.204  20.094  0.00  0.00    +0.000 C 
ATOM     29  O   UNL     1       3.632   5.150  19.439  0.00  0.00    +0.000 OA
ENDBRANCH  18  29
ENDBRANCH  16  23
ENDBRANCH   1  16
TORSDOF 4
ENDMDL
MODEL 6
REMARK VINA RESULT:      -7.7      3.918      9.249
REMARK  Name = 
REMARK  6 active torsions:
REMARK  status: ('A' for Active; 'I' for Inactive)
REMARK    1  A    between atoms: C_1  and  O_2
REMARK    2  A    between atoms: O_2  and  C_3
REMARK    3  A    between atoms: C_8  and  C_9
REMARK    4  A    between atoms: C_9  and  C_10
REMARK    5  A    between atoms: C_9  and  C_11
REMARK    6  A    between atoms: C_17  and  C_18
REMARK                            x       y       z     vdW  Elec       q    Type
REMARK                         _______ _______ _______ _____ _____    ______ ____
ROOT
ATOM      1  C   UNL     1       1.384   8.514  19.417  0.00  0.00    +0.000 A 
ATOM      2  N   UNL     1       0.778   8.485  20.594  0.00  0.00    +0.000 NA
ATOM      3  N   UNL     1       1.137   7.318  21.230  0.00  0.00    +0.000 NA
ATOM      4  C   UNL     1       1.956   6.682  20.432  0.00  0.00    +0.000 A 
ATOM      5  N   UNL     1       2.180   7.393  19.280  0.00  0.00    +0.000 N 
ATOM      6  N   UNL     1       2.921   7.051  18.184  0.00  0.00    +0.000 NA
ATOM      7  C   UNL     1       3.746   6.046  18.310  0.00  0.00    +0.000 C 
ATOM      8  C   UNL     1       4.107   5.369  19.630  0.00  0.00    +0.000 C 
ATOM      9  S   UNL     1       2.659   5.134  20.678  0.00  0.00    +0.000 S 
ENDROOT
BRANCH   7  10
ATOM     10  C   UNL     1       4.436   5.559  17.070  0.00  0.00    +0.000 A 
ATOM     11  C   UNL     1       4.582   4.197  16.778  0.00  0.00    +0.000 A 
ATOM     12  C   UNL     1       5.200   3.798  15.589  0.00  0.00    +0.000 A 
ATOM     13  C   UNL     1       5.688   4.752  14.697  0.00  0.00    +0.000 A 
ATOM     14  C   UNL     1       5.557   6.108  14.987  0.00  0.00    +0.000 A 
ATOM     15  C   UNL     1       4.934   6.511  16.168  0.00  0.00    +0.000 A 
ENDBRANCH   7  10
BRANCH   1  16
ATOM     16  C   UNL     1       1.264   9.573  18.362  0.00  0.00    +0.000 C 
ATOM     17  C   UNL     1       2.355  10.639  18.529  0.00  0.00    +0.000 C 
BRANCH  16  23
ATOM     18  C   UNL     1      -4.846  11.651  17.085  0.00  0.00    +0.000 A 
ATOM     19  C   UNL     1      -4.416  10.790  16.076  0.00  0.00    +0.000 A 
ATOM     20  C   UNL     1      -3.149  10.203  16.144  0.00  0.00    +0.000 A 
ATOM     21  C   UNL     1      -2.287  10.479  17.213  0.00  0.00    +0.000 A 
ATOM     22  C   UNL     1      -1.003   9.906  17.280  0.00  0.00    +0.000 A 
ATOM     23  C   UNL     1      -0.121  10.204  18.332  0.00  0.00    +0.000 A 
ATOM     24  C   UNL     1      -0.554  11.082  19.334  0.00  0.00    +0.000 A 
ATOM     25  C   UNL     1      -1.834  11.644  19.290  0.00  0.00    +0.000 A 
ATOM     26  C   UNL     1      -2.711  11.354  18.232  0.00  0.00    +0.000 A 
ATOM     27  C   UNL     1      -3.996  11.921  18.161  0.00  0.00    +0.000 A 
BRANCH  18  29
ATOM     28  C   UNL     1      -6.955  11.866  18.154  0.00  0.00    +0.000 C 
ATOM     29  O   UNL     1      -6.060  12.283  17.131  0.00  0.00    +0.000 OA
ENDBRANCH  18  29
ENDBRANCH  16  23
ENDBRANCH   1  16
TORSDOF 4
ENDMDL
MODEL 7
REMARK VINA RESULT:      -7.7      2.260      3.723
REMARK  Name = 
REMARK  6 active torsions:
REMARK  status: ('A' for Active; 'I' for Inactive)
REMARK    1  A    between atoms: C_1  and  O_2
REMARK    2  A    between atoms: O_2  and  C_3
REMARK    3  A    between atoms: C_8  and  C_9
REMARK    4  A    between atoms: C_9  and  C_10
REMARK    5  A    between atoms: C_9  and  C_11
REMARK    6  A    between atoms: C_17  and  C_18
REMARK                            x       y       z     vdW  Elec       q    Type
REMARK                         _______ _______ _______ _____ _____    ______ ____
ROOT
ATOM      1  C   UNL     1      -0.610  10.621  18.684  0.00  0.00    +0.000 A 
ATOM      2  N   UNL     1      -0.984  10.078  17.535  0.00  0.00    +0.000 NA
ATOM      3  N   UNL     1      -2.327  10.321  17.366  0.00  0.00    +0.000 NA
ATOM      4  C   UNL     1      -2.727  11.013  18.403  0.00  0.00    +0.000 A 
ATOM      5  N   UNL     1      -1.687  11.264  19.263  0.00  0.00    +0.000 N 
ATOM      6  N   UNL     1      -1.701  11.899  20.473  0.00  0.00    +0.000 NA
ATOM      7  C   UNL     1      -2.764  12.598  20.769  0.00  0.00    +0.000 C 
ATOM      8  C   UNL     1      -3.888  12.940  19.793  0.00  0.00    +0.000 C 
ATOM      9  S   UNL     1      -4.326  11.530  18.759  0.00  0.00    +0.000 S 
ENDROOT
BRANCH   7  10
ATOM     10  C   UNL     1      -2.857  13.157  22.158  0.00  0.00    +0.000 A 
ATOM     11  C   UNL     1      -1.955  14.111  22.646  0.00  0.00    +0.000 A 
ATOM     12  C   UNL     1      -2.110  14.625  23.937  0.00  0.00    +0.000 A 
ATOM     13  C   UNL     1      -3.151  14.180  24.749  0.00  0.00    +0.000 A 
ATOM     14  C   UNL     1      -4.045  13.224  24.275  0.00  0.00    +0.000 A 
ATOM     15  C   UNL     1      -3.899  12.712  22.986  0.00  0.00    +0.000 A 
ENDBRANCH   7  10
BRANCH   1  16
ATOM     16  C   UNL     1       0.756  10.580  19.303  0.00  0.00    +0.000 C 
ATOM     17  C   UNL     1       1.599  11.779  18.852  0.00  0.00    +0.000 C 
BRANCH  16  23
ATOM     18  C   UNL     1       3.362   4.539  19.287  0.00  0.00    +0.000 A 
ATOM     19  C   UNL     1       2.598   4.724  20.439  0.00  0.00    +0.000 A 
ATOM     20  C   UNL     1       1.926   5.932  20.651  0.00  0.00    +0.000 A 
ATOM     21  C   UNL     1       2.018   6.977  19.724  0.00  0.00    +0.000 A 
ATOM     22  C   UNL     1       1.358   8.202  19.938  0.00  0.00    +0.000 A 
ATOM     23  C   UNL     1       1.474   9.266  19.029  0.00  0.00    +0.000 A 
ATOM     24  C   UNL     1       2.256   9.079  17.882  0.00  0.00    +0.000 A 
ATOM     25  C   UNL     1       2.903   7.862  17.647  0.00  0.00    +0.000 A 
ATOM     26  C   UNL     1       2.796   6.801  18.562  0.00  0.00    +0.000 A 
ATOM     27  C   UNL     1       3.450   5.574  18.352  0.00  0.00    +0.000 A 
BRANCH  18  29
ATOM     28  C   UNL     1       4.237   2.453  20.008  0.00  0.00    +0.000 C 
ATOM     29  O   UNL     1       4.062   3.407  18.968  0.00  0.00    +0.000 OA
ENDBRANCH  18  29
ENDBRANCH  16  23
ENDBRANCH   1  16
TORSDOF 4
ENDMDL
MODEL 8
REMARK VINA RESULT:      -7.7      2.191      3.578
REMARK  Name = 
REMARK  6 active torsions:
REMARK  status: ('A' for Active; 'I' for Inactive)
REMARK    1  A    between atoms: C_1  and  O_2
REMARK    2  A    between atoms: O_2  and  C_3
REMARK    3  A    between atoms: C_8  and  C_9
REMARK    4  A    between atoms: C_9  and  C_10
REMARK    5  A    between atoms: C_9  and  C_11
REMARK    6  A    between atoms: C_17  and  C_18
REMARK                            x       y       z     vdW  Elec       q    Type
REMARK                         _______ _______ _______ _____ _____    ______ ____
ROOT
ATOM      1  C   UNL     1      -1.053  10.660  18.454  0.00  0.00    +0.000 A 
ATOM      2  N   UNL     1      -1.226  10.004  17.316  0.00  0.00    +0.000 NA
ATOM      3  N   UNL     1      -2.561  10.063  16.989  0.00  0.00    +0.000 NA
ATOM      4  C   UNL     1      -3.156  10.760  17.923  0.00  0.00    +0.000 A 
ATOM      5  N   UNL     1      -2.259  11.194  18.867  0.00  0.00    +0.000 N 
ATOM      6  N   UNL     1      -2.486  11.895  20.018  0.00  0.00    +0.000 NA
ATOM      7  C   UNL     1      -3.652  12.469  20.147  0.00  0.00    +0.000 C 
ATOM      8  C   UNL     1      -4.690  12.604  19.036  0.00  0.00    +0.000 C 
ATOM      9  S   UNL     1      -4.836  11.090  18.070  0.00  0.00    +0.000 S 
ENDROOT
BRANCH   7  10
ATOM     10  C   UNL     1      -3.969  13.095  21.474  0.00  0.00    +0.000 A 
ATOM     11  C   UNL     1      -4.854  14.172  21.602  0.00  0.00    +0.000 A 
ATOM     12  C   UNL     1      -5.143  14.694  22.867  0.00  0.00    +0.000 A 
ATOM     13  C   UNL     1      -4.540  14.156  24.003  0.00  0.00    +0.000 A 
ATOM     14  C   UNL     1      -3.650  13.092  23.881  0.00  0.00    +0.000 A 
ATOM     15  C   UNL     1      -3.364  12.563  22.622  0.00  0.00    +0.000 A 
ENDBRANCH   7  10
BRANCH   1  16
ATOM     16  C   UNL     1       0.228  10.831  19.215  0.00  0.00    +0.000 C 
ATOM     17  C   UNL     1       1.121  11.889  18.554  0.00  0.00    +0.000 C 
BRANCH  16  23
ATOM     18  C   UNL     1       3.890   5.384  18.770  0.00  0.00    +0.000 A 
ATOM     19  C   UNL     1       4.017   6.138  17.605  0.00  0.00    +0.000 A 
ATOM     20  C   UNL     1       3.344   7.357  17.478  0.00  0.00    +0.000 A 
ATOM     21  C   UNL     1       2.521   7.833  18.507  0.00  0.00    +0.000 A 
ATOM     22  C   UNL     1       1.826   9.050  18.381  0.00  0.00    +0.000 A 
ATOM     23  C   UNL     1       0.973   9.516  19.395  0.00  0.00    +0.000 A 
ATOM     24  C   UNL     1       0.838   8.745  20.557  0.00  0.00    +0.000 A 
ATOM     25  C   UNL     1       1.536   7.543  20.704  0.00  0.00    +0.000 A 
ATOM     26  C   UNL     1       2.380   7.071  19.685  0.00  0.00    +0.000 A 
ATOM     27  C   UNL     1       3.080   5.857  19.806  0.00  0.00    +0.000 A 
BRANCH  18  29
ATOM     28  C   UNL     1       3.801   3.019  18.582  0.00  0.00    +0.000 C 
ATOM     29  O   UNL     1       4.498   4.181  19.012  0.00  0.00    +0.000 OA
ENDBRANCH  18  29
ENDBRANCH  16  23
ENDBRANCH   1  16
TORSDOF 4
ENDMDL
MODEL 9
REMARK VINA RESULT:      -7.6      2.249      3.842
REMARK  Name = 
REMARK  6 active torsions:
REMARK  status: ('A' for Active; 'I' for Inactive)
REMARK    1  A    between atoms: C_1  and  O_2
REMARK    2  A    between atoms: O_2  and  C_3
REMARK    3  A    between atoms: C_8  and  C_9
REMARK    4  A    between atoms: C_9  and  C_10
REMARK    5  A    between atoms: C_9  and  C_11
REMARK    6  A    between atoms: C_17  and  C_18
REMARK                            x       y       z     vdW  Elec       q    Type
REMARK                         _______ _______ _______ _____ _____    ______ ____
ROOT
ATOM      1  C   UNL     1      -0.468  10.516  18.536  0.00  0.00    +0.000 A 
ATOM      2  N   UNL     1      -0.830   9.957  17.392  0.00  0.00    +0.000 NA
ATOM      3  N   UNL     1      -2.178  10.170  17.221  0.00  0.00    +0.000 NA
ATOM      4  C   UNL     1      -2.593  10.861  18.252  0.00  0.00    +0.000 A 
ATOM      5  N   UNL     1      -1.559  11.140  19.111  0.00  0.00    +0.000 N 
ATOM      6  N   UNL     1      -1.586  11.783  20.316  0.00  0.00    +0.000 NA
ATOM      7  C   UNL     1      -2.664  12.462  20.607  0.00  0.00    +0.000 C 
ATOM      8  C   UNL     1      -3.795  12.773  19.629  0.00  0.00    +0.000 C 
ATOM      9  S   UNL     1      -4.203  11.347  18.604  0.00  0.00    +0.000 S 
ENDROOT
BRANCH   7  10
ATOM     10  C   UNL     1      -2.770  13.029  21.992  0.00  0.00    +0.000 A 
ATOM     11  C   UNL     1      -1.780  13.851  22.544  0.00  0.00    +0.000 A 
ATOM     12  C   UNL     1      -1.946  14.382  23.827  0.00  0.00    +0.000 A 
ATOM     13  C   UNL     1      -3.088  14.084  24.568  0.00  0.00    +0.000 A 
ATOM     14  C   UNL     1      -4.072  13.258  24.029  0.00  0.00    +0.000 A 
ATOM     15  C   UNL     1      -3.914  12.731  22.747  0.00  0.00    +0.000 A 
ENDBRANCH   7  10
BRANCH   1  16
ATOM     16  C   UNL     1       0.898  10.509  19.156  0.00  0.00    +0.000 C 
ATOM     17  C   UNL     1       1.882  11.341  18.325  0.00  0.00    +0.000 C 
BRANCH  16  23
ATOM     18  C   UNL     1       3.660   4.543  18.908  0.00  0.00    +0.000 A 
ATOM     19  C   UNL     1       3.927   5.239  17.730  0.00  0.00    +0.000 A 
ATOM     20  C   UNL     1       3.457   6.545  17.563  0.00  0.00    +0.000 A 
ATOM     21  C   UNL     1       2.701   7.170  18.563  0.00  0.00    +0.000 A 
ATOM     22  C   UNL     1       2.209   8.478  18.396  0.00  0.00    +0.000 A 
ATOM     23  C   UNL     1       1.422   9.097  19.380  0.00  0.00    +0.000 A 
ATOM     24  C   UNL     1       1.144   8.385  20.555  0.00  0.00    +0.000 A 
ATOM     25  C   UNL     1       1.641   7.092  20.743  0.00  0.00    +0.000 A 
ATOM     26  C   UNL     1       2.419   6.469  19.753  0.00  0.00    +0.000 A 
ATOM     27  C   UNL     1       2.916   5.163  19.916  0.00  0.00    +0.000 A 
BRANCH  18  29
ATOM     28  C   UNL     1       3.265   2.215  18.662  0.00  0.00    +0.000 C 
ATOM     29  O   UNL     1       4.066   3.265  19.189  0.00  0.00    +0.000 OA
ENDBRANCH  18  29
ENDBRANCH  16  23
ENDBRANCH   1  16
TORSDOF 4
ENDMDL
