MODEL 1
REMARK VINA RESULT:      -8.6      0.000      0.000
REMARK  Name = 
REMARK  10 active torsions:
REMARK  status: ('A' for Active; 'I' for Inactive)
REMARK    1  A    between atoms: C_2  and  O_3
REMARK    2  A    between atoms: C_2  and  C_27
REMARK    3  A    between atoms: O_3  and  C_4
REMARK    4  A    between atoms: N_7  and  C_8
REMARK    5  A    between atoms: C_8  and  C_9
REMARK    6  A    between atoms: C_9  and  O_10
REMARK    7  A    between atoms: C_9  and  C_11
REMARK    8  A    between atoms: C_9  and  C_17
REMARK    9  A    between atoms: C_11  and  N_12
REMARK   10  A    between atoms: C_31  and  N_32
REMARK                            x       y       z     vdW  Elec       q    Type
REMARK                         _______ _______ _______ _____ _____    ______ ____
ROOT
ATOM      1  C   UNL     1       1.134   9.779  19.075  0.00  0.00    +0.000 C 
ATOM      2  C   UNL     1       2.155   9.580  17.963  0.00  0.00    +0.000 C 
ATOM      3  C   UNL     1       2.612   8.129  17.777  0.00  0.00    +0.000 C 
ATOM      4  N   UNL     1       2.950   7.364  19.016  0.00  0.00    +0.000 NA
ATOM      5  C   UNL     1       1.908   7.573  20.038  0.00  0.00    +0.000 C 
ATOM      6  C   UNL     1       1.555   9.025  20.323  0.00  0.00    +0.000 C 
ENDROOT
BRANCH   1   7
ATOM      7  O   UNL     1      -0.273   9.640  18.722  0.00  0.00    +0.000 OA
BRANCH   7   9
ATOM      8  O   UNL     1      -1.364  11.132  20.093  0.00  0.00    +0.000 OA
ATOM      9  C   UNL     1      -1.268  10.493  19.066  0.00  0.00    +0.000 C 
BRANCH   9  10
ATOM     10  C   UNL     1      -2.324  10.537  18.003  0.00  0.00    +0.000 A 
ATOM     11  C   UNL     1      -2.024   9.973  16.747  0.00  0.00    +0.000 A 
ATOM     12  C   UNL     1      -2.929  10.059  15.685  0.00  0.00    +0.000 A 
ATOM     13  C   UNL     1      -4.150  10.706  15.858  0.00  0.00    +0.000 A 
ATOM     14  C   UNL     1      -4.468  11.242  17.112  0.00  0.00    +0.000 A 
ATOM     15  C   UNL     1      -3.568  11.155  18.190  0.00  0.00    +0.000 A 
BRANCH  14  16
ATOM     16  N   UNL     1      -5.754  11.933  17.293  0.00  0.00    +0.000 N 
ATOM     17  O   UNL     1      -6.644  11.342  17.921  0.00  0.00    +0.000 OA
ATOM     18  O   UNL     1      -5.871  13.065  16.801  0.00  0.00    +0.000 OA
ENDBRANCH  14  16
ENDBRANCH   9  10
ENDBRANCH   7   9
ENDBRANCH   1   7
BRANCH   4  19
ATOM     19  C   UNL     1       2.955   5.911  18.611  0.00  0.00    +0.000 C 
BRANCH  19  20
ATOM     20  C   UNL     1       4.215   4.980  18.800  0.00  0.00    +0.000 C 
BRANCH  20  21
ATOM     21  C   UNL     1       5.115   4.952  17.541  0.00  0.00    +0.000 A 
ATOM     22  C   UNL     1       6.414   5.504  17.585  0.00  0.00    +0.000 A 
ATOM     23  C   UNL     1       7.248   5.491  16.461  0.00  0.00    +0.000 A 
ATOM     24  C   UNL     1       6.796   4.933  15.272  0.00  0.00    +0.000 A 
ATOM     25  F   UNL     1       7.587   4.933  14.194  0.00  0.00    +0.000 F 
ATOM     26  C   UNL     1       5.534   4.375  15.193  0.00  0.00    +0.000 A 
ATOM     27  C   UNL     1       4.717   4.377  16.320  0.00  0.00    +0.000 A 
ATOM     28  F   UNL     1       3.522   3.789  16.184  0.00  0.00    +0.000 F 
ENDBRANCH  20  21
BRANCH  20  29
ATOM     29  O   UNL     1       5.009   5.625  19.838  0.00  0.00    +0.000 OA
ATOM     30  H   UNL     1       5.462   4.900  20.315  0.00  0.00    +0.000 HD
ENDBRANCH  20  29
BRANCH  20  31
ATOM     31  C   UNL     1       3.992   3.533  19.307  0.00  0.00    +0.000 C 
BRANCH  31  32
ATOM     32  N   UNL     1       2.645   3.054  19.492  0.00  0.00    +0.000 N 
ATOM     33  C   UNL     1       1.790   3.378  20.506  0.00  0.00    +0.000 A 
ATOM     34  N   UNL     1       0.568   3.008  20.194  0.00  0.00    +0.000 NA
ATOM     35  C   UNL     1       0.716   2.491  18.942  0.00  0.00    +0.000 A 
ATOM     36  N   UNL     1       1.959   2.524  18.460  0.00  0.00    +0.000 NA
ENDBRANCH  31  32
ENDBRANCH  20  31
ENDBRANCH  19  20
ENDBRANCH   4  19
TORSDOF 10
ENDMDL
MODEL 2
REMARK VINA RESULT:      -8.5      2.222      4.183
REMARK  Name = 
REMARK  10 active torsions:
REMARK  status: ('A' for Active; 'I' for Inactive)
REMARK    1  A    between atoms: C_2  and  O_3
REMARK    2  A    between atoms: C_2  and  C_27
REMARK    3  A    between atoms: O_3  and  C_4
REMARK    4  A    between atoms: N_7  and  C_8
REMARK    5  A    between atoms: C_8  and  C_9
REMARK    6  A    between atoms: C_9  and  O_10
REMARK    7  A    between atoms: C_9  and  C_11
REMARK    8  A    between atoms: C_9  and  C_17
REMARK    9  A    between atoms: C_11  and  N_12
REMARK   10  A    between atoms: C_31  and  N_32
REMARK                            x       y       z     vdW  Elec       q    Type
REMARK                         _______ _______ _______ _____ _____    ______ ____
ROOT
ATOM      1  C   UNL     1       0.954  10.099  19.487  0.00  0.00    +0.000 C 
ATOM      2  C   UNL     1       1.789  10.092  18.214  0.00  0.00    +0.000 C 
ATOM      3  C   UNL     1       2.115   8.693  17.680  0.00  0.00    +0.000 C 
ATOM      4  N   UNL     1       2.574   7.680  18.679  0.00  0.00    +0.000 NA
ATOM      5  C   UNL     1       1.707   7.716  19.870  0.00  0.00    +0.000 C 
ATOM      6  C   UNL     1       1.497   9.092  20.484  0.00  0.00    +0.000 C 
ENDROOT
BRANCH   1   7
ATOM      7  O   UNL     1      -0.495  10.089  19.335  0.00  0.00    +0.000 OA
BRANCH   7   9
ATOM      8  O   UNL     1      -1.245  12.019  20.338  0.00  0.00    +0.000 OA
ATOM      9  C   UNL     1      -1.320  11.152  19.493  0.00  0.00    +0.000 C 
BRANCH   9  10
ATOM     10  C   UNL     1      -2.427  11.123  18.483  0.00  0.00    +0.000 A 
ATOM     11  C   UNL     1      -2.202  10.436  17.273  0.00  0.00    +0.000 A 
ATOM     12  C   UNL     1      -3.157  10.444  16.251  0.00  0.00    +0.000 A 
ATOM     13  C   UNL     1      -4.354  11.135  16.421  0.00  0.00    +0.000 A 
ATOM     14  C   UNL     1      -4.598  11.794  17.632  0.00  0.00    +0.000 A 
ATOM     15  C   UNL     1      -3.648  11.786  18.669  0.00  0.00    +0.000 A 
BRANCH  14  16
ATOM     16  N   UNL     1      -5.860  12.531  17.809  0.00  0.00    +0.000 N 
ATOM     17  O   UNL     1      -6.101  13.004  18.928  0.00  0.00    +0.000 OA
ATOM     18  O   UNL     1      -6.608  12.630  16.824  0.00  0.00    +0.000 OA
ENDBRANCH  14  16
ENDBRANCH   9  10
ENDBRANCH   7   9
ENDBRANCH   1   7
BRANCH   4  19
ATOM     19  C   UNL     1       2.422   6.340  18.003  0.00  0.00    +0.000 C 
BRANCH  19  20
ATOM     20  C   UNL     1       3.389   5.127  18.291  0.00  0.00    +0.000 C 
BRANCH  20  21
ATOM     21  C   UNL     1       2.858   4.213  19.423  0.00  0.00    +0.000 A 
ATOM     22  C   UNL     1       1.529   4.350  19.880  0.00  0.00    +0.000 A 
ATOM     23  C   UNL     1       1.024   3.536  20.901  0.00  0.00    +0.000 A 
ATOM     24  C   UNL     1       1.840   2.577  21.487  0.00  0.00    +0.000 A 
ATOM     25  F   UNL     1       1.362   1.809  22.472  0.00  0.00    +0.000 F 
ATOM     26  C   UNL     1       3.143   2.407  21.059  0.00  0.00    +0.000 A 
ATOM     27  C   UNL     1       3.633   3.209  20.032  0.00  0.00    +0.000 A 
ATOM     28  F   UNL     1       4.890   2.968  19.643  0.00  0.00    +0.000 F 
ENDBRANCH  20  21
BRANCH  20  29
ATOM     29  O   UNL     1       3.351   4.317  17.080  0.00  0.00    +0.000 OA
ATOM     30  H   UNL     1       4.155   4.555  16.575  0.00  0.00    +0.000 HD
ENDBRANCH  20  29
BRANCH  20  31
ATOM     31  C   UNL     1       4.891   5.422  18.529  0.00  0.00    +0.000 C 
BRANCH  31  32
ATOM     32  N   UNL     1       5.782   5.479  17.396  0.00  0.00    +0.000 N 
ATOM     33  C   UNL     1       6.595   6.517  17.042  0.00  0.00    +0.000 A 
ATOM     34  N   UNL     1       7.476   6.111  16.156  0.00  0.00    +0.000 NA
ATOM     35  C   UNL     1       7.189   4.785  16.026  0.00  0.00    +0.000 A 
ATOM     36  N   UNL     1       6.183   4.347  16.784  0.00  0.00    +0.000 NA
ENDBRANCH  31  32
ENDBRANCH  20  31
ENDBRANCH  19  20
ENDBRANCH   4  19
TORSDOF 10
ENDMDL
MODEL 3
REMARK VINA RESULT:      -8.4      0.832      1.200
REMARK  Name = 
REMARK  10 active torsions:
REMARK  status: ('A' for Active; 'I' for Inactive)
REMARK    1  A    between atoms: C_2  and  O_3
REMARK    2  A    between atoms: C_2  and  C_27
REMARK    3  A    between atoms: O_3  and  C_4
REMARK    4  A    between atoms: N_7  and  C_8
REMARK    5  A    between atoms: C_8  and  C_9
REMARK    6  A    between atoms: C_9  and  O_10
REMARK    7  A    between atoms: C_9  and  C_11
REMARK    8  A    between atoms: C_9  and  C_17
REMARK    9  A    between atoms: C_11  and  N_12
REMARK   10  A    between atoms: C_31  and  N_32
REMARK                            x       y       z     vdW  Elec       q    Type
REMARK                         _______ _______ _______ _____ _____    ______ ____
ROOT
ATOM      1  C   UNL     1       1.145   9.733  19.066  0.00  0.00    +0.000 C 
ATOM      2  C   UNL     1       2.114   9.585  17.901  0.00  0.00    +0.000 C 
ATOM      3  C   UNL     1       2.566   8.146  17.634  0.00  0.00    +0.000 C 
ATOM      4  N   UNL     1       2.963   7.332  18.824  0.00  0.00    +0.000 NA
ATOM      5  C   UNL     1       1.970   7.494  19.900  0.00  0.00    +0.000 C 
ATOM      6  C   UNL     1       1.625   8.930  20.261  0.00  0.00    +0.000 C 
ENDROOT
BRANCH   1   7
ATOM      7  O   UNL     1      -0.277   9.602  18.773  0.00  0.00    +0.000 OA
BRANCH   7   9
ATOM      8  O   UNL     1      -1.339  11.033  20.228  0.00  0.00    +0.000 OA
ATOM      9  C   UNL     1      -1.253  10.456  19.165  0.00  0.00    +0.000 C 
BRANCH   9  10
ATOM     10  C   UNL     1      -2.302  10.591  18.103  0.00  0.00    +0.000 A 
ATOM     11  C   UNL     1      -2.004  10.110  16.812  0.00  0.00    +0.000 A 
ATOM     12  C   UNL     1      -2.900  10.284  15.754  0.00  0.00    +0.000 A 
ATOM     13  C   UNL     1      -4.112  10.937  15.965  0.00  0.00    +0.000 A 
ATOM     14  C   UNL     1      -4.429  11.390  17.252  0.00  0.00    +0.000 A 
ATOM     15  C   UNL     1      -3.537  11.214  18.326  0.00  0.00    +0.000 A 
BRANCH  14  16
ATOM     16  N   UNL     1      -5.706  12.087  17.475  0.00  0.00    +0.000 N 
ATOM     17  O   UNL     1      -5.976  13.048  16.740  0.00  0.00    +0.000 OA
ATOM     18  O   UNL     1      -6.433  11.672  18.389  0.00  0.00    +0.000 OA
ENDBRANCH  14  16
ENDBRANCH   9  10
ENDBRANCH   7   9
ENDBRANCH   1   7
BRANCH   4  19
ATOM     19  C   UNL     1       2.955   5.897  18.359  0.00  0.00    +0.000 C 
BRANCH  19  20
ATOM     20  C   UNL     1       4.209   4.950  18.498  0.00  0.00    +0.000 C 
BRANCH  20  21
ATOM     21  C   UNL     1       5.081   4.945  17.218  0.00  0.00    +0.000 A 
ATOM     22  C   UNL     1       5.133   3.795  16.400  0.00  0.00    +0.000 A 
ATOM     23  C   UNL     1       5.912   3.764  15.238  0.00  0.00    +0.000 A 
ATOM     24  C   UNL     1       6.659   4.878  14.878  0.00  0.00    +0.000 A 
ATOM     25  F   UNL     1       7.415   4.844  13.774  0.00  0.00    +0.000 F 
ATOM     26  C   UNL     1       6.627   6.025  15.648  0.00  0.00    +0.000 A 
ATOM     27  C   UNL     1       5.837   6.054  16.793  0.00  0.00    +0.000 A 
ATOM     28  F   UNL     1       5.823   7.207  17.473  0.00  0.00    +0.000 F 
ENDBRANCH  20  21
BRANCH  20  29
ATOM     29  O   UNL     1       5.033   5.563  19.532  0.00  0.00    +0.000 OA
ATOM     30  H   UNL     1       4.836   6.521  19.496  0.00  0.00    +0.000 HD
ENDBRANCH  20  29
BRANCH  20  31
ATOM     31  C   UNL     1       3.984   3.494  18.975  0.00  0.00    +0.000 C 
BRANCH  31  32
ATOM     32  N   UNL     1       2.639   3.037  19.224  0.00  0.00    +0.000 N 
ATOM     33  C   UNL     1       1.860   3.329  20.307  0.00  0.00    +0.000 A 
ATOM     34  N   UNL     1       0.612   3.004  20.058  0.00  0.00    +0.000 NA
ATOM     35  C   UNL     1       0.665   2.547  18.775  0.00  0.00    +0.000 A 
ATOM     36  N   UNL     1       1.875   2.575  18.214  0.00  0.00    +0.000 NA
ENDBRANCH  31  32
ENDBRANCH  20  31
ENDBRANCH  19  20
ENDBRANCH   4  19
TORSDOF 10
ENDMDL
MODEL 4
REMARK VINA RESULT:      -8.4      0.922      1.283
REMARK  Name = 
REMARK  10 active torsions:
REMARK  status: ('A' for Active; 'I' for Inactive)
REMARK    1  A    between atoms: C_2  and  O_3
REMARK    2  A    between atoms: C_2  and  C_27
REMARK    3  A    between atoms: O_3  and  C_4
REMARK    4  A    between atoms: N_7  and  C_8
REMARK    5  A    between atoms: C_8  and  C_9
REMARK    6  A    between atoms: C_9  and  O_10
REMARK    7  A    between atoms: C_9  and  C_11
REMARK    8  A    between atoms: C_9  and  C_17
REMARK    9  A    between atoms: C_11  and  N_12
REMARK   10  A    between atoms: C_31  and  N_32
REMARK                            x       y       z     vdW  Elec       q    Type
REMARK                         _______ _______ _______ _____ _____    ______ ____
ROOT
ATOM      1  C   UNL     1       1.095   9.887  19.086  0.00  0.00    +0.000 C 
ATOM      2  C   UNL     1       2.148   9.735  17.996  0.00  0.00    +0.000 C 
ATOM      3  C   UNL     1       2.610   8.293  17.760  0.00  0.00    +0.000 C 
ATOM      4  N   UNL     1       2.912   7.475  18.975  0.00  0.00    +0.000 NA
ATOM      5  C   UNL     1       1.842   7.641  19.974  0.00  0.00    +0.000 C 
ATOM      6  C   UNL     1       1.480   9.079  20.312  0.00  0.00    +0.000 C 
ENDROOT
BRANCH   1   7
ATOM      7  O   UNL     1      -0.301   9.765  18.688  0.00  0.00    +0.000 OA
BRANCH   7   9
ATOM      8  O   UNL     1      -1.419  11.206  20.090  0.00  0.00    +0.000 OA
ATOM      9  C   UNL     1      -1.307  10.599  19.046  0.00  0.00    +0.000 C 
BRANCH   9  10
ATOM     10  C   UNL     1      -2.353  10.665  17.974  0.00  0.00    +0.000 A 
ATOM     11  C   UNL     1      -2.017  10.191  16.691  0.00  0.00    +0.000 A 
ATOM     12  C   UNL     1      -2.913  10.305  15.623  0.00  0.00    +0.000 A 
ATOM     13  C   UNL     1      -4.161  10.891  15.819  0.00  0.00    +0.000 A 
ATOM     14  C   UNL     1      -4.515  11.336  17.099  0.00  0.00    +0.000 A 
ATOM     15  C   UNL     1      -3.623  11.220  18.181  0.00  0.00    +0.000 A 
BRANCH  14  16
ATOM     16  N   UNL     1      -5.830  11.962  17.305  0.00  0.00    +0.000 N 
ATOM     17  O   UNL     1      -6.667  11.342  17.975  0.00  0.00    +0.000 OA
ATOM     18  O   UNL     1      -6.022  13.074  16.790  0.00  0.00    +0.000 OA
ENDBRANCH  14  16
ENDBRANCH   9  10
ENDBRANCH   7   9
ENDBRANCH   1   7
BRANCH   4  19
ATOM     19  C   UNL     1       2.929   6.041  18.508  0.00  0.00    +0.000 C 
BRANCH  19  20
ATOM     20  C   UNL     1       4.168   5.089  18.729  0.00  0.00    +0.000 C 
BRANCH  20  21
ATOM     21  C   UNL     1       5.124   5.082  17.510  0.00  0.00    +0.000 A 
ATOM     22  C   UNL     1       4.647   5.447  16.233  0.00  0.00    +0.000 A 
ATOM     23  C   UNL     1       5.491   5.450  15.115  0.00  0.00    +0.000 A 
ATOM     24  C   UNL     1       6.822   5.081  15.254  0.00  0.00    +0.000 A 
ATOM     25  F   UNL     1       7.625   5.070  14.184  0.00  0.00    +0.000 F 
ATOM     26  C   UNL     1       7.328   4.727  16.491  0.00  0.00    +0.000 A 
ATOM     27  C   UNL     1       6.487   4.742  17.600  0.00  0.00    +0.000 A 
ATOM     28  F   UNL     1       7.049   4.423  18.772  0.00  0.00    +0.000 F 
ENDBRANCH  20  21
BRANCH  20  29
ATOM     29  O   UNL     1       4.923   5.697  19.817  0.00  0.00    +0.000 OA
ATOM     30  H   UNL     1       5.487   4.984  20.180  0.00  0.00    +0.000 HD
ENDBRANCH  20  29
BRANCH  20  31
ATOM     31  C   UNL     1       3.906   3.633  19.187  0.00  0.00    +0.000 C 
BRANCH  31  32
ATOM     32  N   UNL     1       2.671   3.322  19.863  0.00  0.00    +0.000 N 
ATOM     33  C   UNL     1       1.566   2.729  19.323  0.00  0.00    +0.000 A 
ATOM     34  N   UNL     1       0.763   2.327  20.283  0.00  0.00    +0.000 NA
ATOM     35  C   UNL     1       1.447   2.661  21.413  0.00  0.00    +0.000 A 
ATOM     36  N   UNL     1       2.629   3.243  21.208  0.00  0.00    +0.000 NA
ENDBRANCH  31  32
ENDBRANCH  20  31
ENDBRANCH  19  20
ENDBRANCH   4  19
TORSDOF 10
ENDMDL
MODEL 5
REMARK VINA RESULT:      -8.3      2.648      4.382
REMARK  Name = 
REMARK  10 active torsions:
REMARK  status: ('A' for Active; 'I' for Inactive)
REMARK    1  A    between atoms: C_2  and  O_3
REMARK    2  A    between atoms: C_2  and  C_27
REMARK    3  A    between atoms: O_3  and  C_4
REMARK    4  A    between atoms: N_7  and  C_8
REMARK    5  A    between atoms: C_8  and  C_9
REMARK    6  A    between atoms: C_9  and  O_10
REMARK    7  A    between atoms: C_9  and  C_11
REMARK    8  A    between atoms: C_9  and  C_17
REMARK    9  A    between atoms: C_11  and  N_12
REMARK   10  A    between atoms: C_31  and  N_32
REMARK                            x       y       z     vdW  Elec       q    Type
REMARK                         _______ _______ _______ _____ _____    ______ ____
ROOT
ATOM      1  C   UNL     1       0.888  10.570  19.440  0.00  0.00    +0.000 C 
ATOM      2  C   UNL     1       1.915  10.593  18.315  0.00  0.00    +0.000 C 
ATOM      3  C   UNL     1       2.284   9.210  17.768  0.00  0.00    +0.000 C 
ATOM      4  N   UNL     1       2.552   8.137  18.774  0.00  0.00    +0.000 NA
ATOM      5  C   UNL     1       1.508   8.148  19.814  0.00  0.00    +0.000 C 
ATOM      6  C   UNL     1       1.240   9.500  20.457  0.00  0.00    +0.000 C 
ENDROOT
BRANCH   1   7
ATOM      7  O   UNL     1      -0.519  10.616  19.061  0.00  0.00    +0.000 OA
BRANCH   7   9
ATOM      8  O   UNL     1      -1.171  12.704  19.773  0.00  0.00    +0.000 OA
ATOM      9  C   UNL     1      -1.316  11.711  19.092  0.00  0.00    +0.000 C 
BRANCH   9  10
ATOM     10  C   UNL     1      -2.490  11.541  18.176  0.00  0.00    +0.000 A 
ATOM     11  C   UNL     1      -3.768  11.871  18.670  0.00  0.00    +0.000 A 
ATOM     12  C   UNL     1      -4.916  11.653  17.901  0.00  0.00    +0.000 A 
ATOM     13  C   UNL     1      -4.808  11.105  16.625  0.00  0.00    +0.000 A 
ATOM     14  C   UNL     1      -3.539  10.803  16.116  0.00  0.00    +0.000 A 
ATOM     15  C   UNL     1      -2.377  11.025  16.878  0.00  0.00    +0.000 A 
BRANCH  14  16
ATOM     16  N   UNL     1      -3.424  10.217  14.771  0.00  0.00    +0.000 N 
ATOM     17  O   UNL     1      -4.471   9.927  14.176  0.00  0.00    +0.000 OA
ATOM     18  O   UNL     1      -2.283  10.045  14.316  0.00  0.00    +0.000 OA
ENDBRANCH  14  16
ENDBRANCH   9  10
ENDBRANCH   7   9
ENDBRANCH   1   7
BRANCH   4  19
ATOM     19  C   UNL     1       2.475   6.836  18.015  0.00  0.00    +0.000 C 
BRANCH  19  20
ATOM     20  C   UNL     1       3.335   5.572  18.403  0.00  0.00    +0.000 C 
BRANCH  20  21
ATOM     21  C   UNL     1       2.600   4.651  19.408  0.00  0.00    +0.000 A 
ATOM     22  C   UNL     1       3.068   4.533  20.735  0.00  0.00    +0.000 A 
ATOM     23  C   UNL     1       2.422   3.709  21.663  0.00  0.00    +0.000 A 
ATOM     24  C   UNL     1       1.302   2.983  21.279  0.00  0.00    +0.000 A 
ATOM     25  F   UNL     1       0.692   2.184  22.162  0.00  0.00    +0.000 F 
ATOM     26  C   UNL     1       0.808   3.080  19.992  0.00  0.00    +0.000 A 
ATOM     27  C   UNL     1       1.447   3.914  19.079  0.00  0.00    +0.000 A 
ATOM     28  F   UNL     1       0.897   3.989  17.862  0.00  0.00    +0.000 F 
ENDBRANCH  20  21
BRANCH  20  29
ATOM     29  O   UNL     1       3.449   4.800  17.172  0.00  0.00    +0.000 OA
ATOM     30  H   UNL     1       4.294   4.311  17.242  0.00  0.00    +0.000 HD
ENDBRANCH  20  29
BRANCH  20  31
ATOM     31  C   UNL     1       4.794   5.790  18.876  0.00  0.00    +0.000 C 
BRANCH  31  32
ATOM     32  N   UNL     1       5.870   5.625  17.930  0.00  0.00    +0.000 N 
ATOM     33  C   UNL     1       6.844   4.668  17.952  0.00  0.00    +0.000 A 
ATOM     34  N   UNL     1       7.459   4.631  16.792  0.00  0.00    +0.000 NA
ATOM     35  C   UNL     1       6.791   5.568  16.062  0.00  0.00    +0.000 A 
ATOM     36  N   UNL     1       5.795   6.180  16.704  0.00  0.00    +0.000 NA
ENDBRANCH  31  32
ENDBRANCH  20  31
ENDBRANCH  19  20
ENDBRANCH   4  19
TORSDOF 10
ENDMDL
MODEL 6
REMARK VINA RESULT:      -8.3      4.033     10.277
REMARK  Name = 
REMARK  10 active torsions:
REMARK  status: ('A' for Active; 'I' for Inactive)
REMARK    1  A    between atoms: C_2  and  O_3
REMARK    2  A    between atoms: C_2  and  C_27
REMARK    3  A    between atoms: O_3  and  C_4
REMARK    4  A    between atoms: N_7  and  C_8
REMARK    5  A    between atoms: C_8  and  C_9
REMARK    6  A    between atoms: C_9  and  O_10
REMARK    7  A    between atoms: C_9  and  C_11
REMARK    8  A    between atoms: C_9  and  C_17
REMARK    9  A    between atoms: C_11  and  N_12
REMARK   10  A    between atoms: C_31  and  N_32
REMARK                            x       y       z     vdW  Elec       q    Type
REMARK                         _______ _______ _______ _____ _____    ______ ____
ROOT
ATOM      1  C   UNL     1       2.622   7.270  18.608  0.00  0.00    +0.000 C 
ATOM      2  C   UNL     1       2.230   7.573  20.048  0.00  0.00    +0.000 C 
ATOM      3  C   UNL     1       0.999   8.474  20.191  0.00  0.00    +0.000 C 
ATOM      4  N   UNL     1       0.939   9.679  19.308  0.00  0.00    +0.000 NA
ATOM      5  C   UNL     1       1.296   9.311  17.927  0.00  0.00    +0.000 C 
ATOM      6  C   UNL     1       2.596   8.536  17.772  0.00  0.00    +0.000 C 
ENDROOT
BRANCH   1   7
ATOM      7  O   UNL     1       2.006   6.109  17.978  0.00  0.00    +0.000 OA
BRANCH   7   9
ATOM      8  O   UNL     1       1.790   3.831  18.223  0.00  0.00    +0.000 OA
ATOM      9  C   UNL     1       2.453   4.832  18.052  0.00  0.00    +0.000 C 
BRANCH   9  10
ATOM     10  C   UNL     1       3.946   4.783  17.935  0.00  0.00    +0.000 A 
ATOM     11  C   UNL     1       4.708   4.909  19.114  0.00  0.00    +0.000 A 
ATOM     12  C   UNL     1       6.104   4.962  19.068  0.00  0.00    +0.000 A 
ATOM     13  C   UNL     1       6.766   4.885  17.844  0.00  0.00    +0.000 A 
ATOM     14  C   UNL     1       6.018   4.727  16.671  0.00  0.00    +0.000 A 
ATOM     15  C   UNL     1       4.612   4.667  16.707  0.00  0.00    +0.000 A 
BRANCH  14  16
ATOM     16  N   UNL     1       6.715   4.654  15.378  0.00  0.00    +0.000 N 
ATOM     17  O   UNL     1       7.608   5.483  15.155  0.00  0.00    +0.000 OA
ATOM     18  O   UNL     1       6.363   3.766  14.586  0.00  0.00    +0.000 OA
ENDBRANCH  14  16
ENDBRANCH   9  10
ENDBRANCH   7   9
ENDBRANCH   1   7
BRANCH   4  19
ATOM     19  C   UNL     1      -0.498  10.136  19.338  0.00  0.00    +0.000 C 
BRANCH  19  20
ATOM     20  C   UNL     1      -0.906  11.649  19.529  0.00  0.00    +0.000 C 
BRANCH  20  21
ATOM     21  C   UNL     1      -1.625  11.894  20.878  0.00  0.00    +0.000 A 
ATOM     22  C   UNL     1      -2.885  12.531  20.905  0.00  0.00    +0.000 A 
ATOM     23  C   UNL     1      -3.556  12.764  22.111  0.00  0.00    +0.000 A 
ATOM     24  C   UNL     1      -2.978  12.370  23.311  0.00  0.00    +0.000 A 
ATOM     25  F   UNL     1      -3.613  12.605  24.465  0.00  0.00    +0.000 F 
ATOM     26  C   UNL     1      -1.751  11.734  23.324  0.00  0.00    +0.000 A 
ATOM     27  C   UNL     1      -1.097  11.492  22.119  0.00  0.00    +0.000 A 
ATOM     28  F   UNL     1       0.070  10.841  22.201  0.00  0.00    +0.000 F 
ENDBRANCH  20  21
BRANCH  20  29
ATOM     29  O   UNL     1       0.356  12.372  19.618  0.00  0.00    +0.000 OA
ATOM     30  H   UNL     1       0.915  11.857  20.234  0.00  0.00    +0.000 HD
ENDBRANCH  20  29
BRANCH  20  31
ATOM     31  C   UNL     1      -1.690  12.350  18.392  0.00  0.00    +0.000 C 
BRANCH  31  32
ATOM     32  N   UNL     1      -2.567  11.566  17.558  0.00  0.00    +0.000 N 
ATOM     33  C   UNL     1      -3.931  11.518  17.615  0.00  0.00    +0.000 A 
ATOM     34  N   UNL     1      -4.402  10.952  16.527  0.00  0.00    +0.000 NA
ATOM     35  C   UNL     1      -3.277  10.702  15.800  0.00  0.00    +0.000 A 
ATOM     36  N   UNL     1      -2.136  11.085  16.374  0.00  0.00    +0.000 NA
ENDBRANCH  31  32
ENDBRANCH  20  31
ENDBRANCH  19  20
ENDBRANCH   4  19
TORSDOF 10
ENDMDL
MODEL 7
REMARK VINA RESULT:      -8.3      1.638      2.156
REMARK  Name = 
REMARK  10 active torsions:
REMARK  status: ('A' for Active; 'I' for Inactive)
REMARK    1  A    between atoms: C_2  and  O_3
REMARK    2  A    between atoms: C_2  and  C_27
REMARK    3  A    between atoms: O_3  and  C_4
REMARK    4  A    between atoms: N_7  and  C_8
REMARK    5  A    between atoms: C_8  and  C_9
REMARK    6  A    between atoms: C_9  and  O_10
REMARK    7  A    between atoms: C_9  and  C_11
REMARK    8  A    between atoms: C_9  and  C_17
REMARK    9  A    between atoms: C_11  and  N_12
REMARK   10  A    between atoms: C_31  and  N_32
REMARK                            x       y       z     vdW  Elec       q    Type
REMARK                         _______ _______ _______ _____ _____    ______ ____
ROOT
ATOM      1  C   UNL     1       1.034  10.019  19.187  0.00  0.00    +0.000 C 
ATOM      2  C   UNL     1       2.005   9.927  18.018  0.00  0.00    +0.000 C 
ATOM      3  C   UNL     1       2.382   8.496  17.621  0.00  0.00    +0.000 C 
ATOM      4  N   UNL     1       2.723   7.556  18.732  0.00  0.00    +0.000 NA
ATOM      5  C   UNL     1       1.730   7.671  19.814  0.00  0.00    +0.000 C 
ATOM      6  C   UNL     1       1.459   9.084  20.305  0.00  0.00    +0.000 C 
ENDROOT
BRANCH   1   7
ATOM      7  O   UNL     1      -0.390   9.993  18.877  0.00  0.00    +0.000 OA
BRANCH   7   9
ATOM      8  O   UNL     1      -1.339  11.486  20.348  0.00  0.00    +0.000 OA
ATOM      9  C   UNL     1      -1.311  10.898  19.287  0.00  0.00    +0.000 C 
BRANCH   9  10
ATOM     10  C   UNL     1      -2.380  11.078  18.252  0.00  0.00    +0.000 A 
ATOM     11  C   UNL     1      -3.583  11.699  18.643  0.00  0.00    +0.000 A 
ATOM     12  C   UNL     1      -4.655  11.818  17.753  0.00  0.00    +0.000 A 
ATOM     13  C   UNL     1      -4.543  11.322  16.456  0.00  0.00    +0.000 A 
ATOM     14  C   UNL     1      -3.340  10.732  16.050  0.00  0.00    +0.000 A 
ATOM     15  C   UNL     1      -2.253  10.613  16.936  0.00  0.00    +0.000 A 
BRANCH  14  16
ATOM     16  N   UNL     1      -3.225  10.201  14.683  0.00  0.00    +0.000 N 
ATOM     17  O   UNL     1      -4.075  10.551  13.854  0.00  0.00    +0.000 OA
ATOM     18  O   UNL     1      -2.282   9.431  14.445  0.00  0.00    +0.000 OA
ENDBRANCH  14  16
ENDBRANCH   9  10
ENDBRANCH   7   9
ENDBRANCH   1   7
BRANCH   4  19
ATOM     19  C   UNL     1       2.642   6.172  18.136  0.00  0.00    +0.000 C 
BRANCH  19  20
ATOM     20  C   UNL     1       3.775   5.092  18.335  0.00  0.00    +0.000 C 
BRANCH  20  21
ATOM     21  C   UNL     1       4.760   5.052  17.140  0.00  0.00    +0.000 A 
ATOM     22  C   UNL     1       4.877   3.882  16.358  0.00  0.00    +0.000 A 
ATOM     23  C   UNL     1       5.758   3.819  15.272  0.00  0.00    +0.000 A 
ATOM     24  C   UNL     1       6.542   4.921  14.955  0.00  0.00    +0.000 A 
ATOM     25  F   UNL     1       7.395   4.856  13.926  0.00  0.00    +0.000 F 
ATOM     26  C   UNL     1       6.448   6.086  15.691  0.00  0.00    +0.000 A 
ATOM     27  C   UNL     1       5.558   6.146  16.759  0.00  0.00    +0.000 A 
ATOM     28  F   UNL     1       5.491   7.315  17.407  0.00  0.00    +0.000 F 
ENDBRANCH  20  21
BRANCH  20  29
ATOM     29  O   UNL     1       4.555   5.567  19.471  0.00  0.00    +0.000 OA
ATOM     30  H   UNL     1       4.589   4.819  20.101  0.00  0.00    +0.000 HD
ENDBRANCH  20  29
BRANCH  20  31
ATOM     31  C   UNL     1       3.359   3.648  18.710  0.00  0.00    +0.000 C 
BRANCH  31  32
ATOM     32  N   UNL     1       2.526   3.436  19.867  0.00  0.00    +0.000 N 
ATOM     33  C   UNL     1       1.266   2.910  19.887  0.00  0.00    +0.000 A 
ATOM     34  N   UNL     1       0.939   2.583  21.117  0.00  0.00    +0.000 NA
ATOM     35  C   UNL     1       2.063   2.893  21.824  0.00  0.00    +0.000 A 
ATOM     36  N   UNL     1       3.067   3.389  21.101  0.00  0.00    +0.000 NA
ENDBRANCH  31  32
ENDBRANCH  20  31
ENDBRANCH  19  20
ENDBRANCH   4  19
TORSDOF 10
ENDMDL
MODEL 8
REMARK VINA RESULT:      -8.1      4.104     10.375
REMARK  Name = 
REMARK  10 active torsions:
REMARK  status: ('A' for Active; 'I' for Inactive)
REMARK    1  A    between atoms: C_2  and  O_3
REMARK    2  A    between atoms: C_2  and  C_27
REMARK    3  A    between atoms: O_3  and  C_4
REMARK    4  A    between atoms: N_7  and  C_8
REMARK    5  A    between atoms: C_8  and  C_9
REMARK    6  A    between atoms: C_9  and  O_10
REMARK    7  A    between atoms: C_9  and  C_11
REMARK    8  A    between atoms: C_9  and  C_17
REMARK    9  A    between atoms: C_11  and  N_12
REMARK   10  A    between atoms: C_31  and  N_32
REMARK                            x       y       z     vdW  Elec       q    Type
REMARK                         _______ _______ _______ _____ _____    ______ ____
ROOT
ATOM      1  C   UNL     1       2.614   7.421  18.837  0.00  0.00    +0.000 C 
ATOM      2  C   UNL     1       1.997   7.805  20.175  0.00  0.00    +0.000 C 
ATOM      3  C   UNL     1       0.703   8.619  20.064  0.00  0.00    +0.000 C 
ATOM      4  N   UNL     1       0.698   9.744  19.079  0.00  0.00    +0.000 NA
ATOM      5  C   UNL     1       1.276   9.298  17.799  0.00  0.00    +0.000 C 
ATOM      6  C   UNL     1       2.630   8.613  17.898  0.00  0.00    +0.000 C 
ENDROOT
BRANCH   1   7
ATOM      7  O   UNL     1       2.171   6.172  18.231  0.00  0.00    +0.000 OA
BRANCH   7   9
ATOM      8  O   UNL     1       2.117   3.958  18.855  0.00  0.00    +0.000 OA
ATOM      9  C   UNL     1       2.699   4.945  18.458  0.00  0.00    +0.000 C 
BRANCH   9  10
ATOM     10  C   UNL     1       4.175   4.943  18.193  0.00  0.00    +0.000 A 
ATOM     11  C   UNL     1       5.041   5.220  19.269  0.00  0.00    +0.000 A 
ATOM     12  C   UNL     1       6.422   5.323  19.074  0.00  0.00    +0.000 A 
ATOM     13  C   UNL     1       6.963   5.146  17.802  0.00  0.00    +0.000 A 
ATOM     14  C   UNL     1       6.111   4.839  16.734  0.00  0.00    +0.000 A 
ATOM     15  C   UNL     1       4.721   4.727  16.920  0.00  0.00    +0.000 A 
BRANCH  14  16
ATOM     16  N   UNL     1       6.681   4.660  15.389  0.00  0.00    +0.000 N 
ATOM     17  O   UNL     1       7.615   5.401  15.054  0.00  0.00    +0.000 OA
ATOM     18  O   UNL     1       6.187   3.778  14.671  0.00  0.00    +0.000 OA
ENDBRANCH  14  16
ENDBRANCH   9  10
ENDBRANCH   7   9
ENDBRANCH   1   7
BRANCH   4  19
ATOM     19  C   UNL     1      -0.754  10.093  18.866  0.00  0.00    +0.000 C 
BRANCH  19  20
ATOM     20  C   UNL     1      -1.293  11.575  18.940  0.00  0.00    +0.000 C 
BRANCH  20  21
ATOM     21  C   UNL     1      -2.766  11.684  18.477  0.00  0.00    +0.000 A 
ATOM     22  C   UNL     1      -3.760  12.135  19.374  0.00  0.00    +0.000 A 
ATOM     23  C   UNL     1      -5.099  12.244  18.980  0.00  0.00    +0.000 A 
ATOM     24  C   UNL     1      -5.469  11.897  17.687  0.00  0.00    +0.000 A 
ATOM     25  F   UNL     1      -6.751  11.988  17.315  0.00  0.00    +0.000 F 
ATOM     26  C   UNL     1      -4.523  11.462  16.778  0.00  0.00    +0.000 A 
ATOM     27  C   UNL     1      -3.191  11.372  17.172  0.00  0.00    +0.000 A 
ATOM     28  F   UNL     1      -2.323  10.977  16.233  0.00  0.00    +0.000 F 
ENDBRANCH  20  21
BRANCH  20  29
ATOM     29  O   UNL     1      -1.300  11.904  20.359  0.00  0.00    +0.000 OA
ATOM     30  H   UNL     1      -0.966  12.822  20.421  0.00  0.00    +0.000 HD
ENDBRANCH  20  29
BRANCH  20  31
ATOM     31  C   UNL     1      -0.458  12.696  18.273  0.00  0.00    +0.000 C 
BRANCH  31  32
ATOM     32  N   UNL     1       0.690  13.225  18.968  0.00  0.00    +0.000 N 
ATOM     33  C   UNL     1       2.004  13.026  18.654  0.00  0.00    +0.000 A 
ATOM     34  N   UNL     1       2.752  13.891  19.300  0.00  0.00    +0.000 NA
ATOM     35  C   UNL     1       1.837  14.640  19.978  0.00  0.00    +0.000 A 
ATOM     36  N   UNL     1       0.564  14.290  19.784  0.00  0.00    +0.000 NA
ENDBRANCH  31  32
ENDBRANCH  20  31
ENDBRANCH  19  20
ENDBRANCH   4  19
TORSDOF 10
ENDMDL
MODEL 9
REMARK VINA RESULT:      -8.1      3.412      4.549
REMARK  Name = 
REMARK  10 active torsions:
REMARK  status: ('A' for Active; 'I' for Inactive)
REMARK    1  A    between atoms: C_2  and  O_3
REMARK    2  A    between atoms: C_2  and  C_27
REMARK    3  A    between atoms: O_3  and  C_4
REMARK    4  A    between atoms: N_7  and  C_8
REMARK    5  A    between atoms: C_8  and  C_9
REMARK    6  A    between atoms: C_9  and  O_10
REMARK    7  A    between atoms: C_9  and  C_11
REMARK    8  A    between atoms: C_9  and  C_17
REMARK    9  A    between atoms: C_11  and  N_12
REMARK   10  A    between atoms: C_31  and  N_32
REMARK                            x       y       z     vdW  Elec       q    Type
REMARK                         _______ _______ _______ _____ _____    ______ ____
ROOT
ATOM      1  C   UNL     1       0.452  10.290  19.606  0.00  0.00    +0.000 C 
ATOM      2  C   UNL     1       0.722   9.076  20.485  0.00  0.00    +0.000 C 
ATOM      3  C   UNL     1       1.872   8.187  19.999  0.00  0.00    +0.000 C 
ATOM      4  N   UNL     1       1.904   7.865  18.539  0.00  0.00    +0.000 NA
ATOM      5  C   UNL     1       1.669   9.085  17.747  0.00  0.00    +0.000 C 
ATOM      6  C   UNL     1       0.443   9.894  18.141  0.00  0.00    +0.000 C 
ENDROOT
BRANCH   1   7
ATOM      7  O   UNL     1       1.193  11.509  19.906  0.00  0.00    +0.000 OA
BRANCH   7   9
ATOM      8  O   UNL     1       0.399  12.405  21.870  0.00  0.00    +0.000 OA
ATOM      9  C   UNL     1       0.785  12.508  20.725  0.00  0.00    +0.000 C 
BRANCH   9  10
ATOM     10  C   UNL     1       0.822  13.828  20.016  0.00  0.00    +0.000 A 
ATOM     11  C   UNL     1      -0.365  14.587  19.967  0.00  0.00    +0.000 A 
ATOM     12  C   UNL     1      -0.425  15.784  19.247  0.00  0.00    +0.000 A 
ATOM     13  C   UNL     1       0.699  16.246  18.566  0.00  0.00    +0.000 A 
ATOM     14  C   UNL     1       1.890  15.514  18.635  0.00  0.00    +0.000 A 
ATOM     15  C   UNL     1       1.964  14.312  19.363  0.00  0.00    +0.000 A 
BRANCH  14  16
ATOM     16  N   UNL     1       3.075  15.997  17.910  0.00  0.00    +0.000 N 
ATOM     17  O   UNL     1       3.962  15.176  17.638  0.00  0.00    +0.000 OA
ATOM     18  O   UNL     1       3.116  17.202  17.618  0.00  0.00    +0.000 OA
ENDBRANCH  14  16
ENDBRANCH   9  10
ENDBRANCH   7   9
ENDBRANCH   1   7
BRANCH   4  19
ATOM     19  C   UNL     1       3.298   7.361  18.262  0.00  0.00    +0.000 C 
BRANCH  19  20
ATOM     20  C   UNL     1       3.697   5.841  18.404  0.00  0.00    +0.000 C 
BRANCH  20  21
ATOM     21  C   UNL     1       4.717   5.401  17.324  0.00  0.00    +0.000 A 
ATOM     22  C   UNL     1       4.462   4.263  16.529  0.00  0.00    +0.000 A 
ATOM     23  C   UNL     1       5.366   3.845  15.546  0.00  0.00    +0.000 A 
ATOM     24  C   UNL     1       6.544   4.553  15.345  0.00  0.00    +0.000 A 
ATOM     25  F   UNL     1       7.415   4.146  14.415  0.00  0.00    +0.000 F 
ATOM     26  C   UNL     1       6.824   5.679  16.097  0.00  0.00    +0.000 A 
ATOM     27  C   UNL     1       5.912   6.097  17.062  0.00  0.00    +0.000 A 
ATOM     28  F   UNL     1       6.228   7.214  17.728  0.00  0.00    +0.000 F 
ENDBRANCH  20  21
BRANCH  20  29
ATOM     29  O   UNL     1       4.406   5.752  19.674  0.00  0.00    +0.000 OA
ATOM     30  H   UNL     1       4.912   6.586  19.755  0.00  0.00    +0.000 HD
ENDBRANCH  20  29
BRANCH  20  31
ATOM     31  C   UNL     1       2.566   4.788  18.503  0.00  0.00    +0.000 C 
BRANCH  31  32
ATOM     32  N   UNL     1       2.320   4.138  19.767  0.00  0.00    +0.000 N 
ATOM     33  C   UNL     1       1.125   4.030  20.417  0.00  0.00    +0.000 A 
ATOM     34  N   UNL     1       1.214   3.125  21.366  0.00  0.00    +0.000 NA
ATOM     35  C   UNL     1       2.491   2.667  21.232  0.00  0.00    +0.000 A 
ATOM     36  N   UNL     1       3.195   3.234  20.252  0.00  0.00    +0.000 NA
ENDBRANCH  31  32
ENDBRANCH  20  31
ENDBRANCH  19  20
ENDBRANCH   4  19
TORSDOF 10
ENDMDL
