MODEL 1
REMARK VINA RESULT:      -6.8      0.000      0.000
REMARK  Name = 
REMARK  3 active torsions:
REMARK  status: ('A' for Active; 'I' for Inactive)
REMARK    1  A    between atoms: C_1  and  O_2
REMARK    2  A    between atoms: O_2  and  C_3
REMARK    3  A    between atoms: C_6  and  O_7
REMARK                            x       y       z     vdW  Elec       q    Type
REMARK                         _______ _______ _______ _____ _____    ______ ____
ROOT
ATOM      1  C   UNL     1       9.759  15.037  19.008  0.00  0.00    +0.000 A 
ATOM      2  C   UNL     1       9.085  14.420  20.086  0.00  0.00    +0.000 A 
ATOM      3  C   UNL     1       9.242  13.055  20.351  0.00  0.00    +0.000 A 
ATOM      4  C   UNL     1      10.112  12.264  19.574  0.00  0.00    +0.000 A 
ATOM      5  C   UNL     1      10.782  12.850  18.492  0.00  0.00    +0.000 A 
ATOM      6  C   UNL     1      11.682  12.381  17.498  0.00  0.00    +0.000 A 
ATOM      7  C   UNL     1      11.973  13.456  16.696  0.00  0.00    +0.000 A 
ATOM      8  O   UNL     1      11.321  14.562  17.136  0.00  0.00    +0.000 OA
ATOM      9  C   UNL     1      10.586  14.206  18.234  0.00  0.00    +0.000 A 
ATOM     10  C   UNL     1       8.466  12.443  21.449  0.00  0.00    +0.000 C 
ATOM     11  O   UNL     1       8.649  11.256  21.711  0.00  0.00    +0.000 OA
ATOM     12  C   UNL     1       7.435  13.312  22.136  0.00  0.00    +0.000 C 
ATOM     13  C   UNL     1       7.184  12.867  23.553  0.00  0.00    +0.000 A 
ATOM     14  C   UNL     1       6.206  11.899  23.837  0.00  0.00    +0.000 A 
ATOM     15  C   UNL     1       6.048  11.501  25.146  0.00  0.00    +0.000 A 
ATOM     16  C   UNL     1       6.859  11.979  26.149  0.00  0.00    +0.000 A 
ATOM     17  C   UNL     1       7.835  12.918  25.906  0.00  0.00    +0.000 A 
ATOM     18  C   UNL     1       7.967  13.396  24.601  0.00  0.00    +0.000 A 
ATOM     19  O   UNL     1       8.848  14.432  24.454  0.00  0.00    +0.000 OA
ATOM     20  C   UNL     1       9.092  14.918  23.136  0.00  0.00    +0.000 C 
ATOM     21  C   UNL     1       7.932  14.747  22.148  0.00  0.00    +0.000 C 
ATOM     22  O   UNL     1       8.267  15.231  20.843  0.00  0.00    +0.000 OA
ATOM     23  O   UNL     1       6.541  11.455  27.364  0.00  0.00    +0.000 OA
ATOM     24  C   UNL     1       5.297  10.806  27.040  0.00  0.00    +0.000 C 
ATOM     25  O   UNL     1       5.103  10.641  25.618  0.00  0.00    +0.000 OA
ENDROOT
BRANCH   1  27
ATOM     26  C   UNL     1      10.609  17.260  19.206  0.00  0.00    +0.000 C 
ATOM     27  O   UNL     1       9.542  16.396  18.838  0.00  0.00    +0.000 OA
ENDBRANCH   1  27
BRANCH   4  28
ATOM     28  O   UNL     1      10.329  10.932  19.832  0.00  0.00    +0.000 OA
ATOM     29  H   UNL     1      11.262  10.715  19.604  0.00  0.00    +0.000 HD
ENDBRANCH   4  28
TORSDOF 2
ENDMDL
MODEL 2
REMARK VINA RESULT:      -6.3      4.232      5.733
REMARK  Name = 
REMARK  3 active torsions:
REMARK  status: ('A' for Active; 'I' for Inactive)
REMARK    1  A    between atoms: C_1  and  O_2
REMARK    2  A    between atoms: O_2  and  C_3
REMARK    3  A    between atoms: C_6  and  O_7
REMARK                            x       y       z     vdW  Elec       q    Type
REMARK                         _______ _______ _______ _____ _____    ______ ____
ROOT
ATOM      1  C   UNL     1      10.032  14.436  20.037  0.00  0.00    +0.000 A 
ATOM      2  C   UNL     1       8.713  14.863  19.755  0.00  0.00    +0.000 A 
ATOM      3  C   UNL     1       7.974  14.285  18.717  0.00  0.00    +0.000 A 
ATOM      4  C   UNL     1       8.507  13.230  17.950  0.00  0.00    +0.000 A 
ATOM      5  C   UNL     1       9.816  12.798  18.202  0.00  0.00    +0.000 A 
ATOM      6  C   UNL     1      10.676  11.819  17.636  0.00  0.00    +0.000 A 
ATOM      7  C   UNL     1      11.860  11.893  18.325  0.00  0.00    +0.000 A 
ATOM      8  O   UNL     1      11.786  12.846  19.288  0.00  0.00    +0.000 OA
ATOM      9  C   UNL     1      10.541  13.410  19.225  0.00  0.00    +0.000 A 
ATOM     10  C   UNL     1       6.625  14.808  18.419  0.00  0.00    +0.000 C 
ATOM     11  O   UNL     1       5.959  14.262  17.543  0.00  0.00    +0.000 OA
ATOM     12  C   UNL     1       6.180  16.043  19.174  0.00  0.00    +0.000 C 
ATOM     13  C   UNL     1       4.680  16.112  19.295  0.00  0.00    +0.000 A 
ATOM     14  C   UNL     1       3.909  16.737  18.299  0.00  0.00    +0.000 A 
ATOM     15  C   UNL     1       2.539  16.734  18.444  0.00  0.00    +0.000 A 
ATOM     16  C   UNL     1       1.924  16.089  19.491  0.00  0.00    +0.000 A 
ATOM     17  C   UNL     1       2.646  15.457  20.478  0.00  0.00    +0.000 A 
ATOM     18  C   UNL     1       4.039  15.509  20.398  0.00  0.00    +0.000 A 
ATOM     19  O   UNL     1       4.697  14.996  21.482  0.00  0.00    +0.000 OA
ATOM     20  C   UNL     1       6.121  14.943  21.435  0.00  0.00    +0.000 C 
ATOM     21  C   UNL     1       6.788  16.015  20.565  0.00  0.00    +0.000 C 
ATOM     22  O   UNL     1       8.213  15.874  20.546  0.00  0.00    +0.000 OA
ATOM     23  O   UNL     1       0.569  16.203  19.444  0.00  0.00    +0.000 OA
ATOM     24  C   UNL     1       0.435  17.192  18.405  0.00  0.00    +0.000 C 
ATOM     25  O   UNL     1       1.643  17.356  17.629  0.00  0.00    +0.000 OA
ENDROOT
BRANCH   1  27
ATOM     26  C   UNL     1      11.583  16.106  20.750  0.00  0.00    +0.000 C 
ATOM     27  O   UNL     1      10.674  15.068  21.092  0.00  0.00    +0.000 OA
ENDBRANCH   1  27
BRANCH   4  28
ATOM     28  O   UNL     1       7.796  12.605  16.954  0.00  0.00    +0.000 OA
ATOM     29  H   UNL     1       7.473  11.739  17.294  0.00  0.00    +0.000 HD
ENDBRANCH   4  28
TORSDOF 2
ENDMDL
MODEL 3
REMARK VINA RESULT:      -6.3      1.860      7.587
REMARK  Name = 
REMARK  3 active torsions:
REMARK  status: ('A' for Active; 'I' for Inactive)
REMARK    1  A    between atoms: C_1  and  O_2
REMARK    2  A    between atoms: O_2  and  C_3
REMARK    3  A    between atoms: C_6  and  O_7
REMARK                            x       y       z     vdW  Elec       q    Type
REMARK                         _______ _______ _______ _____ _____    ______ ____
ROOT
ATOM      1  C   UNL     1       6.103  14.786  26.055  0.00  0.00    +0.000 A 
ATOM      2  C   UNL     1       6.909  14.339  24.983  0.00  0.00    +0.000 A 
ATOM      3  C   UNL     1       6.959  12.986  24.631  0.00  0.00    +0.000 A 
ATOM      4  C   UNL     1       6.173  12.033  25.310  0.00  0.00    +0.000 A 
ATOM      5  C   UNL     1       5.377  12.448  26.385  0.00  0.00    +0.000 A 
ATOM      6  C   UNL     1       4.506  11.796  27.298  0.00  0.00    +0.000 A 
ATOM      7  C   UNL     1       4.027  12.766  28.143  0.00  0.00    +0.000 A 
ATOM      8  O   UNL     1       4.537  13.977  27.806  0.00  0.00    +0.000 OA
ATOM      9  C   UNL     1       5.366  13.799  26.732  0.00  0.00    +0.000 A 
ATOM     10  C   UNL     1       7.865  12.560  23.545  0.00  0.00    +0.000 C 
ATOM     11  O   UNL     1       7.865  11.379  23.204  0.00  0.00    +0.000 OA
ATOM     12  C   UNL     1       8.794  13.607  22.969  0.00  0.00    +0.000 C 
ATOM     13  C   UNL     1       9.172  13.294  21.544  0.00  0.00    +0.000 A 
ATOM     14  C   UNL     1      10.291  12.491  21.260  0.00  0.00    +0.000 A 
ATOM     15  C   UNL     1      10.565  12.205  19.941  0.00  0.00    +0.000 A 
ATOM     16  C   UNL     1       9.744  12.631  18.924  0.00  0.00    +0.000 A 
ATOM     17  C   UNL     1       8.634  13.408  19.165  0.00  0.00    +0.000 A 
ATOM     18  C   UNL     1       8.374  13.777  20.486  0.00  0.00    +0.000 A 
ATOM     19  O   UNL     1       7.349  14.670  20.643  0.00  0.00    +0.000 OA
ATOM     20  C   UNL     1       6.976  15.030  21.971  0.00  0.00    +0.000 C 
ATOM     21  C   UNL     1       8.101  14.957  23.011  0.00  0.00    +0.000 C 
ATOM     22  O   UNL     1       7.638  15.303  24.322  0.00  0.00    +0.000 OA
ATOM     23  O   UNL     1      10.190  12.237  17.700  0.00  0.00    +0.000 OA
ATOM     24  C   UNL     1      11.497  11.746  18.055  0.00  0.00    +0.000 C 
ATOM     25  O   UNL     1      11.644  11.517  19.474  0.00  0.00    +0.000 OA
ENDROOT
BRANCH   1  27
ATOM     26  C   UNL     1       6.837  16.565  27.469  0.00  0.00    +0.000 C 
ATOM     27  O   UNL     1       6.118  16.148  26.316  0.00  0.00    +0.000 OA
ENDBRANCH   1  27
BRANCH   4  28
ATOM     28  O   UNL     1       6.159  10.703  24.964  0.00  0.00    +0.000 OA
ATOM     29  H   UNL     1       5.226  10.426  24.819  0.00  0.00    +0.000 HD
ENDBRANCH   4  28
TORSDOF 2
ENDMDL
MODEL 4
REMARK VINA RESULT:      -6.3      7.798      9.609
REMARK  Name = 
REMARK  3 active torsions:
REMARK  status: ('A' for Active; 'I' for Inactive)
REMARK    1  A    between atoms: C_1  and  O_2
REMARK    2  A    between atoms: O_2  and  C_3
REMARK    3  A    between atoms: C_6  and  O_7
REMARK                            x       y       z     vdW  Elec       q    Type
REMARK                         _______ _______ _______ _____ _____    ______ ____
ROOT
ATOM      1  C   UNL     1      -0.430  14.272  19.241  0.00  0.00    +0.000 A 
ATOM      2  C   UNL     1       0.042  12.951  19.068  0.00  0.00    +0.000 A 
ATOM      3  C   UNL     1       1.340  12.702  18.606  0.00  0.00    +0.000 A 
ATOM      4  C   UNL     1       2.228  13.763  18.341  0.00  0.00    +0.000 A 
ATOM      5  C   UNL     1       1.779  15.082  18.492  0.00  0.00    +0.000 A 
ATOM      6  C   UNL     1       2.354  16.366  18.295  0.00  0.00    +0.000 A 
ATOM      7  C   UNL     1       1.381  17.282  18.607  0.00  0.00    +0.000 A 
ATOM      8  O   UNL     1       0.245  16.649  18.994  0.00  0.00    +0.000 OA
ATOM      9  C   UNL     1       0.472  15.302  18.928  0.00  0.00    +0.000 A 
ATOM     10  C   UNL     1       1.765  11.306  18.380  0.00  0.00    +0.000 C 
ATOM     11  O   UNL     1       2.922  11.091  18.026  0.00  0.00    +0.000 OA
ATOM     12  C   UNL     1       0.713  10.228  18.531  0.00  0.00    +0.000 C 
ATOM     13  C   UNL     1       1.321   8.904  18.911  0.00  0.00    +0.000 A 
ATOM     14  C   UNL     1       1.754   8.005  17.920  0.00  0.00    +0.000 A 
ATOM     15  C   UNL     1       2.340   6.826  18.326  0.00  0.00    +0.000 A 
ATOM     16  C   UNL     1       2.560   6.549  19.655  0.00  0.00    +0.000 A 
ATOM     17  C   UNL     1       2.160   7.411  20.651  0.00  0.00    +0.000 A 
ATOM     18  C   UNL     1       1.496   8.578  20.273  0.00  0.00    +0.000 A 
ATOM     19  O   UNL     1       0.993   9.316  21.309  0.00  0.00    +0.000 OA
ATOM     20  C   UNL     1       0.371  10.562  21.000  0.00  0.00    +0.000 C 
ATOM     21  C   UNL     1      -0.270  10.649  19.610  0.00  0.00    +0.000 C 
ATOM     22  O   UNL     1      -0.843  11.939  19.368  0.00  0.00    +0.000 OA
ATOM     23  O   UNL     1       3.153   5.338  19.840  0.00  0.00    +0.000 OA
ATOM     24  C   UNL     1       3.042   4.798  18.509  0.00  0.00    +0.000 C 
ATOM     25  O   UNL     1       2.742   5.807  17.518  0.00  0.00    +0.000 OA
ENDROOT
BRANCH   1  27
ATOM     26  C   UNL     1      -1.872  14.718  21.093  0.00  0.00    +0.000 C 
ATOM     27  O   UNL     1      -1.728  14.409  19.712  0.00  0.00    +0.000 OA
ENDBRANCH   1  27
BRANCH   4  28
ATOM     28  O   UNL     1       3.524  13.559  17.931  0.00  0.00    +0.000 OA
ATOM     29  H   UNL     1       3.522  12.898  17.202  0.00  0.00    +0.000 HD
ENDBRANCH   4  28
TORSDOF 2
ENDMDL
MODEL 5
REMARK VINA RESULT:      -6.3      8.667     11.109
REMARK  Name = 
REMARK  3 active torsions:
REMARK  status: ('A' for Active; 'I' for Inactive)
REMARK    1  A    between atoms: C_1  and  O_2
REMARK    2  A    between atoms: O_2  and  C_3
REMARK    3  A    between atoms: C_6  and  O_7
REMARK                            x       y       z     vdW  Elec       q    Type
REMARK                         _______ _______ _______ _____ _____    ______ ____
ROOT
ATOM      1  C   UNL     1      -2.430  14.714  23.504  0.00  0.00    +0.000 A 
ATOM      2  C   UNL     1      -1.766  13.750  22.711  0.00  0.00    +0.000 A 
ATOM      3  C   UNL     1      -0.434  13.928  22.321  0.00  0.00    +0.000 A 
ATOM      4  C   UNL     1       0.298  15.055  22.744  0.00  0.00    +0.000 A 
ATOM      5  C   UNL     1      -0.341  16.031  23.519  0.00  0.00    +0.000 A 
ATOM      6  C   UNL     1       0.047  17.275  24.086  0.00  0.00    +0.000 A 
ATOM      7  C   UNL     1      -1.057  17.772  24.732  0.00  0.00    +0.000 A 
ATOM      8  O   UNL     1      -2.099  16.912  24.612  0.00  0.00    +0.000 OA
ATOM      9  C   UNL     1      -1.678  15.842  23.871  0.00  0.00    +0.000 A 
ATOM     10  C   UNL     1       0.196  12.924  21.439  0.00  0.00    +0.000 C 
ATOM     11  O   UNL     1       1.382  13.057  21.144  0.00  0.00    +0.000 OA
ATOM     12  C   UNL     1      -0.692  11.826  20.895  0.00  0.00    +0.000 C 
ATOM     13  C   UNL     1       0.091  10.578  20.581  0.00  0.00    +0.000 A 
ATOM     14  C   UNL     1       0.677  10.400  19.316  0.00  0.00    +0.000 A 
ATOM     15  C   UNL     1       1.416   9.259  19.099  0.00  0.00    +0.000 A 
ATOM     16  C   UNL     1       1.636   8.340  20.098  0.00  0.00    +0.000 A 
ATOM     17  C   UNL     1       1.088   8.487  21.352  0.00  0.00    +0.000 A 
ATOM     18  C   UNL     1       0.273   9.597  21.578  0.00  0.00    +0.000 A 
ATOM     19  O   UNL     1      -0.361   9.608  22.790  0.00  0.00    +0.000 OA
ATOM     20  C   UNL     1      -1.148  10.750  23.122  0.00  0.00    +0.000 C 
ATOM     21  C   UNL     1      -1.755  11.497  21.928  0.00  0.00    +0.000 C 
ATOM     22  O   UNL     1      -2.503  12.645  22.343  0.00  0.00    +0.000 OA
ATOM     23  O   UNL     1       2.394   7.290  19.678  0.00  0.00    +0.000 OA
ATOM     24  C   UNL     1       2.399   7.537  18.258  0.00  0.00    +0.000 C 
ATOM     25  O   UNL     1       1.984   8.879  17.921  0.00  0.00    +0.000 OA
ENDROOT
BRANCH   1  27
ATOM     26  C   UNL     1      -4.747  15.176  23.154  0.00  0.00    +0.000 C 
ATOM     27  O   UNL     1      -3.746  14.437  23.842  0.00  0.00    +0.000 OA
ENDBRANCH   1  27
BRANCH   4  28
ATOM     28  O   UNL     1       1.621  15.243  22.421  0.00  0.00    +0.000 OA
ATOM     29  H   UNL     1       1.673  15.621  21.514  0.00  0.00    +0.000 HD
ENDBRANCH   4  28
TORSDOF 2
ENDMDL
MODEL 6
REMARK VINA RESULT:      -6.2      9.319     12.541
REMARK  Name = 
REMARK  3 active torsions:
REMARK  status: ('A' for Active; 'I' for Inactive)
REMARK    1  A    between atoms: C_1  and  O_2
REMARK    2  A    between atoms: O_2  and  C_3
REMARK    3  A    between atoms: C_6  and  O_7
REMARK                            x       y       z     vdW  Elec       q    Type
REMARK                         _______ _______ _______ _____ _____    ______ ____
ROOT
ATOM      1  C   UNL     1      -4.281  13.103  22.334  0.00  0.00    +0.000 A 
ATOM      2  C   UNL     1      -3.031  13.326  21.711  0.00  0.00    +0.000 A 
ATOM      3  C   UNL     1      -2.815  12.966  20.377  0.00  0.00    +0.000 A 
ATOM      4  C   UNL     1      -3.851  12.410  19.601  0.00  0.00    +0.000 A 
ATOM      5  C   UNL     1      -5.095  12.167  20.199  0.00  0.00    +0.000 A 
ATOM      6  C   UNL     1      -6.326  11.608  19.762  0.00  0.00    +0.000 A 
ATOM      7  C   UNL     1      -7.172  11.632  20.843  0.00  0.00    +0.000 A 
ATOM      8  O   UNL     1      -6.548  12.179  21.916  0.00  0.00    +0.000 OA
ATOM      9  C   UNL     1      -5.276  12.510  21.539  0.00  0.00    +0.000 A 
ATOM     10  C   UNL     1      -1.473  13.160  19.790  0.00  0.00    +0.000 C 
ATOM     11  O   UNL     1      -1.303  12.892  18.602  0.00  0.00    +0.000 OA
ATOM     12  C   UNL     1      -0.369  13.611  20.722  0.00  0.00    +0.000 C 
ATOM     13  C   UNL     1       0.709  14.364  19.987  0.00  0.00    +0.000 A 
ATOM     14  C   UNL     1       1.797  13.682  19.416  0.00  0.00    +0.000 A 
ATOM     15  C   UNL     1       2.731  14.418  18.721  0.00  0.00    +0.000 A 
ATOM     16  C   UNL     1       2.585  15.772  18.527  0.00  0.00    +0.000 A 
ATOM     17  C   UNL     1       1.526  16.471  19.060  0.00  0.00    +0.000 A 
ATOM     18  C   UNL     1       0.604  15.763  19.834  0.00  0.00    +0.000 A 
ATOM     19  O   UNL     1      -0.337  16.536  20.458  0.00  0.00    +0.000 OA
ATOM     20  C   UNL     1      -1.358  15.873  21.200  0.00  0.00    +0.000 C 
ATOM     21  C   UNL     1      -0.964  14.513  21.789  0.00  0.00    +0.000 C 
ATOM     22  O   UNL     1      -2.052  13.901  22.491  0.00  0.00    +0.000 OA
ATOM     23  O   UNL     1       3.612  16.306  17.811  0.00  0.00    +0.000 OA
ATOM     24  C   UNL     1       4.522  15.189  17.807  0.00  0.00    +0.000 C 
ATOM     25  O   UNL     1       3.885  13.945  18.175  0.00  0.00    +0.000 OA
ENDROOT
BRANCH   1  27
ATOM     26  C   UNL     1      -4.308  12.480  24.640  0.00  0.00    +0.000 C 
ATOM     27  O   UNL     1      -4.394  13.504  23.657  0.00  0.00    +0.000 OA
ENDBRANCH   1  27
BRANCH   4  28
ATOM     28  O   UNL     1      -3.692  12.087  18.275  0.00  0.00    +0.000 OA
ATOM     29  H   UNL     1      -2.826  12.439  17.967  0.00  0.00    +0.000 HD
ENDBRANCH   4  28
TORSDOF 2
ENDMDL
MODEL 7
REMARK VINA RESULT:      -6.2      8.454     10.490
REMARK  Name = 
REMARK  3 active torsions:
REMARK  status: ('A' for Active; 'I' for Inactive)
REMARK    1  A    between atoms: C_1  and  O_2
REMARK    2  A    between atoms: O_2  and  C_3
REMARK    3  A    between atoms: C_6  and  O_7
REMARK                            x       y       z     vdW  Elec       q    Type
REMARK                         _______ _______ _______ _____ _____    ______ ____
ROOT
ATOM      1  C   UNL     1      -1.809  13.728  20.093  0.00  0.00    +0.000 A 
ATOM      2  C   UNL     1      -1.009  12.628  19.708  0.00  0.00    +0.000 A 
ATOM      3  C   UNL     1       0.359  12.782  19.457  0.00  0.00    +0.000 A 
ATOM      4  C   UNL     1       0.988  14.031  19.623  0.00  0.00    +0.000 A 
ATOM      5  C   UNL     1       0.214  15.140  19.991  0.00  0.00    +0.000 A 
ATOM      6  C   UNL     1       0.479  16.518  20.215  0.00  0.00    +0.000 A 
ATOM      7  C   UNL     1      -0.721  17.099  20.541  0.00  0.00    +0.000 A 
ATOM      8  O   UNL     1      -1.708  16.169  20.545  0.00  0.00    +0.000 OA
ATOM      9  C   UNL     1      -1.152  14.965  20.208  0.00  0.00    +0.000 A 
ATOM     10  C   UNL     1       1.139  11.615  18.995  0.00  0.00    +0.000 C 
ATOM     11  O   UNL     1       2.350  11.742  18.828  0.00  0.00    +0.000 OA
ATOM     12  C   UNL     1       0.371  10.348  18.685  0.00  0.00    +0.000 C 
ATOM     13  C   UNL     1       1.229   9.121  18.852  0.00  0.00    +0.000 A 
ATOM     14  C   UNL     1       1.995   8.632  17.780  0.00  0.00    +0.000 A 
ATOM     15  C   UNL     1       2.792   7.531  18.003  0.00  0.00    +0.000 A 
ATOM     16  C   UNL     1       2.895   6.953  19.246  0.00  0.00    +0.000 A 
ATOM     17  C   UNL     1       2.169   7.412  20.321  0.00  0.00    +0.000 A 
ATOM     18  C   UNL     1       1.296   8.480  20.108  0.00  0.00    +0.000 A 
ATOM     19  O   UNL     1       0.495   8.790  21.172  0.00  0.00    +0.000 OA
ATOM     20  C   UNL     1      -0.366   9.920  21.052  0.00  0.00    +0.000 C 
ATOM     21  C   UNL     1      -0.818  10.252  19.625  0.00  0.00    +0.000 C 
ATOM     22  O   UNL     1      -1.652  11.415  19.587  0.00  0.00    +0.000 OA
ATOM     23  O   UNL     1       3.737   5.883  19.251  0.00  0.00    +0.000 OA
ATOM     24  C   UNL     1       3.938   5.715  17.835  0.00  0.00    +0.000 C 
ATOM     25  O   UNL     1       3.535   6.873  17.070  0.00  0.00    +0.000 OA
ENDROOT
BRANCH   1  27
ATOM     26  C   UNL     1      -3.557  13.399  21.687  0.00  0.00    +0.000 C 
ATOM     27  O   UNL     1      -3.151  13.467  20.326  0.00  0.00    +0.000 OA
ENDBRANCH   1  27
BRANCH   4  28
ATOM     28  O   UNL     1       2.337  14.212  19.432  0.00  0.00    +0.000 OA
ATOM     29  H   UNL     1       2.553  15.159  19.595  0.00  0.00    +0.000 HD
ENDBRANCH   4  28
TORSDOF 2
ENDMDL
MODEL 8
REMARK VINA RESULT:      -6.2      9.727     11.890
REMARK  Name = 
REMARK  3 active torsions:
REMARK  status: ('A' for Active; 'I' for Inactive)
REMARK    1  A    between atoms: C_1  and  O_2
REMARK    2  A    between atoms: O_2  and  C_3
REMARK    3  A    between atoms: C_6  and  O_7
REMARK                            x       y       z     vdW  Elec       q    Type
REMARK                         _______ _______ _______ _____ _____    ______ ____
ROOT
ATOM      1  C   UNL     1       0.576  10.711  20.953  0.00  0.00    +0.000 A 
ATOM      2  C   UNL     1      -0.470  11.611  21.262  0.00  0.00    +0.000 A 
ATOM      3  C   UNL     1      -1.465  11.913  20.325  0.00  0.00    +0.000 A 
ATOM      4  C   UNL     1      -1.477  11.294  19.060  0.00  0.00    +0.000 A 
ATOM      5  C   UNL     1      -0.444  10.409  18.724  0.00  0.00    +0.000 A 
ATOM      6  C   UNL     1      -0.112   9.646  17.573  0.00  0.00    +0.000 A 
ATOM      7  C   UNL     1       1.051   8.980  17.867  0.00  0.00    +0.000 A 
ATOM      8  O   UNL     1       1.454   9.272  19.129  0.00  0.00    +0.000 OA
ATOM      9  C   UNL     1       0.550  10.147  19.667  0.00  0.00    +0.000 A 
ATOM     10  C   UNL     1      -2.500  12.908  20.674  0.00  0.00    +0.000 C 
ATOM     11  O   UNL     1      -3.402  13.129  19.869  0.00  0.00    +0.000 OA
ATOM     12  C   UNL     1      -2.335  13.649  21.983  0.00  0.00    +0.000 C 
ATOM     13  C   UNL     1      -3.659  14.113  22.532  0.00  0.00    +0.000 A 
ATOM     14  C   UNL     1      -4.186  15.364  22.168  0.00  0.00    +0.000 A 
ATOM     15  C   UNL     1      -5.419  15.719  22.669  0.00  0.00    +0.000 A 
ATOM     16  C   UNL     1      -6.155  14.860  23.451  0.00  0.00    +0.000 A 
ATOM     17  C   UNL     1      -5.677  13.623  23.818  0.00  0.00    +0.000 A 
ATOM     18  C   UNL     1      -4.397  13.267  23.388  0.00  0.00    +0.000 A 
ATOM     19  O   UNL     1      -3.920  12.096  23.908  0.00  0.00    +0.000 OA
ATOM     20  C   UNL     1      -2.653  11.630  23.450  0.00  0.00    +0.000 C 
ATOM     21  C   UNL     1      -1.679  12.723  22.992  0.00  0.00    +0.000 C 
ATOM     22  O   UNL     1      -0.444  12.172  22.521  0.00  0.00    +0.000 OA
ATOM     23  O   UNL     1      -7.343  15.401  23.836  0.00  0.00    +0.000 OA
ATOM     24  C   UNL     1      -7.145  16.765  23.418  0.00  0.00    +0.000 C 
ATOM     25  O   UNL     1      -6.046  16.915  22.493  0.00  0.00    +0.000 OA
ENDROOT
BRANCH   1  27
ATOM     26  C   UNL     1       1.392   9.237  22.645  0.00  0.00    +0.000 C 
ATOM     27  O   UNL     1       1.506  10.475  21.954  0.00  0.00    +0.000 OA
ENDBRANCH   1  27
BRANCH   4  28
ATOM     28  O   UNL     1      -2.462  11.528  18.131  0.00  0.00    +0.000 OA
ATOM     29  H   UNL     1      -2.788  12.451  18.244  0.00  0.00    +0.000 HD
ENDBRANCH   4  28
TORSDOF 2
ENDMDL
MODEL 9
REMARK VINA RESULT:      -6.2      8.135     10.016
REMARK  Name = 
REMARK  3 active torsions:
REMARK  status: ('A' for Active; 'I' for Inactive)
REMARK    1  A    between atoms: C_1  and  O_2
REMARK    2  A    between atoms: O_2  and  C_3
REMARK    3  A    between atoms: C_6  and  O_7
REMARK                            x       y       z     vdW  Elec       q    Type
REMARK                         _______ _______ _______ _____ _____    ______ ____
ROOT
ATOM      1  C   UNL     1      -1.192  14.993  20.067  0.00  0.00    +0.000 A 
ATOM      2  C   UNL     1      -0.625  13.739  19.742  0.00  0.00    +0.000 A 
ATOM      3  C   UNL     1       0.724  13.627  19.388  0.00  0.00    +0.000 A 
ATOM      4  C   UNL     1       1.568  14.755  19.387  0.00  0.00    +0.000 A 
ATOM      5  C   UNL     1       1.027  16.011  19.693  0.00  0.00    +0.000 A 
ATOM      6  C   UNL     1       1.539  17.334  19.760  0.00  0.00    +0.000 A 
ATOM      7  C   UNL     1       0.486  18.144  20.104  0.00  0.00    +0.000 A 
ATOM      8  O   UNL     1      -0.642  17.407  20.265  0.00  0.00    +0.000 OA
ATOM      9  C   UNL     1      -0.328  16.099  20.015  0.00  0.00    +0.000 A 
ATOM     10  C   UNL     1       1.255  12.305  18.995  0.00  0.00    +0.000 C 
ATOM     11  O   UNL     1       2.452  12.201  18.737  0.00  0.00    +0.000 OA
ATOM     12  C   UNL     1       0.260  11.171  18.863  0.00  0.00    +0.000 C 
ATOM     13  C   UNL     1       0.908   9.831  19.095  0.00  0.00    +0.000 A 
ATOM     14  C   UNL     1       1.490   9.124  18.030  0.00  0.00    +0.000 A 
ATOM     15  C   UNL     1       2.104   7.922  18.308  0.00  0.00    +0.000 A 
ATOM     16  C   UNL     1       2.208   7.445  19.594  0.00  0.00    +0.000 A 
ATOM     17  C   UNL     1       1.661   8.117  20.663  0.00  0.00    +0.000 A 
ATOM     18  C   UNL     1       0.967   9.300  20.401  0.00  0.00    +0.000 A 
ATOM     19  O   UNL     1       0.320   9.838  21.479  0.00  0.00    +0.000 OA
ATOM     20  C   UNL     1      -0.343  11.088  21.304  0.00  0.00    +0.000 C 
ATOM     21  C   UNL     1      -0.848  11.369  19.883  0.00  0.00    +0.000 C 
ATOM     22  O   UNL     1      -1.472  12.654  19.784  0.00  0.00    +0.000 OA
ATOM     23  O   UNL     1       2.853   6.248  19.650  0.00  0.00    +0.000 OA
ATOM     24  C   UNL     1       2.907   5.925  18.247  0.00  0.00    +0.000 C 
ATOM     25  O   UNL     1       2.645   7.065  17.399  0.00  0.00    +0.000 OA
ENDROOT
BRANCH   1  27
ATOM     26  C   UNL     1      -2.835  15.151  21.793  0.00  0.00    +0.000 C 
ATOM     27  O   UNL     1      -2.535  14.994  20.412  0.00  0.00    +0.000 OA
ENDBRANCH   1  27
BRANCH   4  28
ATOM     28  O   UNL     1       2.908  14.677  19.092  0.00  0.00    +0.000 OA
ATOM     29  H   UNL     1       3.145  13.732  18.951  0.00  0.00    +0.000 HD
ENDBRANCH   4  28
TORSDOF 2
ENDMDL
