MODEL 1
REMARK VINA RESULT:      -6.6      0.000      0.000
REMARK  Name = 
REMARK  12 active torsions:
REMARK  status: ('A' for Active; 'I' for Inactive)
REMARK    1  A    between atoms: C_1  and  C_2
REMARK    2  A    between atoms: C_2  and  C_3
REMARK    3  A    between atoms: C_2  and  C_17
REMARK    4  A    between atoms: C_3  and  N_4
REMARK    5  A    between atoms: C_5  and  C_7
REMARK    6  A    between atoms: C_10  and  C_11
REMARK    7  A    between atoms: C_11  and  C_12
REMARK    8  A    between atoms: C_11  and  C_13
REMARK    9  A    between atoms: C_11  and  C_14
REMARK   10  A    between atoms: C_17  and  N_18
REMARK   11  A    between atoms: N_18  and  C_19
REMARK   12  A    between atoms: N_18  and  C_20
REMARK                            x       y       z     vdW  Elec       q    Type
REMARK                         _______ _______ _______ _____ _____    ______ ____
ROOT
ATOM      1  N   UNL     1       6.154   4.661  15.225  0.00  0.00    +0.000 N 
ATOM      2  C   UNL     1       6.403   4.561  16.582  0.00  0.00    +0.000 C 
ATOM      3  O   UNL     1       7.513   4.721  17.083  0.00  0.00    +0.000 OA
ATOM      4  H   UNL     1       5.199   4.805  14.918  0.00  0.00    +0.000 HD
ENDROOT
BRANCH   2   5
ATOM      5  C   UNL     1       5.233   4.275  17.444  0.00  0.00    +0.000 A 
ATOM      6  C   UNL     1       4.034   3.832  16.887  0.00  0.00    +0.000 A 
ATOM      7  C   UNL     1       2.942   3.557  17.714  0.00  0.00    +0.000 A 
ATOM      8  C   UNL     1       3.013   3.714  19.109  0.00  0.00    +0.000 A 
ATOM      9  C   UNL     1       4.241   4.143  19.650  0.00  0.00    +0.000 A 
ATOM     10  C   UNL     1       5.345   4.412  18.828  0.00  0.00    +0.000 A 
BRANCH   8  11
ATOM     11  C   UNL     1       1.816   3.408  20.027  0.00  0.00    +0.000 C 
ATOM     12  C   UNL     1       1.107   4.686  20.533  0.00  0.00    +0.000 C 
ATOM     13  C   UNL     1       0.769   2.567  19.266  0.00  0.00    +0.000 C 
ATOM     14  C   UNL     1       2.277   2.620  21.272  0.00  0.00    +0.000 C 
ENDBRANCH   8  11
ENDBRANCH   2   5
BRANCH   1  15
ATOM     15  C   UNL     1       7.242   4.991  14.331  0.00  0.00    +0.000 C 
BRANCH  15  17
ATOM     16  C   UNL     1       7.523   5.164  11.812  0.00  0.00    +0.000 C 
ATOM     17  C   UNL     1       7.240   4.229  12.992  0.00  0.00    +0.000 C 
BRANCH  17  18
ATOM     18  C   UNL     1       5.855   3.548  12.859  0.00  0.00    +0.000 C 
BRANCH  18  19
ATOM     19  N   UNL     1       5.487   3.010  11.536  0.00  0.00    +0.000 NA
ATOM     20  C   UNL     1       5.833   1.597  11.388  0.00  0.00    +0.000 C 
ATOM     21  C   UNL     1       4.043   3.189  11.334  0.00  0.00    +0.000 C 
ENDBRANCH  18  19
ENDBRANCH  17  18
ENDBRANCH  15  17
ENDBRANCH   1  15
TORSDOF 6
ENDMDL
MODEL 2
REMARK VINA RESULT:      -6.6      1.132      1.659
REMARK  Name = 
REMARK  12 active torsions:
REMARK  status: ('A' for Active; 'I' for Inactive)
REMARK    1  A    between atoms: C_1  and  C_2
REMARK    2  A    between atoms: C_2  and  C_3
REMARK    3  A    between atoms: C_2  and  C_17
REMARK    4  A    between atoms: C_3  and  N_4
REMARK    5  A    between atoms: C_5  and  C_7
REMARK    6  A    between atoms: C_10  and  C_11
REMARK    7  A    between atoms: C_11  and  C_12
REMARK    8  A    between atoms: C_11  and  C_13
REMARK    9  A    between atoms: C_11  and  C_14
REMARK   10  A    between atoms: C_17  and  N_18
REMARK   11  A    between atoms: N_18  and  C_19
REMARK   12  A    between atoms: N_18  and  C_20
REMARK                            x       y       z     vdW  Elec       q    Type
REMARK                         _______ _______ _______ _____ _____    ______ ____
ROOT
ATOM      1  N   UNL     1       6.309   4.738  15.296  0.00  0.00    +0.000 N 
ATOM      2  C   UNL     1       5.382   5.626  15.814  0.00  0.00    +0.000 C 
ATOM      3  O   UNL     1       5.277   6.791  15.443  0.00  0.00    +0.000 OA
ATOM      4  H   UNL     1       6.154   3.746  15.429  0.00  0.00    +0.000 HD
ENDROOT
BRANCH   2   5
ATOM      5  C   UNL     1       4.465   5.089  16.846  0.00  0.00    +0.000 A 
ATOM      6  C   UNL     1       3.786   5.950  17.708  0.00  0.00    +0.000 A 
ATOM      7  C   UNL     1       2.917   5.430  18.669  0.00  0.00    +0.000 A 
ATOM      8  C   UNL     1       2.698   4.048  18.797  0.00  0.00    +0.000 A 
ATOM      9  C   UNL     1       3.379   3.200  17.902  0.00  0.00    +0.000 A 
ATOM     10  C   UNL     1       4.246   3.714  16.928  0.00  0.00    +0.000 A 
BRANCH   8  11
ATOM     11  C   UNL     1       1.738   3.467  19.851  0.00  0.00    +0.000 C 
ATOM     12  C   UNL     1       2.471   2.681  20.963  0.00  0.00    +0.000 C 
ATOM     13  C   UNL     1       0.949   4.607  20.531  0.00  0.00    +0.000 C 
ATOM     14  C   UNL     1       0.737   2.495  19.191  0.00  0.00    +0.000 C 
ENDBRANCH   8  11
ENDBRANCH   2   5
BRANCH   1  15
ATOM     15  C   UNL     1       7.200   5.181  14.247  0.00  0.00    +0.000 C 
BRANCH  15  17
ATOM     16  C   UNL     1       7.590   5.058  11.740  0.00  0.00    +0.000 C 
ATOM     17  C   UNL     1       7.255   4.268  13.008  0.00  0.00    +0.000 C 
BRANCH  17  18
ATOM     18  C   UNL     1       5.875   3.571  12.896  0.00  0.00    +0.000 C 
BRANCH  18  19
ATOM     19  N   UNL     1       5.491   3.031  11.579  0.00  0.00    +0.000 NA
ATOM     20  C   UNL     1       5.827   1.615  11.433  0.00  0.00    +0.000 C 
ATOM     21  C   UNL     1       4.046   3.218  11.390  0.00  0.00    +0.000 C 
ENDBRANCH  18  19
ENDBRANCH  17  18
ENDBRANCH  15  17
ENDBRANCH   1  15
TORSDOF 6
ENDMDL
MODEL 3
REMARK VINA RESULT:      -6.6      0.367      1.029
REMARK  Name = 
REMARK  12 active torsions:
REMARK  status: ('A' for Active; 'I' for Inactive)
REMARK    1  A    between atoms: C_1  and  C_2
REMARK    2  A    between atoms: C_2  and  C_3
REMARK    3  A    between atoms: C_2  and  C_17
REMARK    4  A    between atoms: C_3  and  N_4
REMARK    5  A    between atoms: C_5  and  C_7
REMARK    6  A    between atoms: C_10  and  C_11
REMARK    7  A    between atoms: C_11  and  C_12
REMARK    8  A    between atoms: C_11  and  C_13
REMARK    9  A    between atoms: C_11  and  C_14
REMARK   10  A    between atoms: C_17  and  N_18
REMARK   11  A    between atoms: N_18  and  C_19
REMARK   12  A    between atoms: N_18  and  C_20
REMARK                            x       y       z     vdW  Elec       q    Type
REMARK                         _______ _______ _______ _____ _____    ______ ____
ROOT
ATOM      1  N   UNL     1       6.090   4.870  15.214  0.00  0.00    +0.000 N 
ATOM      2  C   UNL     1       6.410   4.526  16.515  0.00  0.00    +0.000 C 
ATOM      3  O   UNL     1       7.562   4.429  16.929  0.00  0.00    +0.000 OA
ATOM      4  H   UNL     1       5.155   5.210  15.020  0.00  0.00    +0.000 HD
ENDROOT
BRANCH   2   5
ATOM      5  C   UNL     1       5.270   4.304  17.434  0.00  0.00    +0.000 A 
ATOM      6  C   UNL     1       4.313   3.329  17.154  0.00  0.00    +0.000 A 
ATOM      7  C   UNL     1       3.248   3.125  18.035  0.00  0.00    +0.000 A 
ATOM      8  C   UNL     1       3.109   3.878  19.213  0.00  0.00    +0.000 A 
ATOM      9  C   UNL     1       4.100   4.842  19.485  0.00  0.00    +0.000 A 
ATOM     10  C   UNL     1       5.177   5.048  18.611  0.00  0.00    +0.000 A 
BRANCH   8  11
ATOM     11  C   UNL     1       1.942   3.655  20.192  0.00  0.00    +0.000 C 
ATOM     12  C   UNL     1       0.784   2.840  19.568  0.00  0.00    +0.000 C 
ATOM     13  C   UNL     1       2.436   2.884  21.435  0.00  0.00    +0.000 C 
ATOM     14  C   UNL     1       1.353   5.007  20.647  0.00  0.00    +0.000 C 
ENDBRANCH   8  11
ENDBRANCH   2   5
BRANCH   1  15
ATOM     15  C   UNL     1       7.155   5.153  14.277  0.00  0.00    +0.000 C 
BRANCH  15  17
ATOM     16  C   UNL     1       7.583   5.007  11.778  0.00  0.00    +0.000 C 
ATOM     17  C   UNL     1       7.201   4.233  13.043  0.00  0.00    +0.000 C 
BRANCH  17  18
ATOM     18  C   UNL     1       5.802   3.581  12.911  0.00  0.00    +0.000 C 
BRANCH  18  19
ATOM     19  N   UNL     1       5.418   3.057  11.587  0.00  0.00    +0.000 NA
ATOM     20  C   UNL     1       5.817   1.662  11.399  0.00  0.00    +0.000 C 
ATOM     21  C   UNL     1       3.963   3.180  11.428  0.00  0.00    +0.000 C 
ENDBRANCH  18  19
ENDBRANCH  17  18
ENDBRANCH  15  17
ENDBRANCH   1  15
TORSDOF 6
ENDMDL
MODEL 4
REMARK VINA RESULT:      -6.5      4.031      5.689
REMARK  Name = 
REMARK  12 active torsions:
REMARK  status: ('A' for Active; 'I' for Inactive)
REMARK    1  A    between atoms: C_1  and  C_2
REMARK    2  A    between atoms: C_2  and  C_3
REMARK    3  A    between atoms: C_2  and  C_17
REMARK    4  A    between atoms: C_3  and  N_4
REMARK    5  A    between atoms: C_5  and  C_7
REMARK    6  A    between atoms: C_10  and  C_11
REMARK    7  A    between atoms: C_11  and  C_12
REMARK    8  A    between atoms: C_11  and  C_13
REMARK    9  A    between atoms: C_11  and  C_14
REMARK   10  A    between atoms: C_17  and  N_18
REMARK   11  A    between atoms: N_18  and  C_19
REMARK   12  A    between atoms: N_18  and  C_20
REMARK                            x       y       z     vdW  Elec       q    Type
REMARK                         _______ _______ _______ _____ _____    ______ ____
ROOT
ATOM      1  N   UNL     1       4.903   5.680  18.640  0.00  0.00    +0.000 N 
ATOM      2  C   UNL     1       3.525   5.560  18.667  0.00  0.00    +0.000 C 
ATOM      3  O   UNL     1       2.934   4.489  18.573  0.00  0.00    +0.000 OA
ATOM      4  H   UNL     1       5.322   6.527  19.006  0.00  0.00    +0.000 HD
ENDROOT
BRANCH   2   5
ATOM      5  C   UNL     1       2.762   6.816  18.856  0.00  0.00    +0.000 A 
ATOM      6  C   UNL     1       2.148   7.095  20.077  0.00  0.00    +0.000 A 
ATOM      7  C   UNL     1       1.440   8.287  20.243  0.00  0.00    +0.000 A 
ATOM      8  C   UNL     1       1.326   9.230  19.207  0.00  0.00    +0.000 A 
ATOM      9  C   UNL     1       1.971   8.935  17.990  0.00  0.00    +0.000 A 
ATOM     10  C   UNL     1       2.692   7.745  17.818  0.00  0.00    +0.000 A 
BRANCH   8  11
ATOM     11  C   UNL     1       0.551  10.548  19.385  0.00  0.00    +0.000 C 
ATOM     12  C   UNL     1      -0.798  10.558  18.629  0.00  0.00    +0.000 C 
ATOM     13  C   UNL     1       0.248  10.785  20.880  0.00  0.00    +0.000 C 
ATOM     14  C   UNL     1       1.379  11.737  18.851  0.00  0.00    +0.000 C 
ENDBRANCH   8  11
ENDBRANCH   2   5
BRANCH   1  15
ATOM     15  C   UNL     1       5.712   4.488  18.513  0.00  0.00    +0.000 C 
BRANCH  15  17
ATOM     16  C   UNL     1       7.791   5.904  18.865  0.00  0.00    +0.000 C 
ATOM     17  C   UNL     1       7.175   4.732  18.096  0.00  0.00    +0.000 C 
BRANCH  17  18
ATOM     18  C   UNL     1       7.174   4.991  16.569  0.00  0.00    +0.000 C 
BRANCH  18  19
ATOM     19  N   UNL     1       5.904   4.791  15.846  0.00  0.00    +0.000 NA
ATOM     20  C   UNL     1       5.359   6.039  15.313  0.00  0.00    +0.000 C 
ATOM     21  C   UNL     1       6.124   3.840  14.749  0.00  0.00    +0.000 C 
ENDBRANCH  18  19
ENDBRANCH  17  18
ENDBRANCH  15  17
ENDBRANCH   1  15
TORSDOF 6
ENDMDL
MODEL 5
REMARK VINA RESULT:      -6.4      0.510      1.686
REMARK  Name = 
REMARK  12 active torsions:
REMARK  status: ('A' for Active; 'I' for Inactive)
REMARK    1  A    between atoms: C_1  and  C_2
REMARK    2  A    between atoms: C_2  and  C_3
REMARK    3  A    between atoms: C_2  and  C_17
REMARK    4  A    between atoms: C_3  and  N_4
REMARK    5  A    between atoms: C_5  and  C_7
REMARK    6  A    between atoms: C_10  and  C_11
REMARK    7  A    between atoms: C_11  and  C_12
REMARK    8  A    between atoms: C_11  and  C_13
REMARK    9  A    between atoms: C_11  and  C_14
REMARK   10  A    between atoms: C_17  and  N_18
REMARK   11  A    between atoms: N_18  and  C_19
REMARK   12  A    between atoms: N_18  and  C_20
REMARK                            x       y       z     vdW  Elec       q    Type
REMARK                         _______ _______ _______ _____ _____    ______ ____
ROOT
ATOM      1  N   UNL     1       6.094   4.224  15.203  0.00  0.00    +0.000 N 
ATOM      2  C   UNL     1       6.398   4.411  16.540  0.00  0.00    +0.000 C 
ATOM      3  O   UNL     1       7.513   4.724  16.946  0.00  0.00    +0.000 OA
ATOM      4  H   UNL     1       5.122   4.255  14.920  0.00  0.00    +0.000 HD
ENDROOT
BRANCH   2   5
ATOM      5  C   UNL     1       5.278   4.246  17.496  0.00  0.00    +0.000 A 
ATOM      6  C   UNL     1       5.317   4.865  18.746  0.00  0.00    +0.000 A 
ATOM      7  C   UNL     1       4.249   4.708  19.633  0.00  0.00    +0.000 A 
ATOM      8  C   UNL     1       3.121   3.939  19.303  0.00  0.00    +0.000 A 
ATOM      9  C   UNL     1       3.096   3.340  18.027  0.00  0.00    +0.000 A 
ATOM     10  C   UNL     1       4.159   3.500  17.127  0.00  0.00    +0.000 A 
BRANCH   8  11
ATOM     11  C   UNL     1       1.938   3.766  20.273  0.00  0.00    +0.000 C 
ATOM     12  C   UNL     1       2.324   2.995  21.557  0.00  0.00    +0.000 C 
ATOM     13  C   UNL     1       1.403   5.148  20.704  0.00  0.00    +0.000 C 
ATOM     14  C   UNL     1       0.795   2.979  19.596  0.00  0.00    +0.000 C 
ENDBRANCH   8  11
ENDBRANCH   2   5
BRANCH   1  15
ATOM     15  C   UNL     1       7.127   4.423  14.211  0.00  0.00    +0.000 C 
BRANCH  15  17
ATOM     16  C   UNL     1       7.389   4.862  11.723  0.00  0.00    +0.000 C 
ATOM     17  C   UNL     1       6.766   3.956  12.789  0.00  0.00    +0.000 C 
BRANCH  17  18
ATOM     18  C   UNL     1       5.219   3.946  12.694  0.00  0.00    +0.000 C 
BRANCH  18  19
ATOM     19  N   UNL     1       4.594   2.875  11.897  0.00  0.00    +0.000 NA
ATOM     20  C   UNL     1       3.832   3.392  10.760  0.00  0.00    +0.000 C 
ATOM     21  C   UNL     1       5.642   1.965  11.416  0.00  0.00    +0.000 C 
ENDBRANCH  18  19
ENDBRANCH  17  18
ENDBRANCH  15  17
ENDBRANCH   1  15
TORSDOF 6
ENDMDL
MODEL 6
REMARK VINA RESULT:      -6.4      4.356      6.785
REMARK  Name = 
REMARK  12 active torsions:
REMARK  status: ('A' for Active; 'I' for Inactive)
REMARK    1  A    between atoms: C_1  and  C_2
REMARK    2  A    between atoms: C_2  and  C_3
REMARK    3  A    between atoms: C_2  and  C_17
REMARK    4  A    between atoms: C_3  and  N_4
REMARK    5  A    between atoms: C_5  and  C_7
REMARK    6  A    between atoms: C_10  and  C_11
REMARK    7  A    between atoms: C_11  and  C_12
REMARK    8  A    between atoms: C_11  and  C_13
REMARK    9  A    between atoms: C_11  and  C_14
REMARK   10  A    between atoms: C_17  and  N_18
REMARK   11  A    between atoms: N_18  and  C_19
REMARK   12  A    between atoms: N_18  and  C_20
REMARK                            x       y       z     vdW  Elec       q    Type
REMARK                         _______ _______ _______ _____ _____    ______ ____
ROOT
ATOM      1  N   UNL     1       3.986   5.504  19.404  0.00  0.00    +0.000 N 
ATOM      2  C   UNL     1       3.667   6.349  18.356  0.00  0.00    +0.000 C 
ATOM      3  O   UNL     1       4.118   6.225  17.221  0.00  0.00    +0.000 OA
ATOM      4  H   UNL     1       3.374   5.483  20.212  0.00  0.00    +0.000 HD
ENDROOT
BRANCH   2   5
ATOM      5  C   UNL     1       2.700   7.430  18.657  0.00  0.00    +0.000 A 
ATOM      6  C   UNL     1       2.137   7.544  19.928  0.00  0.00    +0.000 A 
ATOM      7  C   UNL     1       1.233   8.574  20.200  0.00  0.00    +0.000 A 
ATOM      8  C   UNL     1       0.869   9.515  19.221  0.00  0.00    +0.000 A 
ATOM      9  C   UNL     1       1.467   9.392  17.951  0.00  0.00    +0.000 A 
ATOM     10  C   UNL     1       2.382   8.366  17.673  0.00  0.00    +0.000 A 
BRANCH   8  11
ATOM     11  C   UNL     1      -0.122  10.656  19.514  0.00  0.00    +0.000 C 
ATOM     12  C   UNL     1       0.444  12.049  19.152  0.00  0.00    +0.000 C 
ATOM     13  C   UNL     1      -1.416  10.453  18.699  0.00  0.00    +0.000 C 
ATOM     14  C   UNL     1      -0.480  10.687  21.016  0.00  0.00    +0.000 C 
ENDBRANCH   8  11
ENDBRANCH   2   5
BRANCH   1  15
ATOM     15  C   UNL     1       4.882   4.395  19.167  0.00  0.00    +0.000 C 
BRANCH  15  17
ATOM     16  C   UNL     1       3.786   2.812  17.510  0.00  0.00    +0.000 C 
ATOM     17  C   UNL     1       4.196   3.030  18.969  0.00  0.00    +0.000 C 
BRANCH  17  18
ATOM     18  C   UNL     1       2.970   2.998  19.915  0.00  0.00    +0.000 C 
BRANCH  18  19
ATOM     19  N   UNL     1       1.673   3.432  19.362  0.00  0.00    +0.000 NA
ATOM     20  C   UNL     1       0.865   2.312  18.880  0.00  0.00    +0.000 C 
ATOM     21  C   UNL     1       0.934   4.164  20.400  0.00  0.00    +0.000 C 
ENDBRANCH  18  19
ENDBRANCH  17  18
ENDBRANCH  15  17
ENDBRANCH   1  15
TORSDOF 6
ENDMDL
MODEL 7
REMARK VINA RESULT:      -6.4      4.017      5.619
REMARK  Name = 
REMARK  12 active torsions:
REMARK  status: ('A' for Active; 'I' for Inactive)
REMARK    1  A    between atoms: C_1  and  C_2
REMARK    2  A    between atoms: C_2  and  C_3
REMARK    3  A    between atoms: C_2  and  C_17
REMARK    4  A    between atoms: C_3  and  N_4
REMARK    5  A    between atoms: C_5  and  C_7
REMARK    6  A    between atoms: C_10  and  C_11
REMARK    7  A    between atoms: C_11  and  C_12
REMARK    8  A    between atoms: C_11  and  C_13
REMARK    9  A    between atoms: C_11  and  C_14
REMARK   10  A    between atoms: C_17  and  N_18
REMARK   11  A    between atoms: N_18  and  C_19
REMARK   12  A    between atoms: N_18  and  C_20
REMARK                            x       y       z     vdW  Elec       q    Type
REMARK                         _______ _______ _______ _____ _____    ______ ____
ROOT
ATOM      1  N   UNL     1       4.918   5.727  18.676  0.00  0.00    +0.000 N 
ATOM      2  C   UNL     1       3.548   5.576  18.794  0.00  0.00    +0.000 C 
ATOM      3  O   UNL     1       2.984   4.486  18.825  0.00  0.00    +0.000 OA
ATOM      4  H   UNL     1       5.332   6.612  18.944  0.00  0.00    +0.000 HD
ENDROOT
BRANCH   2   5
ATOM      5  C   UNL     1       2.760   6.824  18.920  0.00  0.00    +0.000 A 
ATOM      6  C   UNL     1       2.600   7.675  17.827  0.00  0.00    +0.000 A 
ATOM      7  C   UNL     1       1.846   8.844  17.958  0.00  0.00    +0.000 A 
ATOM      8  C   UNL     1       1.232   9.194  19.173  0.00  0.00    +0.000 A 
ATOM      9  C   UNL     1       1.390   8.308  20.257  0.00  0.00    +0.000 A 
ATOM     10  C   UNL     1       2.137   7.128  20.131  0.00  0.00    +0.000 A 
BRANCH   8  11
ATOM     11  C   UNL     1       0.395  10.477  19.324  0.00  0.00    +0.000 C 
ATOM     12  C   UNL     1      -0.811  10.524  18.356  0.00  0.00    +0.000 C 
ATOM     13  C   UNL     1      -0.159  10.579  20.762  0.00  0.00    +0.000 C 
ATOM     14  C   UNL     1       1.259  11.723  19.034  0.00  0.00    +0.000 C 
ENDBRANCH   8  11
ENDBRANCH   2   5
BRANCH   1  15
ATOM     15  C   UNL     1       5.753   4.548  18.602  0.00  0.00    +0.000 C 
BRANCH  15  17
ATOM     16  C   UNL     1       7.748   6.116  18.718  0.00  0.00    +0.000 C 
ATOM     17  C   UNL     1       7.203   4.802  18.151  0.00  0.00    +0.000 C 
BRANCH  17  18
ATOM     18  C   UNL     1       7.201   4.809  16.602  0.00  0.00    +0.000 C 
BRANCH  18  19
ATOM     19  N   UNL     1       5.895   4.722  15.923  0.00  0.00    +0.000 NA
ATOM     20  C   UNL     1       5.449   6.012  15.396  0.00  0.00    +0.000 C 
ATOM     21  C   UNL     1       5.989   3.747  14.829  0.00  0.00    +0.000 C 
ENDBRANCH  18  19
ENDBRANCH  17  18
ENDBRANCH  15  17
ENDBRANCH   1  15
TORSDOF 6
ENDMDL
MODEL 8
REMARK VINA RESULT:      -6.4      4.172      6.148
REMARK  Name = 
REMARK  12 active torsions:
REMARK  status: ('A' for Active; 'I' for Inactive)
REMARK    1  A    between atoms: C_1  and  C_2
REMARK    2  A    between atoms: C_2  and  C_3
REMARK    3  A    between atoms: C_2  and  C_17
REMARK    4  A    between atoms: C_3  and  N_4
REMARK    5  A    between atoms: C_5  and  C_7
REMARK    6  A    between atoms: C_10  and  C_11
REMARK    7  A    between atoms: C_11  and  C_12
REMARK    8  A    between atoms: C_11  and  C_13
REMARK    9  A    between atoms: C_11  and  C_14
REMARK   10  A    between atoms: C_17  and  N_18
REMARK   11  A    between atoms: N_18  and  C_19
REMARK   12  A    between atoms: N_18  and  C_20
REMARK                            x       y       z     vdW  Elec       q    Type
REMARK                         _______ _______ _______ _____ _____    ______ ____
ROOT
ATOM      1  N   UNL     1       3.534   5.785  17.511  0.00  0.00    +0.000 N 
ATOM      2  C   UNL     1       3.340   6.078  18.849  0.00  0.00    +0.000 C 
ATOM      3  O   UNL     1       3.843   5.435  19.766  0.00  0.00    +0.000 OA
ATOM      4  H   UNL     1       3.340   6.505  16.825  0.00  0.00    +0.000 HD
ENDROOT
BRANCH   2   5
ATOM      5  C   UNL     1       2.501   7.263  19.146  0.00  0.00    +0.000 A 
ATOM      6  C   UNL     1       2.210   8.193  18.148  0.00  0.00    +0.000 A 
ATOM      7  C   UNL     1       1.409   9.299  18.440  0.00  0.00    +0.000 A 
ATOM      8  C   UNL     1       0.878   9.508  19.725  0.00  0.00    +0.000 A 
ATOM      9  C   UNL     1       1.170   8.545  20.710  0.00  0.00    +0.000 A 
ATOM     10  C   UNL     1       1.965   7.426  20.423  0.00  0.00    +0.000 A 
BRANCH   8  11
ATOM     11  C   UNL     1      -0.009  10.723  20.053  0.00  0.00    +0.000 C 
ATOM     12  C   UNL     1      -1.266  10.807  19.156  0.00  0.00    +0.000 C 
ATOM     13  C   UNL     1      -0.488  10.645  21.518  0.00  0.00    +0.000 C 
ATOM     14  C   UNL     1       0.778  12.036  19.856  0.00  0.00    +0.000 C 
ENDBRANCH   8  11
ENDBRANCH   2   5
BRANCH   1  15
ATOM     15  C   UNL     1       4.386   4.674  17.150  0.00  0.00    +0.000 C 
BRANCH  15  17
ATOM     16  C   UNL     1       5.657   4.339  14.975  0.00  0.00    +0.000 C 
ATOM     17  C   UNL     1       5.636   5.050  16.332  0.00  0.00    +0.000 C 
BRANCH  17  18
ATOM     18  C   UNL     1       6.870   4.673  17.190  0.00  0.00    +0.000 C 
BRANCH  18  19
ATOM     19  N   UNL     1       7.564   5.765  17.898  0.00  0.00    +0.000 NA
ATOM     20  C   UNL     1       7.144   7.089  17.438  0.00  0.00    +0.000 C 
ATOM     21  C   UNL     1       7.307   5.639  19.338  0.00  0.00    +0.000 C 
ENDBRANCH  18  19
ENDBRANCH  17  18
ENDBRANCH  15  17
ENDBRANCH   1  15
TORSDOF 6
ENDMDL
MODEL 9
REMARK VINA RESULT:      -6.4      4.498      6.450
REMARK  Name = 
REMARK  12 active torsions:
REMARK  status: ('A' for Active; 'I' for Inactive)
REMARK    1  A    between atoms: C_1  and  C_2
REMARK    2  A    between atoms: C_2  and  C_3
REMARK    3  A    between atoms: C_2  and  C_17
REMARK    4  A    between atoms: C_3  and  N_4
REMARK    5  A    between atoms: C_5  and  C_7
REMARK    6  A    between atoms: C_10  and  C_11
REMARK    7  A    between atoms: C_11  and  C_12
REMARK    8  A    between atoms: C_11  and  C_13
REMARK    9  A    between atoms: C_11  and  C_14
REMARK   10  A    between atoms: C_17  and  N_18
REMARK   11  A    between atoms: N_18  and  C_19
REMARK   12  A    between atoms: N_18  and  C_20
REMARK                            x       y       z     vdW  Elec       q    Type
REMARK                         _______ _______ _______ _____ _____    ______ ____
ROOT
ATOM      1  N   UNL     1       3.937   5.882  18.432  0.00  0.00    +0.000 N 
ATOM      2  C   UNL     1       3.015   6.074  19.445  0.00  0.00    +0.000 C 
ATOM      3  O   UNL     1       2.834   5.275  20.360  0.00  0.00    +0.000 OA
ATOM      4  H   UNL     1       4.236   6.686  17.892  0.00  0.00    +0.000 HD
ENDROOT
BRANCH   2   5
ATOM      5  C   UNL     1       2.250   7.342  19.404  0.00  0.00    +0.000 A 
ATOM      6  C   UNL     1       1.620   7.827  20.550  0.00  0.00    +0.000 A 
ATOM      7  C   UNL     1       0.910   9.029  20.498  0.00  0.00    +0.000 A 
ATOM      8  C   UNL     1       0.810   9.777  19.313  0.00  0.00    +0.000 A 
ATOM      9  C   UNL     1       1.472   9.278  18.175  0.00  0.00    +0.000 A 
ATOM     10  C   UNL     1       2.195   8.077  18.220  0.00  0.00    +0.000 A 
BRANCH   8  11
ATOM     11  C   UNL     1       0.034  11.106  19.250  0.00  0.00    +0.000 C 
ATOM     12  C   UNL     1      -0.535  11.534  20.623  0.00  0.00    +0.000 C 
ATOM     13  C   UNL     1       0.963  12.236  18.759  0.00  0.00    +0.000 C 
ATOM     14  C   UNL     1      -1.160  10.987  18.280  0.00  0.00    +0.000 C 
ENDBRANCH   8  11
ENDBRANCH   2   5
BRANCH   1  15
ATOM     15  C   UNL     1       4.757   4.691  18.441  0.00  0.00    +0.000 C 
BRANCH  15  17
ATOM     16  C   UNL     1       5.094   4.314  15.952  0.00  0.00    +0.000 C 
ATOM     17  C   UNL     1       4.534   3.735  17.254  0.00  0.00    +0.000 C 
BRANCH  17  18
ATOM     18  C   UNL     1       3.008   3.483  17.155  0.00  0.00    +0.000 C 
BRANCH  18  19
ATOM     19  N   UNL     1       2.490   2.220  17.714  0.00  0.00    +0.000 NA
ATOM     20  C   UNL     1       3.520   1.452  18.414  0.00  0.00    +0.000 C 
ATOM     21  C   UNL     1       1.388   2.524  18.636  0.00  0.00    +0.000 C 
ENDBRANCH  18  19
ENDBRANCH  17  18
ENDBRANCH  15  17
ENDBRANCH   1  15
TORSDOF 6
ENDMDL
