MODEL 1
REMARK VINA RESULT:      -7.9      0.000      0.000
REMARK  Name = 
REMARK  10 active torsions:
REMARK  status: ('A' for Active; 'I' for Inactive)
REMARK    1  A    between atoms: C_1  and  C_2
REMARK    2  A    between atoms: C_10  and  C_11
REMARK    3  A    between atoms: C_11  and  C_12
REMARK    4  A    between atoms: C_13  and  O_14
REMARK    5  A    between atoms: O_14  and  C_15
REMARK    6  A    between atoms: C_15  and  C_17
REMARK    7  A    between atoms: C_17  and  C_18
REMARK    8  A    between atoms: C_18  and  C_19
REMARK    9  A    between atoms: C_19  and  C_20
REMARK   10  A    between atoms: C_20  and  O_22
REMARK                            x       y       z     vdW  Elec       q    Type
REMARK                         _______ _______ _______ _____ _____    ______ ____
ROOT
ATOM      1  C   UNL     1       3.620   5.079  18.640  0.00  0.00    +0.000 A 
ATOM      2  C   UNL     1       2.686   4.264  17.967  0.00  0.00    +0.000 A 
ATOM      3  C   UNL     1       3.070   3.490  16.863  0.00  0.00    +0.000 A 
ATOM      4  C   UNL     1       4.402   3.456  16.452  0.00  0.00    +0.000 A 
ATOM      5  C   UNL     1       5.351   4.229  17.112  0.00  0.00    +0.000 A 
ATOM      6  C   UNL     1       6.741   4.246  16.688  0.00  0.00    +0.000 A 
ATOM      7  C   UNL     1       7.601   5.084  17.272  0.00  0.00    +0.000 A 
ATOM      8  C   UNL     1       7.202   5.988  18.361  0.00  0.00    +0.000 A 
ATOM      9  O   UNL     1       7.998   6.788  18.838  0.00  0.00    +0.000 OA
ATOM     10  O   UNL     1       5.897   5.877  18.812  0.00  0.00    +0.000 OA
ATOM     11  C   UNL     1       4.950   5.033  18.181  0.00  0.00    +0.000 A 
ENDROOT
BRANCH   1  12
ATOM     12  C   UNL     1       3.252   6.046  19.730  0.00  0.00    +0.000 C 
BRANCH  12  22
ATOM     13  C   UNL     1       3.474   7.779  16.766  0.00  0.00    +0.000 C 
ATOM     14  C   UNL     1       2.734   8.030  18.032  0.00  0.00    +0.000 A 
ATOM     15  N   UNL     1       2.000   9.185  18.155  0.00  0.00    +0.000 N 
ATOM     16  C   UNL     1       1.324   9.212  19.347  0.00  0.00    +0.000 A 
ATOM     17  C   UNL     1       0.459  10.181  19.866  0.00  0.00    +0.000 A 
ATOM     18  C   UNL     1      -0.157   9.915  21.092  0.00  0.00    +0.000 A 
ATOM     19  C   UNL     1       0.087   8.719  21.762  0.00  0.00    +0.000 A 
ATOM     20  C   UNL     1       0.974   7.772  21.238  0.00  0.00    +0.000 A 
ATOM     21  C   UNL     1       1.617   8.022  20.004  0.00  0.00    +0.000 A 
ATOM     22  C   UNL     1       2.596   7.306  19.216  0.00  0.00    +0.000 A 
ATOM     23  H   UNL     1       1.938   9.909  17.451  0.00  0.00    +0.000 HD
ENDBRANCH  12  22
ENDBRANCH   1  12
BRANCH   2  24
ATOM     24  O   UNL     1       1.327   4.287  18.379  0.00  0.00    +0.000 OA
BRANCH  24  25
ATOM     25  C   UNL     1       0.756   3.189  19.040  0.00  0.00    +0.000 C 
ATOM     26  O   UNL     1       0.251   2.205  18.514  0.00  0.00    +0.000 OA
BRANCH  25  27
ATOM     27  C   UNL     1       0.863   3.353  20.537  0.00  0.00    +0.000 C 
BRANCH  27  28
ATOM     28  C   UNL     1       1.817   2.349  21.186  0.00  0.00    +0.000 C 
BRANCH  28  29
ATOM     29  C   UNL     1       3.272   2.802  21.279  0.00  0.00    +0.000 C 
BRANCH  29  30
ATOM     30  C   UNL     1       4.248   1.908  20.551  0.00  0.00    +0.000 C 
ATOM     31  O   UNL     1       4.139   1.544  19.392  0.00  0.00    +0.000 OA
BRANCH  30  32
ATOM     32  O   UNL     1       5.287   1.536  21.332  0.00  0.00    +0.000 OA
ATOM     33  H   UNL     1       5.316   2.010  22.189  0.00  0.00    +0.000 HD
ENDBRANCH  30  32
ENDBRANCH  29  30
ENDBRANCH  28  29
ENDBRANCH  27  28
ENDBRANCH  25  27
ENDBRANCH  24  25
ENDBRANCH   2  24
TORSDOF 9
ENDMDL
MODEL 2
REMARK VINA RESULT:      -7.0      2.742      6.341
REMARK  Name = 
REMARK  10 active torsions:
REMARK  status: ('A' for Active; 'I' for Inactive)
REMARK    1  A    between atoms: C_1  and  C_2
REMARK    2  A    between atoms: C_10  and  C_11
REMARK    3  A    between atoms: C_11  and  C_12
REMARK    4  A    between atoms: C_13  and  O_14
REMARK    5  A    between atoms: O_14  and  C_15
REMARK    6  A    between atoms: C_15  and  C_17
REMARK    7  A    between atoms: C_17  and  C_18
REMARK    8  A    between atoms: C_18  and  C_19
REMARK    9  A    between atoms: C_19  and  C_20
REMARK   10  A    between atoms: C_20  and  O_22
REMARK                            x       y       z     vdW  Elec       q    Type
REMARK                         _______ _______ _______ _____ _____    ______ ____
ROOT
ATOM      1  C   UNL     1       4.059   5.390  18.806  0.00  0.00    +0.000 A 
ATOM      2  C   UNL     1       3.080   6.143  18.125  0.00  0.00    +0.000 A 
ATOM      3  C   UNL     1       1.866   5.561  17.736  0.00  0.00    +0.000 A 
ATOM      4  C   UNL     1       1.572   4.242  18.077  0.00  0.00    +0.000 A 
ATOM      5  C   UNL     1       2.507   3.480  18.770  0.00  0.00    +0.000 A 
ATOM      6  C   UNL     1       2.250   2.091  19.111  0.00  0.00    +0.000 A 
ATOM      7  C   UNL     1       3.213   1.358  19.676  0.00  0.00    +0.000 A 
ATOM      8  C   UNL     1       4.536   1.913  19.998  0.00  0.00    +0.000 A 
ATOM      9  O   UNL     1       5.420   1.202  20.463  0.00  0.00    +0.000 OA
ATOM     10  O   UNL     1       4.717   3.265  19.756  0.00  0.00    +0.000 OA
ATOM     11  C   UNL     1       3.734   4.055  19.113  0.00  0.00    +0.000 A 
ENDROOT
BRANCH   1  12
ATOM     12  C   UNL     1       5.438   5.900  19.120  0.00  0.00    +0.000 C 
BRANCH  12  22
ATOM     13  C   UNL     1       8.092   7.938  18.321  0.00  0.00    +0.000 C 
ATOM     14  C   UNL     1       7.365   6.881  17.568  0.00  0.00    +0.000 A 
ATOM     15  N   UNL     1       7.724   6.626  16.266  0.00  0.00    +0.000 N 
ATOM     16  C   UNL     1       7.009   5.573  15.757  0.00  0.00    +0.000 A 
ATOM     17  C   UNL     1       7.066   4.979  14.492  0.00  0.00    +0.000 A 
ATOM     18  C   UNL     1       6.263   3.858  14.263  0.00  0.00    +0.000 A 
ATOM     19  C   UNL     1       5.442   3.357  15.270  0.00  0.00    +0.000 A 
ATOM     20  C   UNL     1       5.382   3.980  16.522  0.00  0.00    +0.000 A 
ATOM     21  C   UNL     1       6.176   5.121  16.775  0.00  0.00    +0.000 A 
ATOM     22  C   UNL     1       6.325   6.014  17.903  0.00  0.00    +0.000 A 
ATOM     23  H   UNL     1       8.440   7.125  15.755  0.00  0.00    +0.000 HD
ENDBRANCH  12  22
ENDBRANCH   1  12
BRANCH   2  24
ATOM     24  O   UNL     1       3.366   7.489  17.776  0.00  0.00    +0.000 OA
BRANCH  24  25
ATOM     25  C   UNL     1       2.451   8.516  18.054  0.00  0.00    +0.000 C 
ATOM     26  O   UNL     1       2.387   9.604  17.496  0.00  0.00    +0.000 OA
BRANCH  25  27
ATOM     27  C   UNL     1       1.498   8.099  19.148  0.00  0.00    +0.000 C 
BRANCH  27  28
ATOM     28  C   UNL     1       1.229   9.207  20.167  0.00  0.00    +0.000 C 
BRANCH  28  29
ATOM     29  C   UNL     1       0.412   8.785  21.385  0.00  0.00    +0.000 C 
BRANCH  29  30
ATOM     30  C   UNL     1       0.845   9.434  22.678  0.00  0.00    +0.000 C 
ATOM     31  O   UNL     1       0.102   9.995  23.468  0.00  0.00    +0.000 OA
BRANCH  30  32
ATOM     32  O   UNL     1       2.176   9.333  22.885  0.00  0.00    +0.000 OA
ATOM     33  H   UNL     1       2.534  10.043  23.457  0.00  0.00    +0.000 HD
ENDBRANCH  30  32
ENDBRANCH  29  30
ENDBRANCH  28  29
ENDBRANCH  27  28
ENDBRANCH  25  27
ENDBRANCH  24  25
ENDBRANCH   2  24
TORSDOF 9
ENDMDL
MODEL 3
REMARK VINA RESULT:      -6.9      2.917      6.771
REMARK  Name = 
REMARK  10 active torsions:
REMARK  status: ('A' for Active; 'I' for Inactive)
REMARK    1  A    between atoms: C_1  and  C_2
REMARK    2  A    between atoms: C_10  and  C_11
REMARK    3  A    between atoms: C_11  and  C_12
REMARK    4  A    between atoms: C_13  and  O_14
REMARK    5  A    between atoms: O_14  and  C_15
REMARK    6  A    between atoms: C_15  and  C_17
REMARK    7  A    between atoms: C_17  and  C_18
REMARK    8  A    between atoms: C_18  and  C_19
REMARK    9  A    between atoms: C_19  and  C_20
REMARK   10  A    between atoms: C_20  and  O_22
REMARK                            x       y       z     vdW  Elec       q    Type
REMARK                         _______ _______ _______ _____ _____    ______ ____
ROOT
ATOM      1  C   UNL     1       4.054   5.365  18.868  0.00  0.00    +0.000 A 
ATOM      2  C   UNL     1       3.082   6.146  18.208  0.00  0.00    +0.000 A 
ATOM      3  C   UNL     1       1.857   5.590  17.817  0.00  0.00    +0.000 A 
ATOM      4  C   UNL     1       1.544   4.270  18.137  0.00  0.00    +0.000 A 
ATOM      5  C   UNL     1       2.472   3.482  18.809  0.00  0.00    +0.000 A 
ATOM      6  C   UNL     1       2.195   2.091  19.127  0.00  0.00    +0.000 A 
ATOM      7  C   UNL     1       3.150   1.333  19.673  0.00  0.00    +0.000 A 
ATOM      8  C   UNL     1       4.484   1.861  19.995  0.00  0.00    +0.000 A 
ATOM      9  O   UNL     1       5.359   1.128  20.440  0.00  0.00    +0.000 OA
ATOM     10  O   UNL     1       4.685   3.214  19.776  0.00  0.00    +0.000 OA
ATOM     11  C   UNL     1       3.709   4.031  19.154  0.00  0.00    +0.000 A 
ENDROOT
BRANCH   1  12
ATOM     12  C   UNL     1       5.442   5.848  19.181  0.00  0.00    +0.000 C 
BRANCH  12  22
ATOM     13  C   UNL     1       8.115   7.867  18.395  0.00  0.00    +0.000 C 
ATOM     14  C   UNL     1       7.371   6.831  17.631  0.00  0.00    +0.000 A 
ATOM     15  N   UNL     1       7.718   6.592  16.323  0.00  0.00    +0.000 N 
ATOM     16  C   UNL     1       6.987   5.555  15.803  0.00  0.00    +0.000 A 
ATOM     17  C   UNL     1       7.028   4.980  14.529  0.00  0.00    +0.000 A 
ATOM     18  C   UNL     1       6.211   3.871  14.288  0.00  0.00    +0.000 A 
ATOM     19  C   UNL     1       5.391   3.365  15.293  0.00  0.00    +0.000 A 
ATOM     20  C   UNL     1       5.346   3.970  16.554  0.00  0.00    +0.000 A 
ATOM     21  C   UNL     1       6.156   5.097  16.820  0.00  0.00    +0.000 A 
ATOM     22  C   UNL     1       6.323   5.971  17.960  0.00  0.00    +0.000 A 
ATOM     23  H   UNL     1       8.436   7.091  15.815  0.00  0.00    +0.000 HD
ENDBRANCH  12  22
ENDBRANCH   1  12
BRANCH   2  24
ATOM     24  O   UNL     1       3.387   7.494  17.881  0.00  0.00    +0.000 OA
BRANCH  24  25
ATOM     25  C   UNL     1       2.443   8.513  18.073  0.00  0.00    +0.000 C 
ATOM     26  O   UNL     1       2.067   9.325  17.235  0.00  0.00    +0.000 OA
BRANCH  25  27
ATOM     27  C   UNL     1       1.899   8.479  19.481  0.00  0.00    +0.000 C 
BRANCH  27  28
ATOM     28  C   UNL     1       0.659   9.354  19.669  0.00  0.00    +0.000 C 
BRANCH  28  29
ATOM     29  C   UNL     1       0.912  10.703  20.338  0.00  0.00    +0.000 C 
BRANCH  29  30
ATOM     30  C   UNL     1       0.518  11.895  19.498  0.00  0.00    +0.000 C 
ATOM     31  O   UNL     1       0.261  13.007  19.931  0.00  0.00    +0.000 OA
BRANCH  30  32
ATOM     32  O   UNL     1       0.472  11.604  18.179  0.00  0.00    +0.000 OA
ATOM     33  H   UNL     1       1.243  11.085  17.871  0.00  0.00    +0.000 HD
ENDBRANCH  30  32
ENDBRANCH  29  30
ENDBRANCH  28  29
ENDBRANCH  27  28
ENDBRANCH  25  27
ENDBRANCH  24  25
ENDBRANCH   2  24
TORSDOF 9
ENDMDL
MODEL 4
REMARK VINA RESULT:      -6.9      2.404      5.409
REMARK  Name = 
REMARK  10 active torsions:
REMARK  status: ('A' for Active; 'I' for Inactive)
REMARK    1  A    between atoms: C_1  and  C_2
REMARK    2  A    between atoms: C_10  and  C_11
REMARK    3  A    between atoms: C_11  and  C_12
REMARK    4  A    between atoms: C_13  and  O_14
REMARK    5  A    between atoms: O_14  and  C_15
REMARK    6  A    between atoms: C_15  and  C_17
REMARK    7  A    between atoms: C_17  and  C_18
REMARK    8  A    between atoms: C_18  and  C_19
REMARK    9  A    between atoms: C_19  and  C_20
REMARK   10  A    between atoms: C_20  and  O_22
REMARK                            x       y       z     vdW  Elec       q    Type
REMARK                         _______ _______ _______ _____ _____    ______ ____
ROOT
ATOM      1  C   UNL     1       3.591   5.271  18.069  0.00  0.00    +0.000 A 
ATOM      2  C   UNL     1       4.983   5.449  18.214  0.00  0.00    +0.000 A 
ATOM      3  C   UNL     1       5.803   4.392  18.632  0.00  0.00    +0.000 A 
ATOM      4  C   UNL     1       5.269   3.122  18.844  0.00  0.00    +0.000 A 
ATOM      5  C   UNL     1       3.904   2.910  18.685  0.00  0.00    +0.000 A 
ATOM      6  C   UNL     1       3.306   1.608  18.932  0.00  0.00    +0.000 A 
ATOM      7  C   UNL     1       1.979   1.468  18.878  0.00  0.00    +0.000 A 
ATOM      8  C   UNL     1       1.083   2.586  18.549  0.00  0.00    +0.000 A 
ATOM      9  O   UNL     1      -0.135   2.442  18.564  0.00  0.00    +0.000 OA
ATOM     10  O   UNL     1       1.687   3.788  18.217  0.00  0.00    +0.000 OA
ATOM     11  C   UNL     1       3.086   3.980  18.313  0.00  0.00    +0.000 A 
ENDROOT
BRANCH   1  12
ATOM     12  C   UNL     1       2.633   6.391  17.773  0.00  0.00    +0.000 C 
BRANCH  12  22
ATOM     13  C   UNL     1       2.179   5.443  21.049  0.00  0.00    +0.000 C 
ATOM     14  C   UNL     1       1.939   6.718  20.322  0.00  0.00    +0.000 A 
ATOM     15  N   UNL     1       1.383   7.776  21.001  0.00  0.00    +0.000 N 
ATOM     16  C   UNL     1       1.310   8.887  20.203  0.00  0.00    +0.000 A 
ATOM     17  C   UNL     1       0.832  10.170  20.492  0.00  0.00    +0.000 A 
ATOM     18  C   UNL     1       0.944  11.146  19.499  0.00  0.00    +0.000 A 
ATOM     19  C   UNL     1       1.518  10.841  18.268  0.00  0.00    +0.000 A 
ATOM     20  C   UNL     1       1.970   9.546  17.989  0.00  0.00    +0.000 A 
ATOM     21  C   UNL     1       1.859   8.538  18.973  0.00  0.00    +0.000 A 
ATOM     22  C   UNL     1       2.171   7.126  19.009  0.00  0.00    +0.000 A 
ATOM     23  H   UNL     1       1.092   7.753  21.970  0.00  0.00    +0.000 HD
ENDBRANCH  12  22
ENDBRANCH   1  12
BRANCH   2  24
ATOM     24  O   UNL     1       5.540   6.737  17.997  0.00  0.00    +0.000 OA
BRANCH  24  25
ATOM     25  C   UNL     1       6.349   6.993  16.880  0.00  0.00    +0.000 C 
ATOM     26  O   UNL     1       7.330   7.725  16.844  0.00  0.00    +0.000 OA
BRANCH  25  27
ATOM     27  C   UNL     1       5.867   6.211  15.682  0.00  0.00    +0.000 C 
BRANCH  27  28
ATOM     28  C   UNL     1       6.821   5.089  15.272  0.00  0.00    +0.000 C 
BRANCH  28  29
ATOM     29  C   UNL     1       6.176   3.930  14.516  0.00  0.00    +0.000 C 
BRANCH  29  30
ATOM     30  C   UNL     1       6.432   3.941  13.028  0.00  0.00    +0.000 C 
ATOM     31  O   UNL     1       7.347   4.530  12.475  0.00  0.00    +0.000 OA
BRANCH  30  32
ATOM     32  O   UNL     1       5.522   3.214  12.343  0.00  0.00    +0.000 OA
ATOM     33  H   UNL     1       5.480   2.278  12.628  0.00  0.00    +0.000 HD
ENDBRANCH  30  32
ENDBRANCH  29  30
ENDBRANCH  28  29
ENDBRANCH  27  28
ENDBRANCH  25  27
ENDBRANCH  24  25
ENDBRANCH   2  24
TORSDOF 9
ENDMDL
MODEL 5
REMARK VINA RESULT:      -6.8      2.360      5.969
REMARK  Name = 
REMARK  10 active torsions:
REMARK  status: ('A' for Active; 'I' for Inactive)
REMARK    1  A    between atoms: C_1  and  C_2
REMARK    2  A    between atoms: C_10  and  C_11
REMARK    3  A    between atoms: C_11  and  C_12
REMARK    4  A    between atoms: C_13  and  O_14
REMARK    5  A    between atoms: O_14  and  C_15
REMARK    6  A    between atoms: C_15  and  C_17
REMARK    7  A    between atoms: C_17  and  C_18
REMARK    8  A    between atoms: C_18  and  C_19
REMARK    9  A    between atoms: C_19  and  C_20
REMARK   10  A    between atoms: C_20  and  O_22
REMARK                            x       y       z     vdW  Elec       q    Type
REMARK                         _______ _______ _______ _____ _____    ______ ____
ROOT
ATOM      1  C   UNL     1       3.854   5.480  17.949  0.00  0.00    +0.000 A 
ATOM      2  C   UNL     1       5.247   5.642  18.100  0.00  0.00    +0.000 A 
ATOM      3  C   UNL     1       6.054   4.575  18.515  0.00  0.00    +0.000 A 
ATOM      4  C   UNL     1       5.506   3.309  18.718  0.00  0.00    +0.000 A 
ATOM      5  C   UNL     1       4.139   3.112  18.553  0.00  0.00    +0.000 A 
ATOM      6  C   UNL     1       3.527   1.815  18.792  0.00  0.00    +0.000 A 
ATOM      7  C   UNL     1       2.199   1.689  18.732  0.00  0.00    +0.000 A 
ATOM      8  C   UNL     1       1.316   2.818  18.405  0.00  0.00    +0.000 A 
ATOM      9  O   UNL     1       0.097   2.687  18.416  0.00  0.00    +0.000 OA
ATOM     10  O   UNL     1       1.934   4.016  18.083  0.00  0.00    +0.000 OA
ATOM     11  C   UNL     1       3.335   4.193  18.185  0.00  0.00    +0.000 A 
ENDROOT
BRANCH   1  12
ATOM     12  C   UNL     1       2.908   6.611  17.656  0.00  0.00    +0.000 C 
BRANCH  12  22
ATOM     13  C   UNL     1       2.383   5.497  20.869  0.00  0.00    +0.000 C 
ATOM     14  C   UNL     1       2.092   6.785  20.184  0.00  0.00    +0.000 A 
ATOM     15  N   UNL     1       1.443   7.776  20.880  0.00  0.00    +0.000 N 
ATOM     16  C   UNL     1       1.332   8.915  20.125  0.00  0.00    +0.000 A 
ATOM     17  C   UNL     1       0.762  10.151  20.445  0.00  0.00    +0.000 A 
ATOM     18  C   UNL     1       0.851  11.175  19.496  0.00  0.00    +0.000 A 
ATOM     19  C   UNL     1       1.493  10.958  18.280  0.00  0.00    +0.000 A 
ATOM     20  C   UNL     1       2.037   9.706  17.969  0.00  0.00    +0.000 A 
ATOM     21  C   UNL     1       1.951   8.653  18.907  0.00  0.00    +0.000 A 
ATOM     22  C   UNL     1       2.351   7.263  18.900  0.00  0.00    +0.000 A 
ATOM     23  H   UNL     1       1.115   7.694  21.834  0.00  0.00    +0.000 HD
ENDBRANCH  12  22
ENDBRANCH   1  12
BRANCH   2  24
ATOM     24  O   UNL     1       5.818   6.925  17.893  0.00  0.00    +0.000 OA
BRANCH  24  25
ATOM     25  C   UNL     1       7.109   7.062  17.360  0.00  0.00    +0.000 C 
ATOM     26  O   UNL     1       7.498   6.638  16.279  0.00  0.00    +0.000 OA
BRANCH  25  27
ATOM     27  C   UNL     1       7.993   7.846  18.299  0.00  0.00    +0.000 C 
BRANCH  27  28
ATOM     28  C   UNL     1       8.015   9.344  17.996  0.00  0.00    +0.000 C 
BRANCH  28  29
ATOM     29  C   UNL     1       9.329  10.053  18.316  0.00  0.00    +0.000 C 
BRANCH  29  30
ATOM     30  C   UNL     1       9.269  10.953  19.528  0.00  0.00    +0.000 C 
ATOM     31  O   UNL     1       9.121  12.164  19.499  0.00  0.00    +0.000 OA
BRANCH  30  32
ATOM     32  O   UNL     1       9.401  10.268  20.685  0.00  0.00    +0.000 OA
ATOM     33  H   UNL     1      10.161  10.566  21.227  0.00  0.00    +0.000 HD
ENDBRANCH  30  32
ENDBRANCH  29  30
ENDBRANCH  28  29
ENDBRANCH  27  28
ENDBRANCH  25  27
ENDBRANCH  24  25
ENDBRANCH   2  24
TORSDOF 9
ENDMDL
MODEL 6
REMARK VINA RESULT:      -6.7      4.963      9.725
REMARK  Name = 
REMARK  10 active torsions:
REMARK  status: ('A' for Active; 'I' for Inactive)
REMARK    1  A    between atoms: C_1  and  C_2
REMARK    2  A    between atoms: C_10  and  C_11
REMARK    3  A    between atoms: C_11  and  C_12
REMARK    4  A    between atoms: C_13  and  O_14
REMARK    5  A    between atoms: O_14  and  C_15
REMARK    6  A    between atoms: C_15  and  C_17
REMARK    7  A    between atoms: C_17  and  C_18
REMARK    8  A    between atoms: C_18  and  C_19
REMARK    9  A    between atoms: C_19  and  C_20
REMARK   10  A    between atoms: C_20  and  O_22
REMARK                            x       y       z     vdW  Elec       q    Type
REMARK                         _______ _______ _______ _____ _____    ______ ____
ROOT
ATOM      1  C   UNL     1       0.045  11.149  19.345  0.00  0.00    +0.000 A 
ATOM      2  C   UNL     1       0.174  12.077  20.400  0.00  0.00    +0.000 A 
ATOM      3  C   UNL     1      -0.907  12.881  20.786  0.00  0.00    +0.000 A 
ATOM      4  C   UNL     1      -2.154  12.729  20.182  0.00  0.00    +0.000 A 
ATOM      5  C   UNL     1      -2.319  11.805  19.156  0.00  0.00    +0.000 A 
ATOM      6  C   UNL     1      -3.595  11.645  18.479  0.00  0.00    +0.000 A 
ATOM      7  C   UNL     1      -3.688  10.830  17.426  0.00  0.00    +0.000 A 
ATOM      8  C   UNL     1      -2.542  10.054  16.928  0.00  0.00    +0.000 A 
ATOM      9  O   UNL     1      -2.642   9.358  15.924  0.00  0.00    +0.000 OA
ATOM     10  O   UNL     1      -1.366  10.148  17.656  0.00  0.00    +0.000 OA
ATOM     11  C   UNL     1      -1.224  11.041  18.746  0.00  0.00    +0.000 A 
ENDROOT
BRANCH   1  12
ATOM     12  C   UNL     1       1.195  10.365  18.777  0.00  0.00    +0.000 C 
BRANCH  12  22
ATOM     13  C   UNL     1      -0.086   8.957  21.644  0.00  0.00    +0.000 C 
ATOM     14  C   UNL     1       0.926   8.497  20.655  0.00  0.00    +0.000 A 
ATOM     15  N   UNL     1       1.568   7.301  20.869  0.00  0.00    +0.000 N 
ATOM     16  C   UNL     1       2.402   6.998  19.824  0.00  0.00    +0.000 A 
ATOM     17  C   UNL     1       3.223   5.883  19.626  0.00  0.00    +0.000 A 
ATOM     18  C   UNL     1       3.923   5.796  18.418  0.00  0.00    +0.000 A 
ATOM     19  C   UNL     1       3.793   6.789  17.452  0.00  0.00    +0.000 A 
ATOM     20  C   UNL     1       2.984   7.909  17.679  0.00  0.00    +0.000 A 
ATOM     21  C   UNL     1       2.275   8.026  18.895  0.00  0.00    +0.000 A 
ATOM     22  C   UNL     1       1.410   9.036  19.464  0.00  0.00    +0.000 A 
ATOM     23  H   UNL     1       1.427   6.704  21.673  0.00  0.00    +0.000 HD
ENDBRANCH  12  22
ENDBRANCH   1  12
BRANCH   2  24
ATOM     24  O   UNL     1       1.438  12.238  21.026  0.00  0.00    +0.000 OA
BRANCH  24  25
ATOM     25  C   UNL     1       2.102  13.474  21.001  0.00  0.00    +0.000 C 
ATOM     26  O   UNL     1       2.206  14.263  21.932  0.00  0.00    +0.000 OA
BRANCH  25  27
ATOM     27  C   UNL     1       2.723  13.719  19.647  0.00  0.00    +0.000 C 
BRANCH  27  28
ATOM     28  C   UNL     1       1.840  14.558  18.722  0.00  0.00    +0.000 C 
BRANCH  28  29
ATOM     29  C   UNL     1       1.709  16.029  19.108  0.00  0.00    +0.000 C 
BRANCH  29  30
ATOM     30  C   UNL     1       3.025  16.720  19.378  0.00  0.00    +0.000 C 
ATOM     31  O   UNL     1       3.810  17.097  18.523  0.00  0.00    +0.000 OA
BRANCH  30  32
ATOM     32  O   UNL     1       3.259  16.884  20.698  0.00  0.00    +0.000 OA
ATOM     33  H   UNL     1       3.966  17.535  20.888  0.00  0.00    +0.000 HD
ENDBRANCH  30  32
ENDBRANCH  29  30
ENDBRANCH  28  29
ENDBRANCH  27  28
ENDBRANCH  25  27
ENDBRANCH  24  25
ENDBRANCH   2  24
TORSDOF 9
ENDMDL
MODEL 7
REMARK VINA RESULT:      -6.7      5.989      9.557
REMARK  Name = 
REMARK  10 active torsions:
REMARK  status: ('A' for Active; 'I' for Inactive)
REMARK    1  A    between atoms: C_1  and  C_2
REMARK    2  A    between atoms: C_10  and  C_11
REMARK    3  A    between atoms: C_11  and  C_12
REMARK    4  A    between atoms: C_13  and  O_14
REMARK    5  A    between atoms: O_14  and  C_15
REMARK    6  A    between atoms: C_15  and  C_17
REMARK    7  A    between atoms: C_17  and  C_18
REMARK    8  A    between atoms: C_18  and  C_19
REMARK    9  A    between atoms: C_19  and  C_20
REMARK   10  A    between atoms: C_20  and  O_22
REMARK                            x       y       z     vdW  Elec       q    Type
REMARK                         _______ _______ _______ _____ _____    ______ ____
ROOT
ATOM      1  C   UNL     1      -0.629  11.257  20.620  0.00  0.00    +0.000 A 
ATOM      2  C   UNL     1      -1.110  11.338  21.944  0.00  0.00    +0.000 A 
ATOM      3  C   UNL     1      -0.754  10.377  22.899  0.00  0.00    +0.000 A 
ATOM      4  C   UNL     1       0.142   9.358  22.578  0.00  0.00    +0.000 A 
ATOM      5  C   UNL     1       0.653   9.266  21.288  0.00  0.00    +0.000 A 
ATOM      6  C   UNL     1       1.560   8.196  20.907  0.00  0.00    +0.000 A 
ATOM      7  C   UNL     1       1.943   8.073  19.634  0.00  0.00    +0.000 A 
ATOM      8  C   UNL     1       1.498   9.005  18.586  0.00  0.00    +0.000 A 
ATOM      9  O   UNL     1       1.817   8.833  17.415  0.00  0.00    +0.000 OA
ATOM     10  O   UNL     1       0.717  10.073  18.997  0.00  0.00    +0.000 OA
ATOM     11  C   UNL     1       0.256  10.201  20.329  0.00  0.00    +0.000 A 
ENDROOT
BRANCH   1  12
ATOM     12  C   UNL     1      -1.086  12.160  19.508  0.00  0.00    +0.000 C 
BRANCH  12  22
ATOM     13  C   UNL     1      -1.831   9.874  17.046  0.00  0.00    +0.000 C 
ATOM     14  C   UNL     1      -2.664  10.824  17.831  0.00  0.00    +0.000 A 
ATOM     15  N   UNL     1      -4.008  10.912  17.558  0.00  0.00    +0.000 N 
ATOM     16  C   UNL     1      -4.630  11.771  18.426  0.00  0.00    +0.000 A 
ATOM     17  C   UNL     1      -5.977  12.139  18.513  0.00  0.00    +0.000 A 
ATOM     18  C   UNL     1      -6.353  12.991  19.555  0.00  0.00    +0.000 A 
ATOM     19  C   UNL     1      -5.410  13.449  20.471  0.00  0.00    +0.000 A 
ATOM     20  C   UNL     1      -4.062  13.089  20.353  0.00  0.00    +0.000 A 
ATOM     21  C   UNL     1      -3.655  12.236  19.302  0.00  0.00    +0.000 A 
ATOM     22  C   UNL     1      -2.378  11.714  18.867  0.00  0.00    +0.000 A 
ATOM     23  H   UNL     1      -4.486  10.393  16.834  0.00  0.00    +0.000 HD
ENDBRANCH  12  22
ENDBRANCH   1  12
BRANCH   2  24
ATOM     24  O   UNL     1      -2.020  12.374  22.284  0.00  0.00    +0.000 OA
BRANCH  24  25
ATOM     25  C   UNL     1      -1.767  13.228  23.367  0.00  0.00    +0.000 C 
ATOM     26  O   UNL     1      -0.697  13.759  23.641  0.00  0.00    +0.000 OA
BRANCH  25  27
ATOM     27  C   UNL     1      -3.021  13.450  24.177  0.00  0.00    +0.000 C 
BRANCH  27  28
ATOM     28  C   UNL     1      -4.063  12.347  23.987  0.00  0.00    +0.000 C 
BRANCH  28  29
ATOM     29  C   UNL     1      -5.325  12.492  24.835  0.00  0.00    +0.000 C 
BRANCH  29  30
ATOM     30  C   UNL     1      -6.567  12.829  24.047  0.00  0.00    +0.000 C 
ATOM     31  O   UNL     1      -7.063  13.940  23.955  0.00  0.00    +0.000 OA
BRANCH  30  32
ATOM     32  O   UNL     1      -7.097  11.748  23.433  0.00  0.00    +0.000 OA
ATOM     33  H   UNL     1      -7.537  11.129  24.052  0.00  0.00    +0.000 HD
ENDBRANCH  30  32
ENDBRANCH  29  30
ENDBRANCH  28  29
ENDBRANCH  27  28
ENDBRANCH  25  27
ENDBRANCH  24  25
ENDBRANCH   2  24
TORSDOF 9
ENDMDL
MODEL 8
REMARK VINA RESULT:      -6.6      5.933     10.482
REMARK  Name = 
REMARK  10 active torsions:
REMARK  status: ('A' for Active; 'I' for Inactive)
REMARK    1  A    between atoms: C_1  and  C_2
REMARK    2  A    between atoms: C_10  and  C_11
REMARK    3  A    between atoms: C_11  and  C_12
REMARK    4  A    between atoms: C_13  and  O_14
REMARK    5  A    between atoms: O_14  and  C_15
REMARK    6  A    between atoms: C_15  and  C_17
REMARK    7  A    between atoms: C_17  and  C_18
REMARK    8  A    between atoms: C_18  and  C_19
REMARK    9  A    between atoms: C_19  and  C_20
REMARK   10  A    between atoms: C_20  and  O_22
REMARK                            x       y       z     vdW  Elec       q    Type
REMARK                         _______ _______ _______ _____ _____    ______ ____
ROOT
ATOM      1  C   UNL     1      -2.561  12.708  20.244  0.00  0.00    +0.000 A 
ATOM      2  C   UNL     1      -3.372  12.200  19.208  0.00  0.00    +0.000 A 
ATOM      3  C   UNL     1      -4.766  12.154  19.342  0.00  0.00    +0.000 A 
ATOM      4  C   UNL     1      -5.386  12.677  20.476  0.00  0.00    +0.000 A 
ATOM      5  C   UNL     1      -4.614  13.208  21.505  0.00  0.00    +0.000 A 
ATOM      6  C   UNL     1      -5.224  13.728  22.717  0.00  0.00    +0.000 A 
ATOM      7  C   UNL     1      -4.449  14.126  23.729  0.00  0.00    +0.000 A 
ATOM      8  C   UNL     1      -2.981  14.084  23.660  0.00  0.00    +0.000 A 
ATOM      9  O   UNL     1      -2.296  14.400  24.626  0.00  0.00    +0.000 OA
ATOM     10  O   UNL     1      -2.429  13.680  22.455  0.00  0.00    +0.000 OA
ATOM     11  C   UNL     1      -3.223  13.206  21.383  0.00  0.00    +0.000 A 
ENDROOT
BRANCH   1  12
ATOM     12  C   UNL     1      -1.059  12.649  20.235  0.00  0.00    +0.000 C 
BRANCH  12  22
ATOM     13  C   UNL     1      -1.282  10.892  23.185  0.00  0.00    +0.000 C 
ATOM     14  C   UNL     1      -0.561  10.640  21.908  0.00  0.00    +0.000 A 
ATOM     15  N   UNL     1       0.242   9.529  21.807  0.00  0.00    +0.000 N 
ATOM     16  C   UNL     1       0.759   9.411  20.543  0.00  0.00    +0.000 A 
ATOM     17  C   UNL     1       1.603   8.433  20.007  0.00  0.00    +0.000 A 
ATOM     18  C   UNL     1       1.922   8.521  18.649  0.00  0.00    +0.000 A 
ATOM     19  C   UNL     1       1.408   9.552  17.867  0.00  0.00    +0.000 A 
ATOM     20  C   UNL     1       0.584  10.535  18.427  0.00  0.00    +0.000 A 
ATOM     21  C   UNL     1       0.255  10.473  19.800  0.00  0.00    +0.000 A 
ATOM     22  C   UNL     1      -0.509  11.319  20.691  0.00  0.00    +0.000 A 
ATOM     23  H   UNL     1       0.408   8.866  22.552  0.00  0.00    +0.000 HD
ENDBRANCH  12  22
ENDBRANCH   1  12
BRANCH   2  24
ATOM     24  O   UNL     1      -2.753  11.668  18.046  0.00  0.00    +0.000 OA
BRANCH  24  25
ATOM     25  C   UNL     1      -3.198  10.464  17.479  0.00  0.00    +0.000 C 
ATOM     26  O   UNL     1      -3.013   9.338  17.925  0.00  0.00    +0.000 OA
BRANCH  25  27
ATOM     27  C   UNL     1      -3.987  10.727  16.219  0.00  0.00    +0.000 C 
BRANCH  27  28
ATOM     28  C   UNL     1      -3.187  10.466  14.943  0.00  0.00    +0.000 C 
BRANCH  28  29
ATOM     29  C   UNL     1      -4.023  10.141  13.707  0.00  0.00    +0.000 C 
BRANCH  29  30
ATOM     30  C   UNL     1      -3.216   9.702  12.509  0.00  0.00    +0.000 C 
ATOM     31  O   UNL     1      -2.050   9.344  12.539  0.00  0.00    +0.000 OA
BRANCH  30  32
ATOM     32  O   UNL     1      -3.929   9.746  11.362  0.00  0.00    +0.000 OA
ATOM     33  H   UNL     1      -3.734  10.535  10.815  0.00  0.00    +0.000 HD
ENDBRANCH  30  32
ENDBRANCH  29  30
ENDBRANCH  28  29
ENDBRANCH  27  28
ENDBRANCH  25  27
ENDBRANCH  24  25
ENDBRANCH   2  24
TORSDOF 9
ENDMDL
MODEL 9
REMARK VINA RESULT:      -6.6      5.642      9.845
REMARK  Name = 
REMARK  10 active torsions:
REMARK  status: ('A' for Active; 'I' for Inactive)
REMARK    1  A    between atoms: C_1  and  C_2
REMARK    2  A    between atoms: C_10  and  C_11
REMARK    3  A    between atoms: C_11  and  C_12
REMARK    4  A    between atoms: C_13  and  O_14
REMARK    5  A    between atoms: O_14  and  C_15
REMARK    6  A    between atoms: C_15  and  C_17
REMARK    7  A    between atoms: C_17  and  C_18
REMARK    8  A    between atoms: C_18  and  C_19
REMARK    9  A    between atoms: C_19  and  C_20
REMARK   10  A    between atoms: C_20  and  O_22
REMARK                            x       y       z     vdW  Elec       q    Type
REMARK                         _______ _______ _______ _____ _____    ______ ____
ROOT
ATOM      1  C   UNL     1      -1.117  12.294  19.656  0.00  0.00    +0.000 A 
ATOM      2  C   UNL     1      -2.428  11.900  19.315  0.00  0.00    +0.000 A 
ATOM      3  C   UNL     1      -3.538  12.460  19.961  0.00  0.00    +0.000 A 
ATOM      4  C   UNL     1      -3.372  13.472  20.905  0.00  0.00    +0.000 A 
ATOM      5  C   UNL     1      -2.094  13.899  21.245  0.00  0.00    +0.000 A 
ATOM      6  C   UNL     1      -1.881  14.926  22.252  0.00  0.00    +0.000 A 
ATOM      7  C   UNL     1      -0.638  15.232  22.634  0.00  0.00    +0.000 A 
ATOM      8  C   UNL     1       0.546  14.583  22.051  0.00  0.00    +0.000 A 
ATOM      9  O   UNL     1       1.671  14.842  22.462  0.00  0.00    +0.000 OA
ATOM     10  O   UNL     1       0.316  13.683  21.022  0.00  0.00    +0.000 OA
ATOM     11  C   UNL     1      -0.990  13.303  20.630  0.00  0.00    +0.000 A 
ENDROOT
BRANCH   1  12
ATOM     12  C   UNL     1       0.121  11.634  19.118  0.00  0.00    +0.000 C 
BRANCH  12  22
ATOM     13  C   UNL     1      -0.548  10.431  22.271  0.00  0.00    +0.000 C 
ATOM     14  C   UNL     1       0.244   9.897  21.131  0.00  0.00    +0.000 A 
ATOM     15  N   UNL     1       0.919   8.710  21.290  0.00  0.00    +0.000 N 
ATOM     16  C   UNL     1       1.524   8.330  20.120  0.00  0.00    +0.000 A 
ATOM     17  C   UNL     1       2.292   7.196  19.835  0.00  0.00    +0.000 A 
ATOM     18  C   UNL     1       2.732   7.022  18.519  0.00  0.00    +0.000 A 
ATOM     19  C   UNL     1       2.407   7.951  17.535  0.00  0.00    +0.000 A 
ATOM     20  C   UNL     1       1.657   9.092  17.846  0.00  0.00    +0.000 A 
ATOM     21  C   UNL     1       1.209   9.296  19.170  0.00  0.00    +0.000 A 
ATOM     22  C   UNL     1       0.475  10.351  19.833  0.00  0.00    +0.000 A 
ATOM     23  H   UNL     1       0.945   8.169  22.144  0.00  0.00    +0.000 HD
ENDBRANCH  12  22
ENDBRANCH   1  12
BRANCH   2  24
ATOM     24  O   UNL     1      -2.610  10.874  18.351  0.00  0.00    +0.000 OA
BRANCH  24  25
ATOM     25  C   UNL     1      -3.378  11.096  17.198  0.00  0.00    +0.000 C 
ATOM     26  O   UNL     1      -4.357  11.827  17.106  0.00  0.00    +0.000 OA
BRANCH  25  27
ATOM     27  C   UNL     1      -2.823  10.319  16.029  0.00  0.00    +0.000 C 
BRANCH  27  28
ATOM     28  C   UNL     1      -3.728  10.356  14.797  0.00  0.00    +0.000 C 
BRANCH  28  29
ATOM     29  C   UNL     1      -3.115   9.783  13.522  0.00  0.00    +0.000 C 
BRANCH  29  30
ATOM     30  C   UNL     1      -4.077   9.679  12.363  0.00  0.00    +0.000 C 
ATOM     31  O   UNL     1      -5.273   9.460  12.458  0.00  0.00    +0.000 OA
BRANCH  30  32
ATOM     32  O   UNL     1      -3.467   9.856  11.170  0.00  0.00    +0.000 OA
ATOM     33  H   UNL     1      -4.004  10.372  10.534  0.00  0.00    +0.000 HD
ENDBRANCH  30  32
ENDBRANCH  29  30
ENDBRANCH  28  29
ENDBRANCH  27  28
ENDBRANCH  25  27
ENDBRANCH  24  25
ENDBRANCH   2  24
TORSDOF 9
ENDMDL
