MODEL 1
REMARK VINA RESULT:      -7.0      0.000      0.000
REMARK  Name = 
REMARK  4 active torsions:
REMARK  status: ('A' for Active; 'I' for Inactive)
REMARK    1  A    between atoms: C_1  and  N_2
REMARK    2  A    between atoms: C_5  and  N_6
REMARK    3  A    between atoms: N_6  and  C_7
REMARK    4  A    between atoms: C_8  and  C_10
REMARK                            x       y       z     vdW  Elec       q    Type
REMARK                         _______ _______ _______ _____ _____    ______ ____
ROOT
ATOM      1  N   UNL     1       1.548   8.570  19.548  0.00  0.00    +0.000 N 
ATOM      2  C   UNL     1       1.549   7.701  20.721  0.00  0.00    +0.000 C 
ATOM      3  C   UNL     1       2.128   8.239  18.301  0.00  0.00    +0.000 C 
ATOM      4  O   UNL     1       2.166   9.035  17.363  0.00  0.00    +0.000 OA
ENDROOT
BRANCH   3   5
ATOM      5  C   UNL     1       2.768   6.895  18.059  0.00  0.00    +0.000 A 
ATOM      6  C   UNL     1       4.148   6.723  17.820  0.00  0.00    +0.000 A 
ATOM      7  C   UNL     1       4.689   5.476  17.493  0.00  0.00    +0.000 A 
ATOM      8  C   UNL     1       3.856   4.385  17.541  0.00  0.00    +0.000 A 
ATOM      9  C   UNL     1       2.520   4.497  17.886  0.00  0.00    +0.000 A 
ATOM     10  C   UNL     1       1.952   5.744  18.120  0.00  0.00    +0.000 A 
ATOM     11  C   UNL     1       1.919   3.142  17.897  0.00  0.00    +0.000 C 
ATOM     12  C   UNL     1       3.205   2.307  17.862  0.00  0.00    +0.000 C 
ATOM     13  O   UNL     1       4.263   3.103  17.286  0.00  0.00    +0.000 OA
ENDBRANCH   3   5
BRANCH   1  18
ATOM     14  C   UNL     1      -1.932  12.914  20.834  0.00  0.00    +0.000 C 
ATOM     15  N   UNL     1      -1.245  11.637  20.626  0.00  0.00    +0.000 NA
ATOM     16  C   UNL     1      -1.059  11.380  19.191  0.00  0.00    +0.000 C 
ATOM     17  C   UNL     1      -0.411  10.015  18.958  0.00  0.00    +0.000 C 
ATOM     18  C   UNL     1       0.925   9.907  19.711  0.00  0.00    +0.000 C 
ATOM     19  C   UNL     1       0.744  10.284  21.188  0.00  0.00    +0.000 C 
ATOM     20  C   UNL     1       0.041  11.630  21.337  0.00  0.00    +0.000 C 
ENDBRANCH   1  18
TORSDOF 2
ENDMDL
MODEL 2
REMARK VINA RESULT:      -6.9      0.796      1.805
REMARK  Name = 
REMARK  4 active torsions:
REMARK  status: ('A' for Active; 'I' for Inactive)
REMARK    1  A    between atoms: C_1  and  N_2
REMARK    2  A    between atoms: C_5  and  N_6
REMARK    3  A    between atoms: N_6  and  C_7
REMARK    4  A    between atoms: C_8  and  C_10
REMARK                            x       y       z     vdW  Elec       q    Type
REMARK                         _______ _______ _______ _____ _____    ______ ____
ROOT
ATOM      1  N   UNL     1       1.496   8.785  19.519  0.00  0.00    +0.000 N 
ATOM      2  C   UNL     1       1.558   7.877  20.662  0.00  0.00    +0.000 C 
ATOM      3  C   UNL     1       2.057   8.518  18.248  0.00  0.00    +0.000 C 
ATOM      4  O   UNL     1       2.042   9.346  17.338  0.00  0.00    +0.000 OA
ENDROOT
BRANCH   3   5
ATOM      5  C   UNL     1       2.740   7.208  17.945  0.00  0.00    +0.000 A 
ATOM      6  C   UNL     1       2.123   5.951  18.120  0.00  0.00    +0.000 A 
ATOM      7  C   UNL     1       2.821   4.755  17.932  0.00  0.00    +0.000 A 
ATOM      8  C   UNL     1       4.100   4.832  17.438  0.00  0.00    +0.000 A 
ATOM      9  C   UNL     1       4.700   6.045  17.142  0.00  0.00    +0.000 A 
ATOM     10  C   UNL     1       4.048   7.242  17.414  0.00  0.00    +0.000 A 
ATOM     11  C   UNL     1       6.046   5.782  16.579  0.00  0.00    +0.000 C 
ATOM     12  C   UNL     1       5.903   4.281  16.302  0.00  0.00    +0.000 C 
ATOM     13  O   UNL     1       4.881   3.740  17.167  0.00  0.00    +0.000 OA
ENDBRANCH   3   5
BRANCH   1  18
ATOM     14  C   UNL     1      -2.030  12.966  21.170  0.00  0.00    +0.000 C 
ATOM     15  N   UNL     1      -1.306  11.723  20.894  0.00  0.00    +0.000 NA
ATOM     16  C   UNL     1      -1.278  11.453  19.449  0.00  0.00    +0.000 C 
ATOM     17  C   UNL     1      -0.592  10.119  19.153  0.00  0.00    +0.000 C 
ATOM     18  C   UNL     1       0.827  10.091  19.743  0.00  0.00    +0.000 C 
ATOM     19  C   UNL     1       0.803  10.481  21.227  0.00  0.00    +0.000 C 
ATOM     20  C   UNL     1       0.054  11.791  21.447  0.00  0.00    +0.000 C 
ENDBRANCH   1  18
TORSDOF 2
ENDMDL
MODEL 3
REMARK VINA RESULT:      -6.5      1.058      1.204
REMARK  Name = 
REMARK  4 active torsions:
REMARK  status: ('A' for Active; 'I' for Inactive)
REMARK    1  A    between atoms: C_1  and  N_2
REMARK    2  A    between atoms: C_5  and  N_6
REMARK    3  A    between atoms: N_6  and  C_7
REMARK    4  A    between atoms: C_8  and  C_10
REMARK                            x       y       z     vdW  Elec       q    Type
REMARK                         _______ _______ _______ _____ _____    ______ ____
ROOT
ATOM      1  N   UNL     1       1.386   8.790  19.783  0.00  0.00    +0.000 N 
ATOM      2  C   UNL     1       1.626   7.874  20.895  0.00  0.00    +0.000 C 
ATOM      3  C   UNL     1       1.852   8.592  18.462  0.00  0.00    +0.000 C 
ATOM      4  O   UNL     1       1.687   9.429  17.576  0.00  0.00    +0.000 OA
ENDROOT
BRANCH   3   5
ATOM      5  C   UNL     1       2.613   7.350  18.071  0.00  0.00    +0.000 A 
ATOM      6  C   UNL     1       3.956   7.366  17.637  0.00  0.00    +0.000 A 
ATOM      7  C   UNL     1       4.595   6.210  17.179  0.00  0.00    +0.000 A 
ATOM      8  C   UNL     1       3.921   5.019  17.289  0.00  0.00    +0.000 A 
ATOM      9  C   UNL     1       2.643   4.946  17.819  0.00  0.00    +0.000 A 
ATOM     10  C   UNL     1       1.964   6.102  18.189  0.00  0.00    +0.000 A 
ATOM     11  C   UNL     1       2.223   3.525  17.849  0.00  0.00    +0.000 C 
ATOM     12  C   UNL     1       3.585   2.866  17.597  0.00  0.00    +0.000 C 
ATOM     13  O   UNL     1       4.444   3.809  16.920  0.00  0.00    +0.000 OA
ENDBRANCH   3   5
BRANCH   1  18
ATOM     14  C   UNL     1      -0.652  13.544  22.207  0.00  0.00    +0.000 C 
ATOM     15  N   UNL     1       0.038  12.312  21.820  0.00  0.00    +0.000 NA
ATOM     16  C   UNL     1      -0.918  11.200  21.707  0.00  0.00    +0.000 C 
ATOM     17  C   UNL     1      -0.199   9.891  21.379  0.00  0.00    +0.000 C 
ATOM     18  C   UNL     1       0.633  10.030  20.094  0.00  0.00    +0.000 C 
ATOM     19  C   UNL     1       1.550  11.259  20.175  0.00  0.00    +0.000 C 
ATOM     20  C   UNL     1       0.770  12.511  20.561  0.00  0.00    +0.000 C 
ENDBRANCH   1  18
TORSDOF 2
ENDMDL
MODEL 4
REMARK VINA RESULT:      -6.4      1.743      2.938
REMARK  Name = 
REMARK  4 active torsions:
REMARK  status: ('A' for Active; 'I' for Inactive)
REMARK    1  A    between atoms: C_1  and  N_2
REMARK    2  A    between atoms: C_5  and  N_6
REMARK    3  A    between atoms: N_6  and  C_7
REMARK    4  A    between atoms: C_8  and  C_10
REMARK                            x       y       z     vdW  Elec       q    Type
REMARK                         _______ _______ _______ _____ _____    ______ ____
ROOT
ATOM      1  N   UNL     1       1.942   7.855  19.189  0.00  0.00    +0.000 N 
ATOM      2  C   UNL     1       2.411   8.637  18.048  0.00  0.00    +0.000 C 
ATOM      3  C   UNL     1       2.301   6.511  19.445  0.00  0.00    +0.000 C 
ATOM      4  O   UNL     1       1.822   5.871  20.380  0.00  0.00    +0.000 OA
ENDROOT
BRANCH   3   5
ATOM      5  C   UNL     1       3.271   5.770  18.560  0.00  0.00    +0.000 A 
ATOM      6  C   UNL     1       2.898   4.690  17.730  0.00  0.00    +0.000 A 
ATOM      7  C   UNL     1       3.842   3.958  17.006  0.00  0.00    +0.000 A 
ATOM      8  C   UNL     1       5.141   4.403  17.015  0.00  0.00    +0.000 A 
ATOM      9  C   UNL     1       5.525   5.529  17.723  0.00  0.00    +0.000 A 
ATOM     10  C   UNL     1       4.613   6.208  18.522  0.00  0.00    +0.000 A 
ATOM     11  C   UNL     1       6.968   5.770  17.483  0.00  0.00    +0.000 C 
ATOM     12  C   UNL     1       7.174   4.832  16.287  0.00  0.00    +0.000 C 
ATOM     13  O   UNL     1       6.157   3.807  16.316  0.00  0.00    +0.000 OA
ENDBRANCH   3   5
BRANCH   1  18
ATOM     14  C   UNL     1      -0.685  11.522  22.694  0.00  0.00    +0.000 C 
ATOM     15  N   UNL     1       0.194  10.784  21.785  0.00  0.00    +0.000 NA
ATOM     16  C   UNL     1       0.632   9.524  22.402  0.00  0.00    +0.000 C 
ATOM     17  C   UNL     1       1.611   8.780  21.493  0.00  0.00    +0.000 C 
ATOM     18  C   UNL     1       0.991   8.526  20.110  0.00  0.00    +0.000 C 
ATOM     19  C   UNL     1       0.437   9.830  19.520  0.00  0.00    +0.000 C 
ATOM     20  C   UNL     1      -0.485  10.540  20.505  0.00  0.00    +0.000 C 
ENDBRANCH   1  18
TORSDOF 2
ENDMDL
MODEL 5
REMARK VINA RESULT:      -6.4      1.273      2.150
REMARK  Name = 
REMARK  4 active torsions:
REMARK  status: ('A' for Active; 'I' for Inactive)
REMARK    1  A    between atoms: C_1  and  N_2
REMARK    2  A    between atoms: C_5  and  N_6
REMARK    3  A    between atoms: N_6  and  C_7
REMARK    4  A    between atoms: C_8  and  C_10
REMARK                            x       y       z     vdW  Elec       q    Type
REMARK                         _______ _______ _______ _____ _____    ______ ____
ROOT
ATOM      1  N   UNL     1       1.392   8.765  19.725  0.00  0.00    +0.000 N 
ATOM      2  C   UNL     1       1.598   7.837  20.834  0.00  0.00    +0.000 C 
ATOM      3  C   UNL     1       1.859   8.559  18.406  0.00  0.00    +0.000 C 
ATOM      4  O   UNL     1       1.723   9.404  17.523  0.00  0.00    +0.000 OA
ENDROOT
BRANCH   3   5
ATOM      5  C   UNL     1       2.585   7.297  18.013  0.00  0.00    +0.000 A 
ATOM      6  C   UNL     1       2.015   6.009  18.113  0.00  0.00    +0.000 A 
ATOM      7  C   UNL     1       2.754   4.854  17.842  0.00  0.00    +0.000 A 
ATOM      8  C   UNL     1       4.024   5.009  17.341  0.00  0.00    +0.000 A 
ATOM      9  C   UNL     1       4.576   6.259  17.118  0.00  0.00    +0.000 A 
ATOM     10  C   UNL     1       3.885   7.412  17.473  0.00  0.00    +0.000 A 
ATOM     11  C   UNL     1       5.924   6.083  16.528  0.00  0.00    +0.000 C 
ATOM     12  C   UNL     1       5.832   4.598  16.155  0.00  0.00    +0.000 C 
ATOM     13  O   UNL     1       4.839   3.966  16.993  0.00  0.00    +0.000 OA
ENDBRANCH   3   5
BRANCH   1  18
ATOM     14  C   UNL     1      -0.558  13.537  22.186  0.00  0.00    +0.000 C 
ATOM     15  N   UNL     1       0.100  12.289  21.795  0.00  0.00    +0.000 NA
ATOM     16  C   UNL     1      -0.891  11.217  21.621  0.00  0.00    +0.000 C 
ATOM     17  C   UNL     1      -0.210   9.889  21.288  0.00  0.00    +0.000 C 
ATOM     18  C   UNL     1       0.674  10.025  20.038  0.00  0.00    +0.000 C 
ATOM     19  C   UNL     1       1.632  11.216  20.182  0.00  0.00    +0.000 C 
ATOM     20  C   UNL     1       0.885  12.488  20.569  0.00  0.00    +0.000 C 
ENDBRANCH   1  18
TORSDOF 2
ENDMDL
MODEL 6
REMARK VINA RESULT:      -6.3      2.401      7.552
REMARK  Name = 
REMARK  4 active torsions:
REMARK  status: ('A' for Active; 'I' for Inactive)
REMARK    1  A    between atoms: C_1  and  N_2
REMARK    2  A    between atoms: C_5  and  N_6
REMARK    3  A    between atoms: N_6  and  C_7
REMARK    4  A    between atoms: C_8  and  C_10
REMARK                            x       y       z     vdW  Elec       q    Type
REMARK                         _______ _______ _______ _____ _____    ______ ____
ROOT
ATOM      1  N   UNL     1       2.199   6.819  19.267  0.00  0.00    +0.000 N 
ATOM      2  C   UNL     1       1.957   5.977  20.436  0.00  0.00    +0.000 C 
ATOM      3  C   UNL     1       1.823   8.179  19.163  0.00  0.00    +0.000 C 
ATOM      4  O   UNL     1       1.984   8.827  18.130  0.00  0.00    +0.000 OA
ENDROOT
BRANCH   3   5
ATOM      5  C   UNL     1       1.167   8.907  20.309  0.00  0.00    +0.000 A 
ATOM      6  C   UNL     1       1.437   8.625  21.666  0.00  0.00    +0.000 A 
ATOM      7  C   UNL     1       0.732   9.244  22.701  0.00  0.00    +0.000 A 
ATOM      8  C   UNL     1      -0.147  10.245  22.368  0.00  0.00    +0.000 A 
ATOM      9  C   UNL     1      -0.353  10.633  21.054  0.00  0.00    +0.000 A 
ATOM     10  C   UNL     1       0.273   9.958  20.011  0.00  0.00    +0.000 A 
ATOM     11  C   UNL     1      -1.311  11.763  21.038  0.00  0.00    +0.000 C 
ATOM     12  C   UNL     1      -1.284  12.123  22.529  0.00  0.00    +0.000 C 
ATOM     13  O   UNL     1      -0.870  10.963  23.283  0.00  0.00    +0.000 OA
ENDBRANCH   3   5
BRANCH   1  18
ATOM     14  C   UNL     1       5.689   3.877  15.832  0.00  0.00    +0.000 C 
ATOM     15  N   UNL     1       4.980   4.554  16.920  0.00  0.00    +0.000 NA
ATOM     16  C   UNL     1       4.931   6.003  16.680  0.00  0.00    +0.000 C 
ATOM     17  C   UNL     1       4.259   6.730  17.846  0.00  0.00    +0.000 C 
ATOM     18  C   UNL     1       2.852   6.170  18.104  0.00  0.00    +0.000 C 
ATOM     19  C   UNL     1       2.896   4.642  18.244  0.00  0.00    +0.000 C 
ATOM     20  C   UNL     1       3.629   3.996  17.073  0.00  0.00    +0.000 C 
ENDBRANCH   1  18
TORSDOF 2
ENDMDL
MODEL 7
REMARK VINA RESULT:      -6.3      2.389      7.383
REMARK  Name = 
REMARK  4 active torsions:
REMARK  status: ('A' for Active; 'I' for Inactive)
REMARK    1  A    between atoms: C_1  and  N_2
REMARK    2  A    between atoms: C_5  and  N_6
REMARK    3  A    between atoms: N_6  and  C_7
REMARK    4  A    between atoms: C_8  and  C_10
REMARK                            x       y       z     vdW  Elec       q    Type
REMARK                         _______ _______ _______ _____ _____    ______ ____
ROOT
ATOM      1  N   UNL     1       2.520   7.180  18.642  0.00  0.00    +0.000 N 
ATOM      2  C   UNL     1       2.361   6.547  19.949  0.00  0.00    +0.000 C 
ATOM      3  C   UNL     1       2.052   8.473  18.311  0.00  0.00    +0.000 C 
ATOM      4  O   UNL     1       2.146   8.934  17.175  0.00  0.00    +0.000 OA
ENDROOT
BRANCH   3   5
ATOM      5  C   UNL     1       1.374   9.352  19.332  0.00  0.00    +0.000 A 
ATOM      6  C   UNL     1       1.068  10.712  19.106  0.00  0.00    +0.000 A 
ATOM      7  C   UNL     1       0.538  11.524  20.112  0.00  0.00    +0.000 A 
ATOM      8  C   UNL     1       0.195  10.929  21.301  0.00  0.00    +0.000 A 
ATOM      9  C   UNL     1       0.371   9.573  21.520  0.00  0.00    +0.000 A 
ATOM     10  C   UNL     1       0.984   8.775  20.560  0.00  0.00    +0.000 A 
ATOM     11  C   UNL     1      -0.146   9.240  22.869  0.00  0.00    +0.000 C 
ATOM     12  C   UNL     1      -0.925  10.530  23.153  0.00  0.00    +0.000 C 
ATOM     13  O   UNL     1      -0.372  11.597  22.353  0.00  0.00    +0.000 OA
ENDBRANCH   3   5
BRANCH   1  18
ATOM     14  C   UNL     1       6.029   3.750  15.717  0.00  0.00    +0.000 C 
ATOM     15  N   UNL     1       5.306   4.574  16.688  0.00  0.00    +0.000 NA
ATOM     16  C   UNL     1       5.303   5.982  16.267  0.00  0.00    +0.000 C 
ATOM     17  C   UNL     1       4.618   6.865  17.310  0.00  0.00    +0.000 C 
ATOM     18  C   UNL     1       3.189   6.374  17.590  0.00  0.00    +0.000 C 
ATOM     19  C   UNL     1       3.188   4.875  17.922  0.00  0.00    +0.000 C 
ATOM     20  C   UNL     1       3.938   4.070  16.865  0.00  0.00    +0.000 C 
ENDBRANCH   1  18
TORSDOF 2
ENDMDL
MODEL 8
REMARK VINA RESULT:      -6.2      1.968      2.365
REMARK  Name = 
REMARK  4 active torsions:
REMARK  status: ('A' for Active; 'I' for Inactive)
REMARK    1  A    between atoms: C_1  and  N_2
REMARK    2  A    between atoms: C_5  and  N_6
REMARK    3  A    between atoms: N_6  and  C_7
REMARK    4  A    between atoms: C_8  and  C_10
REMARK                            x       y       z     vdW  Elec       q    Type
REMARK                         _______ _______ _______ _____ _____    ______ ____
ROOT
ATOM      1  N   UNL     1       1.142   9.482  19.477  0.00  0.00    +0.000 N 
ATOM      2  C   UNL     1       1.092   9.294  18.030  0.00  0.00    +0.000 C 
ATOM      3  C   UNL     1       1.493   8.477  20.408  0.00  0.00    +0.000 C 
ATOM      4  O   UNL     1       1.449   8.664  21.623  0.00  0.00    +0.000 OA
ENDROOT
BRANCH   3   5
ATOM      5  C   UNL     1       1.911   7.098  19.962  0.00  0.00    +0.000 A 
ATOM      6  C   UNL     1       2.873   6.865  18.956  0.00  0.00    +0.000 A 
ATOM      7  C   UNL     1       3.157   5.578  18.493  0.00  0.00    +0.000 A 
ATOM      8  C   UNL     1       2.569   4.520  19.141  0.00  0.00    +0.000 A 
ATOM      9  C   UNL     1       1.709   4.703  20.211  0.00  0.00    +0.000 A 
ATOM     10  C   UNL     1       1.347   5.982  20.618  0.00  0.00    +0.000 A 
ATOM     11  C   UNL     1       1.293   3.373  20.717  0.00  0.00    +0.000 C 
ATOM     12  C   UNL     1       2.330   2.505  19.993  0.00  0.00    +0.000 C 
ATOM     13  O   UNL     1       2.792   3.208  18.819  0.00  0.00    +0.000 OA
ENDBRANCH   3   5
BRANCH   1  18
ATOM     14  C   UNL     1      -1.017  14.735  20.097  0.00  0.00    +0.000 C 
ATOM     15  N   UNL     1      -0.585  13.400  19.677  0.00  0.00    +0.000 NA
ATOM     16  C   UNL     1       0.883  13.319  19.650  0.00  0.00    +0.000 C 
ATOM     17  C   UNL     1       1.348  11.955  19.139  0.00  0.00    +0.000 C 
ATOM     18  C   UNL     1       0.752  10.820  19.987  0.00  0.00    +0.000 C 
ATOM     19  C   UNL     1      -0.771  10.974  20.102  0.00  0.00    +0.000 C 
ATOM     20  C   UNL     1      -1.156  12.376  20.562  0.00  0.00    +0.000 C 
ENDBRANCH   1  18
TORSDOF 2
ENDMDL
MODEL 9
REMARK VINA RESULT:      -6.1      1.635      2.568
REMARK  Name = 
REMARK  4 active torsions:
REMARK  status: ('A' for Active; 'I' for Inactive)
REMARK    1  A    between atoms: C_1  and  N_2
REMARK    2  A    between atoms: C_5  and  N_6
REMARK    3  A    between atoms: N_6  and  C_7
REMARK    4  A    between atoms: C_8  and  C_10
REMARK                            x       y       z     vdW  Elec       q    Type
REMARK                         _______ _______ _______ _____ _____    ______ ____
ROOT
ATOM      1  N   UNL     1       1.728   8.345  19.565  0.00  0.00    +0.000 N 
ATOM      2  C   UNL     1       1.678   8.926  18.226  0.00  0.00    +0.000 C 
ATOM      3  C   UNL     1       2.210   7.049  19.863  0.00  0.00    +0.000 C 
ATOM      4  O   UNL     1       2.164   6.576  20.998  0.00  0.00    +0.000 OA
ENDROOT
BRANCH   3   5
ATOM      5  C   UNL     1       2.782   6.154  18.792  0.00  0.00    +0.000 A 
ATOM      6  C   UNL     1       2.188   4.936  18.398  0.00  0.00    +0.000 A 
ATOM      7  C   UNL     1       2.802   4.080  17.480  0.00  0.00    +0.000 A 
ATOM      8  C   UNL     1       3.947   4.519  16.862  0.00  0.00    +0.000 A 
ATOM      9  C   UNL     1       4.498   5.760  17.136  0.00  0.00    +0.000 A 
ATOM     10  C   UNL     1       3.947   6.578  18.116  0.00  0.00    +0.000 A 
ATOM     11  C   UNL     1       5.687   5.952  16.272  0.00  0.00    +0.000 C 
ATOM     12  C   UNL     1       5.453   4.804  15.282  0.00  0.00    +0.000 C 
ATOM     13  O   UNL     1       4.627   3.802  15.914  0.00  0.00    +0.000 OA
ENDBRANCH   3   5
BRANCH   1  18
ATOM     14  C   UNL     1      -1.568  11.548  22.958  0.00  0.00    +0.000 C 
ATOM     15  N   UNL     1      -0.953  10.725  21.914  0.00  0.00    +0.000 NA
ATOM     16  C   UNL     1       0.218  11.407  21.344  0.00  0.00    +0.000 C 
ATOM     17  C   UNL     1       0.823  10.592  20.200  0.00  0.00    +0.000 C 
ATOM     18  C   UNL     1       1.190   9.176  20.671  0.00  0.00    +0.000 C 
ATOM     19  C   UNL     1      -0.007   8.511  21.365  0.00  0.00    +0.000 C 
ATOM     20  C   UNL     1      -0.589   9.407  22.453  0.00  0.00    +0.000 C 
ENDBRANCH   1  18
TORSDOF 2
ENDMDL
