MODEL 1
REMARK VINA RESULT:      -8.2      0.000      0.000
REMARK  Name = 
REMARK  3 active torsions:
REMARK  status: ('A' for Active; 'I' for Inactive)
REMARK    1  A    between atoms: N_1  and  C_2
REMARK    2  A    between atoms: C_5  and  C_6
REMARK    3  A    between atoms: C_13  and  C_14
REMARK                            x       y       z     vdW  Elec       q    Type
REMARK                         _______ _______ _______ _____ _____    ______ ____
ROOT
ATOM      1  C   UNL     1       2.991   5.005  20.025  0.00  0.00    +0.000 A 
ATOM      2  N   UNL     1       3.688   3.889  19.734  0.00  0.00    +0.000 NA
ATOM      3  C   UNL     1       4.479   3.907  18.633  0.00  0.00    +0.000 A 
ATOM      4  C   UNL     1       4.621   4.986  17.762  0.00  0.00    +0.000 A 
ATOM      5  C   UNL     1       3.881   6.127  18.101  0.00  0.00    +0.000 A 
ATOM      6  C   UNL     1       3.063   6.161  19.243  0.00  0.00    +0.000 A 
ENDROOT
BRANCH   6   7
ATOM      7  C   UNL     1       2.273   7.343  19.558  0.00  0.00    +0.000 A 
ATOM      8  N   UNL     1       1.702   7.685  20.701  0.00  0.00    +0.000 NA
ATOM      9  C   UNL     1       1.075   8.868  20.411  0.00  0.00    +0.000 A 
ATOM     10  C   UNL     1       0.302   9.716  21.212  0.00  0.00    +0.000 A 
ATOM     11  C   UNL     1      -0.221  10.880  20.629  0.00  0.00    +0.000 A 
ATOM     12  C   UNL     1       0.021  11.185  19.283  0.00  0.00    +0.000 A 
ATOM     13  C   UNL     1       0.790  10.345  18.468  0.00  0.00    +0.000 A 
ATOM     14  C   UNL     1       1.289   9.203  19.085  0.00  0.00    +0.000 A 
ATOM     15  O   UNL     1       2.054   8.224  18.524  0.00  0.00    +0.000 OA
ENDBRANCH   6   7
BRANCH   4  16
ATOM     16  C   UNL     1       5.478   4.934  16.562  0.00  0.00    +0.000 A 
ATOM     17  C   UNL     1       5.166   4.134  15.452  0.00  0.00    +0.000 A 
ATOM     18  C   UNL     1       6.005   4.094  14.340  0.00  0.00    +0.000 A 
ATOM     19  C   UNL     1       7.145   4.875  14.351  0.00  0.00    +0.000 A 
ATOM     20  N   UNL     1       7.495   5.665  15.384  0.00  0.00    +0.000 NA
ATOM     21  C   UNL     1       6.663   5.670  16.456  0.00  0.00    +0.000 A 
ENDBRANCH   4  16
BRANCH   1  22
ATOM     22  N   UNL     1       2.285   4.954  21.223  0.00  0.00    +0.000 N 
ATOM     23  H   UNL     1       1.291   4.994  21.022  0.00  0.00    +0.000 HD
ATOM     24  H   UNL     1       2.608   5.645  21.897  0.00  0.00    +0.000 HD
ENDBRANCH   1  22
TORSDOF 3
ENDMDL
MODEL 2
REMARK VINA RESULT:      -8.1      0.751      1.282
REMARK  Name = 
REMARK  3 active torsions:
REMARK  status: ('A' for Active; 'I' for Inactive)
REMARK    1  A    between atoms: N_1  and  C_2
REMARK    2  A    between atoms: C_5  and  C_6
REMARK    3  A    between atoms: C_13  and  C_14
REMARK                            x       y       z     vdW  Elec       q    Type
REMARK                         _______ _______ _______ _____ _____    ______ ____
ROOT
ATOM      1  C   UNL     1       2.996   5.146  19.930  0.00  0.00    +0.000 A 
ATOM      2  N   UNL     1       3.707   4.028  19.687  0.00  0.00    +0.000 NA
ATOM      3  C   UNL     1       4.498   4.009  18.586  0.00  0.00    +0.000 A 
ATOM      4  C   UNL     1       4.627   5.052  17.669  0.00  0.00    +0.000 A 
ATOM      5  C   UNL     1       3.872   6.197  17.960  0.00  0.00    +0.000 A 
ATOM      6  C   UNL     1       3.054   6.269  19.099  0.00  0.00    +0.000 A 
ENDROOT
BRANCH   6   7
ATOM      7  C   UNL     1       2.249   7.454  19.363  0.00  0.00    +0.000 A 
ATOM      8  N   UNL     1       1.913   8.434  18.541  0.00  0.00    +0.000 NA
ATOM      9  C   UNL     1       1.180   9.282  19.329  0.00  0.00    +0.000 A 
ATOM     10  C   UNL     1       0.553  10.498  19.031  0.00  0.00    +0.000 A 
ATOM     11  C   UNL     1      -0.138  11.154  20.061  0.00  0.00    +0.000 A 
ATOM     12  C   UNL     1      -0.199  10.611  21.351  0.00  0.00    +0.000 A 
ATOM     13  C   UNL     1       0.426   9.397  21.664  0.00  0.00    +0.000 A 
ATOM     14  C   UNL     1       1.099   8.780  20.616  0.00  0.00    +0.000 A 
ATOM     15  O   UNL     1       1.791   7.605  20.651  0.00  0.00    +0.000 OA
ENDBRANCH   6   7
BRANCH   4  16
ATOM     16  C   UNL     1       5.485   4.960  16.473  0.00  0.00    +0.000 A 
ATOM     17  C   UNL     1       5.160   4.143  15.379  0.00  0.00    +0.000 A 
ATOM     18  C   UNL     1       6.000   4.065  14.269  0.00  0.00    +0.000 A 
ATOM     19  C   UNL     1       7.155   4.825  14.267  0.00  0.00    +0.000 A 
ATOM     20  N   UNL     1       7.518   5.629  15.285  0.00  0.00    +0.000 NA
ATOM     21  C   UNL     1       6.683   5.671  16.355  0.00  0.00    +0.000 A 
ENDBRANCH   4  16
BRANCH   1  22
ATOM     22  N   UNL     1       2.290   5.137  21.129  0.00  0.00    +0.000 N 
ATOM     23  H   UNL     1       2.147   6.094  21.435  0.00  0.00    +0.000 HD
ATOM     24  H   UNL     1       2.714   4.530  21.828  0.00  0.00    +0.000 HD
ENDBRANCH   1  22
TORSDOF 3
ENDMDL
MODEL 3
REMARK VINA RESULT:      -8.1      1.706      7.415
REMARK  Name = 
REMARK  3 active torsions:
REMARK  status: ('A' for Active; 'I' for Inactive)
REMARK    1  A    between atoms: N_1  and  C_2
REMARK    2  A    between atoms: C_5  and  C_6
REMARK    3  A    between atoms: C_13  and  C_14
REMARK                            x       y       z     vdW  Elec       q    Type
REMARK                         _______ _______ _______ _____ _____    ______ ____
ROOT
ATOM      1  C   UNL     1       4.684   4.525  18.533  0.00  0.00    +0.000 A 
ATOM      2  N   UNL     1       4.026   4.726  19.692  0.00  0.00    +0.000 NA
ATOM      3  C   UNL     1       3.216   5.809  19.778  0.00  0.00    +0.000 A 
ATOM      4  C   UNL     1       3.016   6.749  18.767  0.00  0.00    +0.000 A 
ATOM      5  C   UNL     1       3.717   6.501  17.578  0.00  0.00    +0.000 A 
ATOM      6  C   UNL     1       4.552   5.381  17.436  0.00  0.00    +0.000 A 
ENDROOT
BRANCH   6   7
ATOM      7  C   UNL     1       5.301   5.162  16.206  0.00  0.00    +0.000 A 
ATOM      8  N   UNL     1       6.401   5.762  15.781  0.00  0.00    +0.000 NA
ATOM      9  C   UNL     1       6.638   5.181  14.563  0.00  0.00    +0.000 A 
ATOM     10  C   UNL     1       7.656   5.398  13.627  0.00  0.00    +0.000 A 
ATOM     11  C   UNL     1       7.640   4.640  12.446  0.00  0.00    +0.000 A 
ATOM     12  C   UNL     1       6.634   3.695  12.208  0.00  0.00    +0.000 A 
ATOM     13  C   UNL     1       5.607   3.470  13.134  0.00  0.00    +0.000 A 
ATOM     14  C   UNL     1       5.661   4.241  14.290  0.00  0.00    +0.000 A 
ATOM     15  O   UNL     1       4.789   4.225  15.339  0.00  0.00    +0.000 OA
ENDBRANCH   6   7
BRANCH   4  16
ATOM     16  C   UNL     1       2.141   7.924  18.932  0.00  0.00    +0.000 A 
ATOM     17  C   UNL     1       1.795   8.757  17.857  0.00  0.00    +0.000 A 
ATOM     18  C   UNL     1       0.978   9.871  18.049  0.00  0.00    +0.000 A 
ATOM     19  C   UNL     1       0.505  10.125  19.322  0.00  0.00    +0.000 A 
ATOM     20  N   UNL     1       0.801   9.361  20.391  0.00  0.00    +0.000 NA
ATOM     21  C   UNL     1       1.608   8.293  20.172  0.00  0.00    +0.000 A 
ENDBRANCH   4  16
BRANCH   1  22
ATOM     22  N   UNL     1       5.412   3.340  18.476  0.00  0.00    +0.000 N 
ATOM     23  H   UNL     1       6.285   3.513  17.987  0.00  0.00    +0.000 HD
ATOM     24  H   UNL     1       4.867   2.564  18.105  0.00  0.00    +0.000 HD
ENDBRANCH   1  22
TORSDOF 3
ENDMDL
MODEL 4
REMARK VINA RESULT:      -8.0      3.975      5.079
REMARK  Name = 
REMARK  3 active torsions:
REMARK  status: ('A' for Active; 'I' for Inactive)
REMARK    1  A    between atoms: N_1  and  C_2
REMARK    2  A    between atoms: C_5  and  C_6
REMARK    3  A    between atoms: C_13  and  C_14
REMARK                            x       y       z     vdW  Elec       q    Type
REMARK                         _______ _______ _______ _____ _____    ______ ____
ROOT
ATOM      1  C   UNL     1       6.721   4.845  17.980  0.00  0.00    +0.000 A 
ATOM      2  N   UNL     1       7.678   5.180  17.092  0.00  0.00    +0.000 NA
ATOM      3  C   UNL     1       7.451   4.905  15.785  0.00  0.00    +0.000 A 
ATOM      4  C   UNL     1       6.309   4.283  15.279  0.00  0.00    +0.000 A 
ATOM      5  C   UNL     1       5.339   3.952  16.235  0.00  0.00    +0.000 A 
ATOM      6  C   UNL     1       5.522   4.237  17.599  0.00  0.00    +0.000 A 
ENDROOT
BRANCH   6   7
ATOM      7  C   UNL     1       4.518   3.851  18.581  0.00  0.00    +0.000 A 
ATOM      8  N   UNL     1       4.673   3.188  19.715  0.00  0.00    +0.000 NA
ATOM      9  C   UNL     1       3.400   3.089  20.210  0.00  0.00    +0.000 A 
ATOM     10  C   UNL     1       2.915   2.493  21.380  0.00  0.00    +0.000 A 
ATOM     11  C   UNL     1       1.535   2.548  21.627  0.00  0.00    +0.000 A 
ATOM     12  C   UNL     1       0.665   3.179  20.728  0.00  0.00    +0.000 A 
ATOM     13  C   UNL     1       1.135   3.777  19.552  0.00  0.00    +0.000 A 
ATOM     14  C   UNL     1       2.508   3.700  19.346  0.00  0.00    +0.000 A 
ATOM     15  O   UNL     1       3.217   4.188  18.289  0.00  0.00    +0.000 OA
ENDBRANCH   6   7
BRANCH   4  16
ATOM     16  C   UNL     1       6.133   3.984  13.846  0.00  0.00    +0.000 A 
ATOM     17  C   UNL     1       4.901   3.574  13.312  0.00  0.00    +0.000 A 
ATOM     18  C   UNL     1       4.770   3.283  11.955  0.00  0.00    +0.000 A 
ATOM     19  C   UNL     1       5.881   3.424  11.145  0.00  0.00    +0.000 A 
ATOM     20  N   UNL     1       7.087   3.816  11.598  0.00  0.00    +0.000 NA
ATOM     21  C   UNL     1       7.182   4.079  12.926  0.00  0.00    +0.000 A 
ENDBRANCH   4  16
BRANCH   1  22
ATOM     22  N   UNL     1       6.973   5.252  19.287  0.00  0.00    +0.000 N 
ATOM     23  H   UNL     1       7.180   4.436  19.853  0.00  0.00    +0.000 HD
ATOM     24  H   UNL     1       6.235   5.848  19.659  0.00  0.00    +0.000 HD
ENDBRANCH   1  22
TORSDOF 3
ENDMDL
MODEL 5
REMARK VINA RESULT:      -7.8      1.807      7.416
REMARK  Name = 
REMARK  3 active torsions:
REMARK  status: ('A' for Active; 'I' for Inactive)
REMARK    1  A    between atoms: N_1  and  C_2
REMARK    2  A    between atoms: C_5  and  C_6
REMARK    3  A    between atoms: C_13  and  C_14
REMARK                            x       y       z     vdW  Elec       q    Type
REMARK                         _______ _______ _______ _____ _____    ______ ____
ROOT
ATOM      1  C   UNL     1       4.662   4.518  18.552  0.00  0.00    +0.000 A 
ATOM      2  N   UNL     1       4.004   4.717  19.710  0.00  0.00    +0.000 NA
ATOM      3  C   UNL     1       3.200   5.805  19.801  0.00  0.00    +0.000 A 
ATOM      4  C   UNL     1       3.009   6.751  18.794  0.00  0.00    +0.000 A 
ATOM      5  C   UNL     1       3.711   6.505  17.605  0.00  0.00    +0.000 A 
ATOM      6  C   UNL     1       4.539   5.380  17.459  0.00  0.00    +0.000 A 
ENDROOT
BRANCH   6   7
ATOM      7  C   UNL     1       5.289   5.163  16.229  0.00  0.00    +0.000 A 
ATOM      8  N   UNL     1       6.392   5.761  15.809  0.00  0.00    +0.000 NA
ATOM      9  C   UNL     1       6.629   5.183  14.589  0.00  0.00    +0.000 A 
ATOM     10  C   UNL     1       7.650   5.399  13.655  0.00  0.00    +0.000 A 
ATOM     11  C   UNL     1       7.632   4.646  12.472  0.00  0.00    +0.000 A 
ATOM     12  C   UNL     1       6.623   3.706  12.229  0.00  0.00    +0.000 A 
ATOM     13  C   UNL     1       5.594   3.481  13.152  0.00  0.00    +0.000 A 
ATOM     14  C   UNL     1       5.648   4.248  14.311  0.00  0.00    +0.000 A 
ATOM     15  O   UNL     1       4.775   4.232  15.358  0.00  0.00    +0.000 OA
ENDBRANCH   6   7
BRANCH   4  16
ATOM     16  C   UNL     1       2.141   7.931  18.963  0.00  0.00    +0.000 A 
ATOM     17  C   UNL     1       1.577   8.274  20.203  0.00  0.00    +0.000 A 
ATOM     18  C   UNL     1       0.747   9.388  20.327  0.00  0.00    +0.000 A 
ATOM     19  C   UNL     1       0.506  10.154  19.203  0.00  0.00    +0.000 A 
ATOM     20  N   UNL     1       1.020   9.877  17.989  0.00  0.00    +0.000 NA
ATOM     21  C   UNL     1       1.814   8.779  17.901  0.00  0.00    +0.000 A 
ENDBRANCH   4  16
BRANCH   1  22
ATOM     22  N   UNL     1       5.384   3.329  18.490  0.00  0.00    +0.000 N 
ATOM     23  H   UNL     1       5.689   3.079  19.425  0.00  0.00    +0.000 HD
ATOM     24  H   UNL     1       6.129   3.359  17.796  0.00  0.00    +0.000 HD
ENDBRANCH   1  22
TORSDOF 3
ENDMDL
MODEL 6
REMARK VINA RESULT:      -7.8      3.965      5.017
REMARK  Name = 
REMARK  3 active torsions:
REMARK  status: ('A' for Active; 'I' for Inactive)
REMARK    1  A    between atoms: N_1  and  C_2
REMARK    2  A    between atoms: C_5  and  C_6
REMARK    3  A    between atoms: C_13  and  C_14
REMARK                            x       y       z     vdW  Elec       q    Type
REMARK                         _______ _______ _______ _____ _____    ______ ____
ROOT
ATOM      1  C   UNL     1       6.552   4.960  18.240  0.00  0.00    +0.000 A 
ATOM      2  N   UNL     1       7.647   5.271  17.518  0.00  0.00    +0.000 NA
ATOM      3  C   UNL     1       7.603   5.056  16.181  0.00  0.00    +0.000 A 
ATOM      4  C   UNL     1       6.519   4.521  15.486  0.00  0.00    +0.000 A 
ATOM      5  C   UNL     1       5.401   4.213  16.273  0.00  0.00    +0.000 A 
ATOM      6  C   UNL     1       5.392   4.438  17.660  0.00  0.00    +0.000 A 
ENDROOT
BRANCH   6   7
ATOM      7  C   UNL     1       4.235   4.077  18.466  0.00  0.00    +0.000 A 
ATOM      8  N   UNL     1       2.958   4.362  18.267  0.00  0.00    +0.000 NA
ATOM      9  C   UNL     1       2.327   3.797  19.344  0.00  0.00    +0.000 A 
ATOM     10  C   UNL     1       0.973   3.762  19.699  0.00  0.00    +0.000 A 
ATOM     11  C   UNL     1       0.618   3.098  20.882  0.00  0.00    +0.000 A 
ATOM     12  C   UNL     1       1.588   2.488  21.688  0.00  0.00    +0.000 A 
ATOM     13  C   UNL     1       2.947   2.517  21.347  0.00  0.00    +0.000 A 
ATOM     14  C   UNL     1       3.256   3.185  20.167  0.00  0.00    +0.000 A 
ATOM     15  O   UNL     1       4.489   3.365  19.615  0.00  0.00    +0.000 OA
ENDBRANCH   6   7
BRANCH   4  16
ATOM     16  C   UNL     1       6.543   4.285  14.030  0.00  0.00    +0.000 A 
ATOM     17  C   UNL     1       5.603   3.462  13.389  0.00  0.00    +0.000 A 
ATOM     18  C   UNL     1       5.662   3.245  12.013  0.00  0.00    +0.000 A 
ATOM     19  C   UNL     1       6.661   3.873  11.294  0.00  0.00    +0.000 A 
ATOM     20  N   UNL     1       7.588   4.675  11.852  0.00  0.00    +0.000 NA
ATOM     21  C   UNL     1       7.509   4.854  13.195  0.00  0.00    +0.000 A 
ENDBRANCH   4  16
BRANCH   1  22
ATOM     22  N   UNL     1       6.626   5.305  19.587  0.00  0.00    +0.000 N 
ATOM     23  H   UNL     1       7.590   5.229  19.894  0.00  0.00    +0.000 HD
ATOM     24  H   UNL     1       5.959   4.791  20.159  0.00  0.00    +0.000 HD
ENDBRANCH   1  22
TORSDOF 3
ENDMDL
MODEL 7
REMARK VINA RESULT:      -7.8      3.976      5.143
REMARK  Name = 
REMARK  3 active torsions:
REMARK  status: ('A' for Active; 'I' for Inactive)
REMARK    1  A    between atoms: N_1  and  C_2
REMARK    2  A    between atoms: C_5  and  C_6
REMARK    3  A    between atoms: C_13  and  C_14
REMARK                            x       y       z     vdW  Elec       q    Type
REMARK                         _______ _______ _______ _____ _____    ______ ____
ROOT
ATOM      1  C   UNL     1       6.741   4.877  18.030  0.00  0.00    +0.000 A 
ATOM      2  N   UNL     1       7.701   5.222  17.149  0.00  0.00    +0.000 NA
ATOM      3  C   UNL     1       7.485   4.944  15.840  0.00  0.00    +0.000 A 
ATOM      4  C   UNL     1       6.353   4.312  15.327  0.00  0.00    +0.000 A 
ATOM      5  C   UNL     1       5.380   3.971  16.276  0.00  0.00    +0.000 A 
ATOM      6  C   UNL     1       5.550   4.258  17.641  0.00  0.00    +0.000 A 
ENDROOT
BRANCH   6   7
ATOM      7  C   UNL     1       4.543   3.863  18.616  0.00  0.00    +0.000 A 
ATOM      8  N   UNL     1       4.695   3.190  19.745  0.00  0.00    +0.000 NA
ATOM      9  C   UNL     1       3.419   3.085  20.234  0.00  0.00    +0.000 A 
ATOM     10  C   UNL     1       2.931   2.479  21.398  0.00  0.00    +0.000 A 
ATOM     11  C   UNL     1       1.550   2.530  21.639  0.00  0.00    +0.000 A 
ATOM     12  C   UNL     1       0.683   3.168  20.742  0.00  0.00    +0.000 A 
ATOM     13  C   UNL     1       1.156   3.776  19.573  0.00  0.00    +0.000 A 
ATOM     14  C   UNL     1       2.531   3.702  19.372  0.00  0.00    +0.000 A 
ATOM     15  O   UNL     1       3.243   4.200  18.322  0.00  0.00    +0.000 OA
ENDBRANCH   6   7
BRANCH   4  16
ATOM     16  C   UNL     1       6.190   4.011  13.892  0.00  0.00    +0.000 A 
ATOM     17  C   UNL     1       7.242   4.153  12.973  0.00  0.00    +0.000 A 
ATOM     18  C   UNL     1       7.051   3.876  11.619  0.00  0.00    +0.000 A 
ATOM     19  C   UNL     1       5.804   3.444  11.208  0.00  0.00    +0.000 A 
ATOM     20  N   UNL     1       4.760   3.286  12.043  0.00  0.00    +0.000 NA
ATOM     21  C   UNL     1       4.976   3.576  13.352  0.00  0.00    +0.000 A 
ENDBRANCH   4  16
BRANCH   1  22
ATOM     22  N   UNL     1       6.979   5.287  19.339  0.00  0.00    +0.000 N 
ATOM     23  H   UNL     1       6.109   5.252  19.859  0.00  0.00    +0.000 HD
ATOM     24  H   UNL     1       7.464   6.181  19.387  0.00  0.00    +0.000 HD
ENDBRANCH   1  22
TORSDOF 3
ENDMDL
MODEL 8
REMARK VINA RESULT:      -7.8      4.333      7.750
REMARK  Name = 
REMARK  3 active torsions:
REMARK  status: ('A' for Active; 'I' for Inactive)
REMARK    1  A    between atoms: N_1  and  C_2
REMARK    2  A    between atoms: C_5  and  C_6
REMARK    3  A    between atoms: C_13  and  C_14
REMARK                            x       y       z     vdW  Elec       q    Type
REMARK                         _______ _______ _______ _____ _____    ______ ____
ROOT
ATOM      1  C   UNL     1       6.628   5.287  18.193  0.00  0.00    +0.000 A 
ATOM      2  N   UNL     1       6.211   5.338  19.473  0.00  0.00    +0.000 NA
ATOM      3  C   UNL     1       5.012   4.779  19.770  0.00  0.00    +0.000 A 
ATOM      4  C   UNL     1       4.161   4.164  18.851  0.00  0.00    +0.000 A 
ATOM      5  C   UNL     1       4.634   4.131  17.532  0.00  0.00    +0.000 A 
ATOM      6  C   UNL     1       5.879   4.680  17.181  0.00  0.00    +0.000 A 
ENDROOT
BRANCH   6   7
ATOM      7  C   UNL     1       6.334   4.669  15.798  0.00  0.00    +0.000 A 
ATOM      8  N   UNL     1       7.219   5.454  15.206  0.00  0.00    +0.000 NA
ATOM      9  C   UNL     1       7.230   5.010  13.910  0.00  0.00    +0.000 A 
ATOM     10  C   UNL     1       7.962   5.444  12.798  0.00  0.00    +0.000 A 
ATOM     11  C   UNL     1       7.758   4.787  11.575  0.00  0.00    +0.000 A 
ATOM     12  C   UNL     1       6.849   3.727  11.468  0.00  0.00    +0.000 A 
ATOM     13  C   UNL     1       6.107   3.283  12.570  0.00  0.00    +0.000 A 
ATOM     14  C   UNL     1       6.339   3.962  13.762  0.00  0.00    +0.000 A 
ATOM     15  O   UNL     1       5.751   3.738  14.971  0.00  0.00    +0.000 OA
ENDBRANCH   6   7
BRANCH   4  16
ATOM     16  C   UNL     1       2.854   3.598  19.232  0.00  0.00    +0.000 A 
ATOM     17  C   UNL     1       2.424   3.537  20.567  0.00  0.00    +0.000 A 
ATOM     18  C   UNL     1       1.188   2.980  20.895  0.00  0.00    +0.000 A 
ATOM     19  C   UNL     1       0.391   2.503  19.872  0.00  0.00    +0.000 A 
ATOM     20  N   UNL     1       0.749   2.537  18.574  0.00  0.00    +0.000 NA
ATOM     21  C   UNL     1       1.962   3.074  18.290  0.00  0.00    +0.000 A 
ENDBRANCH   4  16
BRANCH   1  22
ATOM     22  N   UNL     1       7.911   5.784  17.979  0.00  0.00    +0.000 N 
ATOM     23  H   UNL     1       8.133   5.709  16.992  0.00  0.00    +0.000 HD
ATOM     24  H   UNL     1       8.601   5.364  18.600  0.00  0.00    +0.000 HD
ENDBRANCH   1  22
TORSDOF 3
ENDMDL
MODEL 9
REMARK VINA RESULT:      -7.7      4.157      7.703
REMARK  Name = 
REMARK  3 active torsions:
REMARK  status: ('A' for Active; 'I' for Inactive)
REMARK    1  A    between atoms: N_1  and  C_2
REMARK    2  A    between atoms: C_5  and  C_6
REMARK    3  A    between atoms: C_13  and  C_14
REMARK                            x       y       z     vdW  Elec       q    Type
REMARK                         _______ _______ _______ _____ _____    ______ ____
ROOT
ATOM      1  C   UNL     1       6.633   5.382  18.183  0.00  0.00    +0.000 A 
ATOM      2  N   UNL     1       6.227   5.463  19.466  0.00  0.00    +0.000 NA
ATOM      3  C   UNL     1       5.030   4.915  19.785  0.00  0.00    +0.000 A 
ATOM      4  C   UNL     1       4.168   4.283  18.889  0.00  0.00    +0.000 A 
ATOM      5  C   UNL     1       4.628   4.219  17.566  0.00  0.00    +0.000 A 
ATOM      6  C   UNL     1       5.872   4.755  17.192  0.00  0.00    +0.000 A 
ENDROOT
BRANCH   6   7
ATOM      7  C   UNL     1       6.315   4.712  15.806  0.00  0.00    +0.000 A 
ATOM      8  N   UNL     1       7.212   5.466  15.193  0.00  0.00    +0.000 NA
ATOM      9  C   UNL     1       7.201   5.002  13.904  0.00  0.00    +0.000 A 
ATOM     10  C   UNL     1       7.932   5.401  12.779  0.00  0.00    +0.000 A 
ATOM     11  C   UNL     1       7.703   4.729  11.569  0.00  0.00    +0.000 A 
ATOM     12  C   UNL     1       6.768   3.689  11.487  0.00  0.00    +0.000 A 
ATOM     13  C   UNL     1       6.027   3.280  12.602  0.00  0.00    +0.000 A 
ATOM     14  C   UNL     1       6.285   3.972  13.781  0.00  0.00    +0.000 A 
ATOM     15  O   UNL     1       5.702   3.782  14.999  0.00  0.00    +0.000 OA
ENDBRANCH   6   7
BRANCH   4  16
ATOM     16  C   UNL     1       2.863   3.729  19.294  0.00  0.00    +0.000 A 
ATOM     17  C   UNL     1       1.957   3.191  18.366  0.00  0.00    +0.000 A 
ATOM     18  C   UNL     1       0.723   2.690  18.779  0.00  0.00    +0.000 A 
ATOM     19  C   UNL     1       0.420   2.722  20.126  0.00  0.00    +0.000 A 
ATOM     20  N   UNL     1       1.249   3.222  21.063  0.00  0.00    +0.000 NA
ATOM     21  C   UNL     1       2.436   3.713  20.626  0.00  0.00    +0.000 A 
ENDBRANCH   4  16
BRANCH   1  22
ATOM     22  N   UNL     1       7.915   5.870  17.947  0.00  0.00    +0.000 N 
ATOM     23  H   UNL     1       7.852   6.691  17.354  0.00  0.00    +0.000 HD
ATOM     24  H   UNL     1       8.549   5.150  17.605  0.00  0.00    +0.000 HD
ENDBRANCH   1  22
TORSDOF 3
ENDMDL
