MODEL 1
REMARK VINA RESULT:      -7.9      0.000      0.000
REMARK  Name = 
REMARK  10 active torsions:
REMARK  status: ('A' for Active; 'I' for Inactive)
REMARK    1  A    between atoms: C_1  and  O_2
REMARK    2  A    between atoms: O_2  and  C_3
REMARK    3  A    between atoms: C_5  and  C_6
REMARK    4  A    between atoms: C_7  and  C_8
REMARK    5  A    between atoms: C_7  and  C_10
REMARK    6  A    between atoms: C_15  and  O_16
REMARK    7  A    between atoms: O_16  and  C_17
REMARK    8  A    between atoms: C_17  and  C_18
REMARK    9  A    between atoms: C_21  and  C_22
REMARK   10  A    between atoms: C_27  and  C_28
REMARK                            x       y       z     vdW  Elec       q    Type
REMARK                         _______ _______ _______ _____ _____    ______ ____
ROOT
ATOM      1  C   UNL     1       1.893   5.518  19.827  0.00  0.00    +0.000 A 
ATOM      2  C   UNL     1       2.650   4.897  18.822  0.00  0.00    +0.000 A 
ATOM      3  C   UNL     1       3.294   5.656  17.841  0.00  0.00    +0.000 A 
ATOM      4  C   UNL     1       3.124   7.032  17.798  0.00  0.00    +0.000 A 
ATOM      5  C   UNL     1       2.442   7.659  18.830  0.00  0.00    +0.000 A 
ATOM      6  C   UNL     1       1.844   6.917  19.863  0.00  0.00    +0.000 A 
ENDROOT
BRANCH   1   8
ATOM      7  C   UNL     1       2.213   3.767  21.432  0.00  0.00    +0.000 C 
ATOM      8  O   UNL     1       1.342   4.638  20.719  0.00  0.00    +0.000 OA
ENDBRANCH   1   8
BRANCH   3   9
ATOM      9  C   UNL     1       4.294   5.049  16.961  0.00  0.00    +0.000 C 
ATOM     10  C   UNL     1       5.556   4.813  17.379  0.00  0.00    +0.000 C 
BRANCH  10  11
ATOM     11  C   UNL     1       6.487   4.189  16.392  0.00  0.00    +0.000 C 
ATOM     12  N   UNL     1       7.817   4.403  16.577  0.00  0.00    +0.000 N 
ATOM     13  O   UNL     1       6.102   3.501  15.452  0.00  0.00    +0.000 OA
ATOM     14  H   UNL     1       8.230   4.938  17.333  0.00  0.00    +0.000 HD
ATOM     15  H   UNL     1       8.453   3.962  15.920  0.00  0.00    +0.000 HD
ENDBRANCH  10  11
BRANCH  10  16
ATOM     16  C   UNL     1       6.033   5.140  18.690  0.00  0.00    +0.000 C 
ATOM     17  N   UNL     1       6.460   5.370  19.739  0.00  0.00    +0.000 NA
ENDBRANCH  10  16
ENDBRANCH   3   9
BRANCH   6  18
ATOM     18  O   UNL     1       1.261   7.536  20.939  0.00  0.00    +0.000 OA
BRANCH  18  19
ATOM     19  C   UNL     1       1.714   8.876  21.143  0.00  0.00    +0.000 C 
BRANCH  19  20
ATOM     20  C   UNL     1       0.606   9.793  21.589  0.00  0.00    +0.000 A 
ATOM     21  C   UNL     1       0.148   9.723  22.913  0.00  0.00    +0.000 A 
ATOM     22  C   UNL     1      -0.928  10.489  23.333  0.00  0.00    +0.000 A 
ATOM     23  C   UNL     1      -1.555  11.368  22.445  0.00  0.00    +0.000 A 
ATOM     24  C   UNL     1      -1.066  11.473  21.126  0.00  0.00    +0.000 A 
ATOM     25  C   UNL     1       0.012  10.698  20.678  0.00  0.00    +0.000 A 
BRANCH  23  26
ATOM     26  C   UNL     1      -2.732  12.191  22.901  0.00  0.00    +0.000 C 
ATOM     27  F   UNL     1      -2.402  13.472  23.225  0.00  0.00    +0.000 F 
ATOM     28  F   UNL     1      -3.699  12.280  21.948  0.00  0.00    +0.000 F 
ATOM     29  F   UNL     1      -3.332  11.668  24.005  0.00  0.00    +0.000 F 
ENDBRANCH  23  26
BRANCH  25  30
ATOM     30  C   UNL     1       0.451  10.857  19.229  0.00  0.00    +0.000 C 
ATOM     31  F   UNL     1       0.194   9.790  18.424  0.00  0.00    +0.000 F 
ATOM     32  F   UNL     1      -0.150  11.920  18.628  0.00  0.00    +0.000 F 
ATOM     33  F   UNL     1       1.791  11.074  19.117  0.00  0.00    +0.000 F 
ENDBRANCH  25  30
ENDBRANCH  19  20
ENDBRANCH  18  19
ENDBRANCH   6  18
TORSDOF 9
ENDMDL
MODEL 2
REMARK VINA RESULT:      -7.7      5.462      9.518
REMARK  Name = 
REMARK  10 active torsions:
REMARK  status: ('A' for Active; 'I' for Inactive)
REMARK    1  A    between atoms: C_1  and  O_2
REMARK    2  A    between atoms: O_2  and  C_3
REMARK    3  A    between atoms: C_5  and  C_6
REMARK    4  A    between atoms: C_7  and  C_8
REMARK    5  A    between atoms: C_7  and  C_10
REMARK    6  A    between atoms: C_15  and  O_16
REMARK    7  A    between atoms: O_16  and  C_17
REMARK    8  A    between atoms: C_17  and  C_18
REMARK    9  A    between atoms: C_21  and  C_22
REMARK   10  A    between atoms: C_27  and  C_28
REMARK                            x       y       z     vdW  Elec       q    Type
REMARK                         _______ _______ _______ _____ _____    ______ ____
ROOT
ATOM      1  C   UNL     1       1.032   8.814  20.395  0.00  0.00    +0.000 A 
ATOM      2  C   UNL     1      -0.153   9.533  20.175  0.00  0.00    +0.000 A 
ATOM      3  C   UNL     1      -0.511   9.944  18.887  0.00  0.00    +0.000 A 
ATOM      4  C   UNL     1       0.344   9.718  17.820  0.00  0.00    +0.000 A 
ATOM      5  C   UNL     1       1.477   8.943  18.015  0.00  0.00    +0.000 A 
ATOM      6  C   UNL     1       1.820   8.464  19.290  0.00  0.00    +0.000 A 
ENDROOT
BRANCH   1   8
ATOM      7  C   UNL     1       0.682   9.317  22.711  0.00  0.00    +0.000 C 
ATOM      8  O   UNL     1       1.229   8.473  21.705  0.00  0.00    +0.000 OA
ENDBRANCH   1   8
BRANCH   3   9
ATOM      9  C   UNL     1      -1.857  10.448  18.611  0.00  0.00    +0.000 C 
ATOM     10  C   UNL     1      -2.235  11.693  18.969  0.00  0.00    +0.000 C 
BRANCH  10  11
ATOM     11  C   UNL     1      -3.634  12.096  18.633  0.00  0.00    +0.000 C 
ATOM     12  N   UNL     1      -4.013  11.985  17.332  0.00  0.00    +0.000 N 
ATOM     13  O   UNL     1      -4.431  12.503  19.472  0.00  0.00    +0.000 OA
ATOM     14  H   UNL     1      -3.432  11.641  16.574  0.00  0.00    +0.000 HD
ATOM     15  H   UNL     1      -4.970  12.237  17.105  0.00  0.00    +0.000 HD
ENDBRANCH  10  11
BRANCH  10  16
ATOM     16  C   UNL     1      -1.379  12.618  19.652  0.00  0.00    +0.000 C 
ATOM     17  N   UNL     1      -0.690  13.330  20.246  0.00  0.00    +0.000 NA
ENDBRANCH  10  16
ENDBRANCH   3   9
BRANCH   6  18
ATOM     18  O   UNL     1       2.879   7.611  19.471  0.00  0.00    +0.000 OA
BRANCH  18  19
ATOM     19  C   UNL     1       2.586   6.255  19.132  0.00  0.00    +0.000 C 
BRANCH  19  20
ATOM     20  C   UNL     1       3.465   5.739  18.025  0.00  0.00    +0.000 A 
ATOM     21  C   UNL     1       4.398   6.601  17.431  0.00  0.00    +0.000 A 
ATOM     22  C   UNL     1       5.162   6.185  16.351  0.00  0.00    +0.000 A 
ATOM     23  C   UNL     1       5.031   4.885  15.856  0.00  0.00    +0.000 A 
ATOM     24  C   UNL     1       4.126   4.002  16.481  0.00  0.00    +0.000 A 
ATOM     25  C   UNL     1       3.336   4.407  17.565  0.00  0.00    +0.000 A 
BRANCH  23  26
ATOM     26  C   UNL     1       5.853   4.439  14.675  0.00  0.00    +0.000 C 
ATOM     27  F   UNL     1       5.102   4.100  13.590  0.00  0.00    +0.000 F 
ATOM     28  F   UNL     1       6.712   5.405  14.250  0.00  0.00    +0.000 F 
ATOM     29  F   UNL     1       6.616   3.349  14.958  0.00  0.00    +0.000 F 
ENDBRANCH  23  26
BRANCH  25  30
ATOM     30  C   UNL     1       2.364   3.395  18.156  0.00  0.00    +0.000 C 
ATOM     31  F   UNL     1       1.055   3.765  18.134  0.00  0.00    +0.000 F 
ATOM     32  F   UNL     1       2.415   2.199  17.507  0.00  0.00    +0.000 F 
ATOM     33  F   UNL     1       2.635   3.121  19.463  0.00  0.00    +0.000 F 
ENDBRANCH  25  30
ENDBRANCH  19  20
ENDBRANCH  18  19
ENDBRANCH   6  18
TORSDOF 9
ENDMDL
MODEL 3
REMARK VINA RESULT:      -7.6      2.902      3.840
REMARK  Name = 
REMARK  10 active torsions:
REMARK  status: ('A' for Active; 'I' for Inactive)
REMARK    1  A    between atoms: C_1  and  O_2
REMARK    2  A    between atoms: O_2  and  C_3
REMARK    3  A    between atoms: C_5  and  C_6
REMARK    4  A    between atoms: C_7  and  C_8
REMARK    5  A    between atoms: C_7  and  C_10
REMARK    6  A    between atoms: C_15  and  O_16
REMARK    7  A    between atoms: O_16  and  C_17
REMARK    8  A    between atoms: C_17  and  C_18
REMARK    9  A    between atoms: C_21  and  C_22
REMARK   10  A    between atoms: C_27  and  C_28
REMARK                            x       y       z     vdW  Elec       q    Type
REMARK                         _______ _______ _______ _____ _____    ______ ____
ROOT
ATOM      1  C   UNL     1       1.116   8.702  20.100  0.00  0.00    +0.000 A 
ATOM      2  C   UNL     1       1.903   7.540  20.128  0.00  0.00    +0.000 A 
ATOM      3  C   UNL     1       2.634   7.146  19.003  0.00  0.00    +0.000 A 
ATOM      4  C   UNL     1       2.526   7.853  17.816  0.00  0.00    +0.000 A 
ATOM      5  C   UNL     1       1.813   9.042  17.802  0.00  0.00    +0.000 A 
ATOM      6  C   UNL     1       1.125   9.491  18.942  0.00  0.00    +0.000 A 
ENDROOT
BRANCH   1   8
ATOM      7  C   UNL     1       1.270   9.149  22.448  0.00  0.00    +0.000 C 
ATOM      8  O   UNL     1       0.478   8.958  21.282  0.00  0.00    +0.000 OA
ENDBRANCH   1   8
BRANCH   3   9
ATOM      9  C   UNL     1       3.657   6.103  19.105  0.00  0.00    +0.000 C 
ATOM     10  C   UNL     1       3.443   4.853  18.644  0.00  0.00    +0.000 C 
BRANCH  10  11
ATOM     11  C   UNL     1       4.561   3.875  18.803  0.00  0.00    +0.000 C 
ATOM     12  N   UNL     1       4.347   2.612  18.346  0.00  0.00    +0.000 N 
ATOM     13  O   UNL     1       5.638   4.169  19.311  0.00  0.00    +0.000 OA
ATOM     14  H   UNL     1       3.500   2.282  17.896  0.00  0.00    +0.000 HD
ATOM     15  H   UNL     1       5.113   1.952  18.435  0.00  0.00    +0.000 HD
ENDBRANCH  10  11
BRANCH  10  16
ATOM     16  C   UNL     1       2.217   4.430  18.035  0.00  0.00    +0.000 C 
ATOM     17  N   UNL     1       1.255   4.085  17.495  0.00  0.00    +0.000 NA
ENDBRANCH  10  16
ENDBRANCH   3   9
BRANCH   6  18
ATOM     18  O   UNL     1       0.508  10.715  18.966  0.00  0.00    +0.000 OA
BRANCH  18  19
ATOM     19  C   UNL     1      -0.597  10.816  18.065  0.00  0.00    +0.000 C 
BRANCH  19  20
ATOM     20  C   UNL     1      -1.799  11.460  18.703  0.00  0.00    +0.000 A 
ATOM     21  C   UNL     1      -1.657  12.103  19.941  0.00  0.00    +0.000 A 
ATOM     22  C   UNL     1      -2.758  12.631  20.599  0.00  0.00    +0.000 A 
ATOM     23  C   UNL     1      -4.027  12.551  20.018  0.00  0.00    +0.000 A 
ATOM     24  C   UNL     1      -4.164  11.945  18.752  0.00  0.00    +0.000 A 
ATOM     25  C   UNL     1      -3.066  11.396  18.078  0.00  0.00    +0.000 A 
BRANCH  23  26
ATOM     26  C   UNL     1      -5.224  13.114  20.740  0.00  0.00    +0.000 C 
ATOM     27  F   UNL     1      -5.038  14.387  21.185  0.00  0.00    +0.000 F 
ATOM     28  F   UNL     1      -6.332  13.149  19.951  0.00  0.00    +0.000 F 
ATOM     29  F   UNL     1      -5.560  12.379  21.835  0.00  0.00    +0.000 F 
ENDBRANCH  23  26
BRANCH  25  30
ATOM     30  C   UNL     1      -3.315  10.734  16.729  0.00  0.00    +0.000 C 
ATOM     31  F   UNL     1      -3.077   9.395  16.687  0.00  0.00    +0.000 F 
ATOM     32  F   UNL     1      -4.604  10.887  16.316  0.00  0.00    +0.000 F 
ATOM     33  F   UNL     1      -2.542  11.266  15.742  0.00  0.00    +0.000 F 
ENDBRANCH  25  30
ENDBRANCH  19  20
ENDBRANCH  18  19
ENDBRANCH   6  18
TORSDOF 9
ENDMDL
MODEL 4
REMARK VINA RESULT:      -7.6      5.476      9.645
REMARK  Name = 
REMARK  10 active torsions:
REMARK  status: ('A' for Active; 'I' for Inactive)
REMARK    1  A    between atoms: C_1  and  O_2
REMARK    2  A    between atoms: O_2  and  C_3
REMARK    3  A    between atoms: C_5  and  C_6
REMARK    4  A    between atoms: C_7  and  C_8
REMARK    5  A    between atoms: C_7  and  C_10
REMARK    6  A    between atoms: C_15  and  O_16
REMARK    7  A    between atoms: O_16  and  C_17
REMARK    8  A    between atoms: C_17  and  C_18
REMARK    9  A    between atoms: C_21  and  C_22
REMARK   10  A    between atoms: C_27  and  C_28
REMARK                            x       y       z     vdW  Elec       q    Type
REMARK                         _______ _______ _______ _____ _____    ______ ____
ROOT
ATOM      1  C   UNL     1       1.052   8.998  20.476  0.00  0.00    +0.000 A 
ATOM      2  C   UNL     1      -0.090   9.811  20.406  0.00  0.00    +0.000 A 
ATOM      3  C   UNL     1      -0.563  10.275  19.174  0.00  0.00    +0.000 A 
ATOM      4  C   UNL     1       0.141  10.006  18.010  0.00  0.00    +0.000 A 
ATOM      5  C   UNL     1       1.224   9.142  18.061  0.00  0.00    +0.000 A 
ATOM      6  C   UNL     1       1.674   8.611  19.282  0.00  0.00    +0.000 A 
ENDROOT
BRANCH   1   8
ATOM      7  C   UNL     1       0.738   9.283  22.834  0.00  0.00    +0.000 C 
ATOM      8  O   UNL     1       1.373   8.615  21.749  0.00  0.00    +0.000 OA
ENDBRANCH   1   8
BRANCH   3   9
ATOM      9  C   UNL     1      -1.888  10.887  19.064  0.00  0.00    +0.000 C 
ATOM     10  C   UNL     1      -2.176  12.064  19.659  0.00  0.00    +0.000 C 
BRANCH  10  11
ATOM     11  C   UNL     1      -3.563  12.590  19.476  0.00  0.00    +0.000 C 
ATOM     12  N   UNL     1      -3.860  13.770  20.082  0.00  0.00    +0.000 N 
ATOM     13  O   UNL     1      -4.414  12.011  18.809  0.00  0.00    +0.000 OA
ATOM     14  H   UNL     1      -3.219  14.329  20.634  0.00  0.00    +0.000 HD
ATOM     15  H   UNL     1      -4.795  14.140  19.941  0.00  0.00    +0.000 HD
ENDBRANCH  10  11
BRANCH  10  16
ATOM     16  C   UNL     1      -1.239  12.806  20.449  0.00  0.00    +0.000 C 
ATOM     17  N   UNL     1      -0.522  13.409  21.126  0.00  0.00    +0.000 NA
ENDBRANCH  10  16
ENDBRANCH   3   9
BRANCH   6  18
ATOM     18  O   UNL     1       2.676   7.676  19.326  0.00  0.00    +0.000 OA
BRANCH  18  19
ATOM     19  C   UNL     1       2.323   6.430  18.722  0.00  0.00    +0.000 C 
BRANCH  19  20
ATOM     20  C   UNL     1       3.418   5.890  17.841  0.00  0.00    +0.000 A 
ATOM     21  C   UNL     1       4.410   6.761  17.367  0.00  0.00    +0.000 A 
ATOM     22  C   UNL     1       5.382   6.317  16.484  0.00  0.00    +0.000 A 
ATOM     23  C   UNL     1       5.402   4.981  16.075  0.00  0.00    +0.000 A 
ATOM     24  C   UNL     1       4.433   4.093  16.587  0.00  0.00    +0.000 A 
ATOM     25  C   UNL     1       3.435   4.525  17.469  0.00  0.00    +0.000 A 
BRANCH  23  26
ATOM     26  C   UNL     1       6.453   4.503  15.106  0.00  0.00    +0.000 C 
ATOM     27  F   UNL     1       6.725   5.400  14.118  0.00  0.00    +0.000 F 
ATOM     28  F   UNL     1       7.640   4.244  15.718  0.00  0.00    +0.000 F 
ATOM     29  F   UNL     1       6.090   3.352  14.477  0.00  0.00    +0.000 F 
ENDBRANCH  23  26
BRANCH  25  30
ATOM     30  C   UNL     1       2.412   3.503  17.945  0.00  0.00    +0.000 C 
ATOM     31  F   UNL     1       2.525   2.266  17.390  0.00  0.00    +0.000 F 
ATOM     32  F   UNL     1       2.477   3.305  19.291  0.00  0.00    +0.000 F 
ATOM     33  F   UNL     1       1.132   3.894  17.688  0.00  0.00    +0.000 F 
ENDBRANCH  25  30
ENDBRANCH  19  20
ENDBRANCH  18  19
ENDBRANCH   6  18
TORSDOF 9
ENDMDL
MODEL 5
REMARK VINA RESULT:      -7.6      2.657      3.680
REMARK  Name = 
REMARK  10 active torsions:
REMARK  status: ('A' for Active; 'I' for Inactive)
REMARK    1  A    between atoms: C_1  and  O_2
REMARK    2  A    between atoms: O_2  and  C_3
REMARK    3  A    between atoms: C_5  and  C_6
REMARK    4  A    between atoms: C_7  and  C_8
REMARK    5  A    between atoms: C_7  and  C_10
REMARK    6  A    between atoms: C_15  and  O_16
REMARK    7  A    between atoms: O_16  and  C_17
REMARK    8  A    between atoms: C_17  and  C_18
REMARK    9  A    between atoms: C_21  and  C_22
REMARK   10  A    between atoms: C_27  and  C_28
REMARK                            x       y       z     vdW  Elec       q    Type
REMARK                         _______ _______ _______ _____ _____    ______ ____
ROOT
ATOM      1  C   UNL     1       1.372   8.504  20.190  0.00  0.00    +0.000 A 
ATOM      2  C   UNL     1       2.209   7.413  19.914  0.00  0.00    +0.000 A 
ATOM      3  C   UNL     1       2.730   7.218  18.631  0.00  0.00    +0.000 A 
ATOM      4  C   UNL     1       2.358   8.058  17.592  0.00  0.00    +0.000 A 
ATOM      5  C   UNL     1       1.595   9.181  17.873  0.00  0.00    +0.000 A 
ATOM      6  C   UNL     1       1.117   9.430  19.170  0.00  0.00    +0.000 A 
ENDROOT
BRANCH   1   8
ATOM      7  C   UNL     1      -0.434   8.478  21.765  0.00  0.00    +0.000 C 
ATOM      8  O   UNL     1       0.961   8.561  21.494  0.00  0.00    +0.000 OA
ENDBRANCH   1   8
BRANCH   3   9
ATOM      9  C   UNL     1       3.805   6.253  18.399  0.00  0.00    +0.000 C 
ATOM     10  C   UNL     1       3.550   4.989  18.000  0.00  0.00    +0.000 C 
BRANCH  10  11
ATOM     11  C   UNL     1       4.729   4.096  17.795  0.00  0.00    +0.000 C 
ATOM     12  N   UNL     1       5.258   3.508  18.902  0.00  0.00    +0.000 N 
ATOM     13  O   UNL     1       5.217   3.874  16.692  0.00  0.00    +0.000 OA
ATOM     14  H   UNL     1       4.912   3.614  19.850  0.00  0.00    +0.000 HD
ATOM     15  H   UNL     1       6.046   2.883  18.763  0.00  0.00    +0.000 HD
ENDBRANCH  10  11
BRANCH  10  16
ATOM     16  C   UNL     1       2.230   4.476  17.781  0.00  0.00    +0.000 C 
ATOM     17  N   UNL     1       1.177   4.060  17.551  0.00  0.00    +0.000 NA
ENDBRANCH  10  16
ENDBRANCH   3   9
BRANCH   6  18
ATOM     18  O   UNL     1       0.453  10.591  19.475  0.00  0.00    +0.000 OA
BRANCH  18  19
ATOM     19  C   UNL     1      -0.453  11.015  18.455  0.00  0.00    +0.000 C 
BRANCH  19  20
ATOM     20  C   UNL     1      -1.722  11.594  19.021  0.00  0.00    +0.000 A 
ATOM     21  C   UNL     1      -1.685  12.246  20.262  0.00  0.00    +0.000 A 
ATOM     22  C   UNL     1      -2.849  12.713  20.854  0.00  0.00    +0.000 A 
ATOM     23  C   UNL     1      -4.077  12.564  20.204  0.00  0.00    +0.000 A 
ATOM     24  C   UNL     1      -4.109  11.949  18.934  0.00  0.00    +0.000 A 
ATOM     25  C   UNL     1      -2.947  11.460  18.325  0.00  0.00    +0.000 A 
BRANCH  23  26
ATOM     26  C   UNL     1      -5.342  13.061  20.854  0.00  0.00    +0.000 C 
ATOM     27  F   UNL     1      -5.989  14.010  20.123  0.00  0.00    +0.000 F 
ATOM     28  F   UNL     1      -6.243  12.063  21.059  0.00  0.00    +0.000 F 
ATOM     29  F   UNL     1      -5.110  13.621  22.073  0.00  0.00    +0.000 F 
ENDBRANCH  23  26
BRANCH  25  30
ATOM     30  C   UNL     1      -3.083  10.784  16.968  0.00  0.00    +0.000 C 
ATOM     31  F   UNL     1      -2.303  11.302  15.981  0.00  0.00    +0.000 F 
ATOM     32  F   UNL     1      -2.768   9.460  17.024  0.00  0.00    +0.000 F 
ATOM     33  F   UNL     1      -4.356  10.844  16.486  0.00  0.00    +0.000 F 
ENDBRANCH  25  30
ENDBRANCH  19  20
ENDBRANCH  18  19
ENDBRANCH   6  18
TORSDOF 9
ENDMDL
MODEL 6
REMARK VINA RESULT:      -7.6      2.744      3.723
REMARK  Name = 
REMARK  10 active torsions:
REMARK  status: ('A' for Active; 'I' for Inactive)
REMARK    1  A    between atoms: C_1  and  O_2
REMARK    2  A    between atoms: O_2  and  C_3
REMARK    3  A    between atoms: C_5  and  C_6
REMARK    4  A    between atoms: C_7  and  C_8
REMARK    5  A    between atoms: C_7  and  C_10
REMARK    6  A    between atoms: C_15  and  O_16
REMARK    7  A    between atoms: O_16  and  C_17
REMARK    8  A    between atoms: C_17  and  C_18
REMARK    9  A    between atoms: C_21  and  C_22
REMARK   10  A    between atoms: C_27  and  C_28
REMARK                            x       y       z     vdW  Elec       q    Type
REMARK                         _______ _______ _______ _____ _____    ______ ____
ROOT
ATOM      1  C   UNL     1       1.338   8.514  20.208  0.00  0.00    +0.000 A 
ATOM      2  C   UNL     1       2.124   7.355  20.298  0.00  0.00    +0.000 A 
ATOM      3  C   UNL     1       2.790   6.854  19.176  0.00  0.00    +0.000 A 
ATOM      4  C   UNL     1       2.615   7.451  17.936  0.00  0.00    +0.000 A 
ATOM      5  C   UNL     1       1.905   8.639  17.854  0.00  0.00    +0.000 A 
ATOM      6  C   UNL     1       1.283   9.194  18.985  0.00  0.00    +0.000 A 
ENDROOT
BRANCH   1   8
ATOM      7  C   UNL     1      -0.586   8.516  21.636  0.00  0.00    +0.000 C 
ATOM      8  O   UNL     1       0.769   8.882  21.396  0.00  0.00    +0.000 OA
ENDBRANCH   1   8
BRANCH   3   9
ATOM      9  C   UNL     1       3.815   5.819  19.315  0.00  0.00    +0.000 C 
ATOM     10  C   UNL     1       3.605   4.553  18.897  0.00  0.00    +0.000 C 
BRANCH  10  11
ATOM     11  C   UNL     1       4.725   3.584  19.092  0.00  0.00    +0.000 C 
ATOM     12  N   UNL     1       5.880   3.833  18.420  0.00  0.00    +0.000 N 
ATOM     13  O   UNL     1       4.641   2.604  19.826  0.00  0.00    +0.000 OA
ATOM     14  H   UNL     1       6.050   4.625  17.809  0.00  0.00    +0.000 HD
ATOM     15  H   UNL     1       6.651   3.187  18.568  0.00  0.00    +0.000 HD
ENDBRANCH  10  11
BRANCH  10  16
ATOM     16  C   UNL     1       2.380   4.105  18.303  0.00  0.00    +0.000 C 
ATOM     17  N   UNL     1       1.390   3.792  17.796  0.00  0.00    +0.000 NA
ENDBRANCH  10  16
ENDBRANCH   3   9
BRANCH   6  18
ATOM     18  O   UNL     1       0.669  10.420  18.931  0.00  0.00    +0.000 OA
BRANCH  18  19
ATOM     19  C   UNL     1      -0.517  10.431  18.134  0.00  0.00    +0.000 C 
BRANCH  19  20
ATOM     20  C   UNL     1      -1.633  11.206  18.780  0.00  0.00    +0.000 A 
ATOM     21  C   UNL     1      -1.416  11.812  20.026  0.00  0.00    +0.000 A 
ATOM     22  C   UNL     1      -2.448  12.459  20.691  0.00  0.00    +0.000 A 
ATOM     23  C   UNL     1      -3.716  12.538  20.111  0.00  0.00    +0.000 A 
ATOM     24  C   UNL     1      -3.924  11.968  18.837  0.00  0.00    +0.000 A 
ATOM     25  C   UNL     1      -2.899  11.300  18.155  0.00  0.00    +0.000 A 
BRANCH  23  26
ATOM     26  C   UNL     1      -4.839  13.230  20.840  0.00  0.00    +0.000 C 
ATOM     27  F   UNL     1      -5.529  14.108  20.061  0.00  0.00    +0.000 F 
ATOM     28  F   UNL     1      -5.758  12.352  21.324  0.00  0.00    +0.000 F 
ATOM     29  F   UNL     1      -4.396  13.947  21.909  0.00  0.00    +0.000 F 
ENDBRANCH  23  26
BRANCH  25  30
ATOM     30  C   UNL     1      -3.224  10.689  16.799  0.00  0.00    +0.000 C 
ATOM     31  F   UNL     1      -4.479  10.938  16.336  0.00  0.00    +0.000 F 
ATOM     32  F   UNL     1      -2.382  11.133  15.825  0.00  0.00    +0.000 F 
ATOM     33  F   UNL     1      -3.107   9.332  16.803  0.00  0.00    +0.000 F 
ENDBRANCH  25  30
ENDBRANCH  19  20
ENDBRANCH  18  19
ENDBRANCH   6  18
TORSDOF 9
ENDMDL
MODEL 7
REMARK VINA RESULT:      -7.6      5.230      9.713
REMARK  Name = 
REMARK  10 active torsions:
REMARK  status: ('A' for Active; 'I' for Inactive)
REMARK    1  A    between atoms: C_1  and  O_2
REMARK    2  A    between atoms: O_2  and  C_3
REMARK    3  A    between atoms: C_5  and  C_6
REMARK    4  A    between atoms: C_7  and  C_8
REMARK    5  A    between atoms: C_7  and  C_10
REMARK    6  A    between atoms: C_15  and  O_16
REMARK    7  A    between atoms: O_16  and  C_17
REMARK    8  A    between atoms: C_17  and  C_18
REMARK    9  A    between atoms: C_21  and  C_22
REMARK   10  A    between atoms: C_27  and  C_28
REMARK                            x       y       z     vdW  Elec       q    Type
REMARK                         _______ _______ _______ _____ _____    ______ ____
ROOT
ATOM      1  C   UNL     1       0.320   9.561  19.154  0.00  0.00    +0.000 A 
ATOM      2  C   UNL     1      -0.484  10.285  20.048  0.00  0.00    +0.000 A 
ATOM      3  C   UNL     1      -0.278  10.195  21.428  0.00  0.00    +0.000 A 
ATOM      4  C   UNL     1       0.671   9.322  21.937  0.00  0.00    +0.000 A 
ATOM      5  C   UNL     1       1.519   8.663  21.061  0.00  0.00    +0.000 A 
ATOM      6  C   UNL     1       1.372   8.793  19.670  0.00  0.00    +0.000 A 
ENDROOT
BRANCH   1   8
ATOM      7  C   UNL     1      -1.354  10.050  17.511  0.00  0.00    +0.000 C 
ATOM      8  O   UNL     1       0.002   9.771  17.841  0.00  0.00    +0.000 OA
ENDBRANCH   1   8
BRANCH   3   9
ATOM      9  C   UNL     1      -0.921  11.140  22.343  0.00  0.00    +0.000 C 
ATOM     10  C   UNL     1      -0.635  12.458  22.317  0.00  0.00    +0.000 C 
BRANCH  10  11
ATOM     11  C   UNL     1      -1.354  13.324  23.299  0.00  0.00    +0.000 C 
ATOM     12  N   UNL     1      -2.702  13.167  23.389  0.00  0.00    +0.000 N 
ATOM     13  O   UNL     1      -0.783  14.142  24.013  0.00  0.00    +0.000 OA
ATOM     14  H   UNL     1      -3.257  12.506  22.857  0.00  0.00    +0.000 HD
ATOM     15  H   UNL     1      -3.190  13.740  24.072  0.00  0.00    +0.000 HD
ENDBRANCH  10  11
BRANCH  10  16
ATOM     16  C   UNL     1       0.315  13.048  21.420  0.00  0.00    +0.000 C 
ATOM     17  N   UNL     1       1.064  13.573  20.714  0.00  0.00    +0.000 NA
ENDBRANCH  10  16
ENDBRANCH   3   9
BRANCH   6  18
ATOM     18  O   UNL     1       2.271   8.228  18.802  0.00  0.00    +0.000 OA
BRANCH  18  19
ATOM     19  C   UNL     1       2.140   6.810  18.684  0.00  0.00    +0.000 C 
BRANCH  19  20
ATOM     20  C   UNL     1       3.296   6.187  17.950  0.00  0.00    +0.000 A 
ATOM     21  C   UNL     1       4.394   6.985  17.595  0.00  0.00    +0.000 A 
ATOM     22  C   UNL     1       5.436   6.465  16.842  0.00  0.00    +0.000 A 
ATOM     23  C   UNL     1       5.418   5.124  16.449  0.00  0.00    +0.000 A 
ATOM     24  C   UNL     1       4.337   4.308  16.844  0.00  0.00    +0.000 A 
ATOM     25  C   UNL     1       3.269   4.818  17.594  0.00  0.00    +0.000 A 
BRANCH  23  26
ATOM     26  C   UNL     1       6.546   4.564  15.621  0.00  0.00    +0.000 C 
ATOM     27  F   UNL     1       7.677   4.323  16.340  0.00  0.00    +0.000 F 
ATOM     28  F   UNL     1       6.216   3.383  15.032  0.00  0.00    +0.000 F 
ATOM     29  F   UNL     1       6.913   5.402  14.614  0.00  0.00    +0.000 F 
ENDBRANCH  23  26
BRANCH  25  30
ATOM     30  C   UNL     1       2.130   3.872  17.948  0.00  0.00    +0.000 C 
ATOM     31  F   UNL     1       0.913   4.214  17.445  0.00  0.00    +0.000 F 
ATOM     32  F   UNL     1       2.363   2.605  17.505  0.00  0.00    +0.000 F 
ATOM     33  F   UNL     1       1.945   3.767  19.293  0.00  0.00    +0.000 F 
ENDBRANCH  25  30
ENDBRANCH  19  20
ENDBRANCH  18  19
ENDBRANCH   6  18
TORSDOF 9
ENDMDL
MODEL 8
REMARK VINA RESULT:      -7.5      2.712      3.746
REMARK  Name = 
REMARK  10 active torsions:
REMARK  status: ('A' for Active; 'I' for Inactive)
REMARK    1  A    between atoms: C_1  and  O_2
REMARK    2  A    between atoms: O_2  and  C_3
REMARK    3  A    between atoms: C_5  and  C_6
REMARK    4  A    between atoms: C_7  and  C_8
REMARK    5  A    between atoms: C_7  and  C_10
REMARK    6  A    between atoms: C_15  and  O_16
REMARK    7  A    between atoms: O_16  and  C_17
REMARK    8  A    between atoms: C_17  and  C_18
REMARK    9  A    between atoms: C_21  and  C_22
REMARK   10  A    between atoms: C_27  and  C_28
REMARK                            x       y       z     vdW  Elec       q    Type
REMARK                         _______ _______ _______ _____ _____    ______ ____
ROOT
ATOM      1  C   UNL     1       1.373   8.473  20.269  0.00  0.00    +0.000 A 
ATOM      2  C   UNL     1       2.215   7.395  19.958  0.00  0.00    +0.000 A 
ATOM      3  C   UNL     1       2.735   7.243  18.669  0.00  0.00    +0.000 A 
ATOM      4  C   UNL     1       2.357   8.112  17.657  0.00  0.00    +0.000 A 
ATOM      5  C   UNL     1       1.589   9.222  17.973  0.00  0.00    +0.000 A 
ATOM      6  C   UNL     1       1.112   9.428  19.278  0.00  0.00    +0.000 A 
ENDROOT
BRANCH   1   8
ATOM      7  C   UNL     1      -0.403   8.778  21.849  0.00  0.00    +0.000 C 
ATOM      8  O   UNL     1       0.963   8.488  21.574  0.00  0.00    +0.000 OA
ENDBRANCH   1   8
BRANCH   3   9
ATOM      9  C   UNL     1       3.815   6.291  18.405  0.00  0.00    +0.000 C 
ATOM     10  C   UNL     1       3.566   5.040  17.965  0.00  0.00    +0.000 C 
BRANCH  10  11
ATOM     11  C   UNL     1       4.750   4.159  17.732  0.00  0.00    +0.000 C 
ATOM     12  N   UNL     1       5.139   3.363  18.763  0.00  0.00    +0.000 N 
ATOM     13  O   UNL     1       5.360   4.126  16.668  0.00  0.00    +0.000 OA
ATOM     14  H   UNL     1       4.688   3.307  19.670  0.00  0.00    +0.000 HD
ATOM     15  H   UNL     1       5.931   2.748  18.600  0.00  0.00    +0.000 HD
ENDBRANCH  10  11
BRANCH  10  16
ATOM     16  C   UNL     1       2.249   4.528  17.729  0.00  0.00    +0.000 C 
ATOM     17  N   UNL     1       1.192   4.083  17.583  0.00  0.00    +0.000 NA
ENDBRANCH  10  16
ENDBRANCH   3   9
BRANCH   6  18
ATOM     18  O   UNL     1       0.442  10.576  19.619  0.00  0.00    +0.000 OA
BRANCH  18  19
ATOM     19  C   UNL     1      -0.248  11.182  18.524  0.00  0.00    +0.000 C 
BRANCH  19  20
ATOM     20  C   UNL     1      -1.635  11.631  18.899  0.00  0.00    +0.000 A 
ATOM     21  C   UNL     1      -1.822  12.368  20.078  0.00  0.00    +0.000 A 
ATOM     22  C   UNL     1      -3.095  12.723  20.499  0.00  0.00    +0.000 A 
ATOM     23  C   UNL     1      -4.211  12.371  19.736  0.00  0.00    +0.000 A 
ATOM     24  C   UNL     1      -4.021  11.669  18.527  0.00  0.00    +0.000 A 
ATOM     25  C   UNL     1      -2.745  11.291  18.090  0.00  0.00    +0.000 A 
BRANCH  23  26
ATOM     26  C   UNL     1      -5.594  12.746  20.202  0.00  0.00    +0.000 C 
ATOM     27  F   UNL     1      -6.056  11.959  21.212  0.00  0.00    +0.000 F 
ATOM     28  F   UNL     1      -5.654  14.025  20.662  0.00  0.00    +0.000 F 
ATOM     29  F   UNL     1      -6.517  12.657  19.206  0.00  0.00    +0.000 F 
ENDBRANCH  23  26
BRANCH  25  30
ATOM     30  C   UNL     1      -2.639  10.509  16.789  0.00  0.00    +0.000 C 
ATOM     31  F   UNL     1      -1.776   9.457  16.812  0.00  0.00    +0.000 F 
ATOM     32  F   UNL     1      -3.838   9.987  16.408  0.00  0.00    +0.000 F 
ATOM     33  F   UNL     1      -2.225  11.288  15.750  0.00  0.00    +0.000 F 
ENDBRANCH  25  30
ENDBRANCH  19  20
ENDBRANCH  18  19
ENDBRANCH   6  18
TORSDOF 9
ENDMDL
MODEL 9
REMARK VINA RESULT:      -7.5      5.259      9.487
REMARK  Name = 
REMARK  10 active torsions:
REMARK  status: ('A' for Active; 'I' for Inactive)
REMARK    1  A    between atoms: C_1  and  O_2
REMARK    2  A    between atoms: O_2  and  C_3
REMARK    3  A    between atoms: C_5  and  C_6
REMARK    4  A    between atoms: C_7  and  C_8
REMARK    5  A    between atoms: C_7  and  C_10
REMARK    6  A    between atoms: C_15  and  O_16
REMARK    7  A    between atoms: O_16  and  C_17
REMARK    8  A    between atoms: C_17  and  C_18
REMARK    9  A    between atoms: C_21  and  C_22
REMARK   10  A    between atoms: C_27  and  C_28
REMARK                            x       y       z     vdW  Elec       q    Type
REMARK                         _______ _______ _______ _____ _____    ______ ____
ROOT
ATOM      1  C   UNL     1       0.765   9.217  20.480  0.00  0.00    +0.000 A 
ATOM      2  C   UNL     1      -0.324  10.101  20.435  0.00  0.00    +0.000 A 
ATOM      3  C   UNL     1      -0.686  10.729  19.240  0.00  0.00    +0.000 A 
ATOM      4  C   UNL     1       0.079  10.551  18.098  0.00  0.00    +0.000 A 
ATOM      5  C   UNL     1       1.107   9.621  18.113  0.00  0.00    +0.000 A 
ATOM      6  C   UNL     1       1.445   8.929  19.289  0.00  0.00    +0.000 A 
ENDROOT
BRANCH   1   8
ATOM      7  C   UNL     1       0.317   9.259  22.833  0.00  0.00    +0.000 C 
ATOM      8  O   UNL     1       0.978   8.673  21.716  0.00  0.00    +0.000 OA
ENDBRANCH   1   8
BRANCH   3   9
ATOM      9  C   UNL     1      -1.965  11.431  19.122  0.00  0.00    +0.000 C 
ATOM     10  C   UNL     1      -2.861  11.116  18.162  0.00  0.00    +0.000 C 
BRANCH  10  11
ATOM     11  C   UNL     1      -4.131  11.902  18.142  0.00  0.00    +0.000 C 
ATOM     12  N   UNL     1      -4.417  12.641  19.247  0.00  0.00    +0.000 N 
ATOM     13  O   UNL     1      -4.898  11.908  17.184  0.00  0.00    +0.000 OA
ATOM     14  H   UNL     1      -3.837  12.715  20.076  0.00  0.00    +0.000 HD
ATOM     15  H   UNL     1      -5.270  13.193  19.226  0.00  0.00    +0.000 HD
ENDBRANCH  10  11
BRANCH  10  16
ATOM     16  C   UNL     1      -2.646  10.096  17.179  0.00  0.00    +0.000 C 
ATOM     17  N   UNL     1      -2.425   9.261  16.411  0.00  0.00    +0.000 NA
ENDBRANCH  10  16
ENDBRANCH   3   9
BRANCH   6  18
ATOM     18  O   UNL     1       2.389   7.935  19.284  0.00  0.00    +0.000 OA
BRANCH  18  19
ATOM     19  C   UNL     1       2.036   6.814  18.472  0.00  0.00    +0.000 C 
BRANCH  19  20
ATOM     20  C   UNL     1       3.235   6.176  17.823  0.00  0.00    +0.000 A 
ATOM     21  C   UNL     1       4.331   6.976  17.471  0.00  0.00    +0.000 A 
ATOM     22  C   UNL     1       5.415   6.438  16.793  0.00  0.00    +0.000 A 
ATOM     23  C   UNL     1       5.439   5.077  16.475  0.00  0.00    +0.000 A 
ATOM     24  C   UNL     1       4.357   4.262  16.870  0.00  0.00    +0.000 A 
ATOM     25  C   UNL     1       3.248   4.789  17.544  0.00  0.00    +0.000 A 
BRANCH  23  26
ATOM     26  C   UNL     1       6.612   4.497  15.728  0.00  0.00    +0.000 C 
ATOM     27  F   UNL     1       6.318   3.336  15.078  0.00  0.00    +0.000 F 
ATOM     28  F   UNL     1       7.092   5.347  14.781  0.00  0.00    +0.000 F 
ATOM     29  F   UNL     1       7.658   4.211  16.550  0.00  0.00    +0.000 F 
ENDBRANCH  23  26
BRANCH  25  30
ATOM     30  C   UNL     1       2.114   3.839  17.902  0.00  0.00    +0.000 C 
ATOM     31  F   UNL     1       0.885   4.204  17.446  0.00  0.00    +0.000 F 
ATOM     32  F   UNL     1       2.325   2.586  17.413  0.00  0.00    +0.000 F 
ATOM     33  F   UNL     1       1.967   3.694  19.249  0.00  0.00    +0.000 F 
ENDBRANCH  25  30
ENDBRANCH  19  20
ENDBRANCH  18  19
ENDBRANCH   6  18
TORSDOF 9
ENDMDL
