MODEL 1
REMARK VINA RESULT:      -7.7      0.000      0.000
REMARK  Name = 
REMARK  2 active torsions:
REMARK  status: ('A' for Active; 'I' for Inactive)
REMARK    1  A    between atoms: C_6  and  C_7
REMARK    2  A    between atoms: C_13  and  N_14
REMARK                            x       y       z     vdW  Elec       q    Type
REMARK                         _______ _______ _______ _____ _____    ______ ____
ROOT
ATOM      1  C   UNL     1       3.550   4.609  19.533  0.00  0.00    +0.000 A 
ATOM      2  C   UNL     1       3.508   3.269  20.010  0.00  0.00    +0.000 A 
ATOM      3 CL   UNL     1       4.704   2.064  19.676  0.00  0.00    +0.000 Cl
ATOM      4  C   UNL     1       2.432   2.781  20.768  0.00  0.00    +0.000 A 
ATOM      5  C   UNL     1       1.339   3.580  21.043  0.00  0.00    +0.000 A 
ATOM      6  C   UNL     1       1.315   4.879  20.556  0.00  0.00    +0.000 A 
ATOM      7  C   UNL     1       2.393   5.420  19.812  0.00  0.00    +0.000 A 
ENDROOT
BRANCH   1  13
ATOM      8  O   UNL     1       6.044   3.783  15.840  0.00  0.00    +0.000 OA
ATOM      9  C   UNL     1       5.795   4.161  16.971  0.00  0.00    +0.000 C 
ATOM     10  N   UNL     1       6.666   4.184  17.990  0.00  0.00    +0.000 N 
ATOM     11  C   UNL     1       6.154   4.900  19.014  0.00  0.00    +0.000 C 
ATOM     12  O   UNL     1       6.809   5.377  19.928  0.00  0.00    +0.000 OA
ATOM     13  C   UNL     1       4.704   5.152  18.712  0.00  0.00    +0.000 C 
ATOM     14  O   UNL     1       4.599   4.674  17.360  0.00  0.00    +0.000 OA
ATOM     15  H   UNL     1       7.645   3.995  17.874  0.00  0.00    +0.000 HD
ENDBRANCH   1  13
BRANCH   7  16
ATOM     16  N   UNL     1       2.206   6.790  19.379  0.00  0.00    +0.000 N 
ATOM     17  C   UNL     1       1.781   7.888  20.099  0.00  0.00    +0.000 A 
ATOM     18  C   UNL     1       1.710   8.994  19.279  0.00  0.00    +0.000 A 
ATOM     19  C   UNL     1       2.059   8.576  17.987  0.00  0.00    +0.000 A 
ATOM     20  C   UNL     1       2.362   7.236  18.070  0.00  0.00    +0.000 A 
ENDBRANCH   7  16
TORSDOF 2
ENDMDL
MODEL 2
REMARK VINA RESULT:      -7.5      2.614      4.230
REMARK  Name = 
REMARK  2 active torsions:
REMARK  status: ('A' for Active; 'I' for Inactive)
REMARK    1  A    between atoms: C_6  and  C_7
REMARK    2  A    between atoms: C_13  and  N_14
REMARK                            x       y       z     vdW  Elec       q    Type
REMARK                         _______ _______ _______ _____ _____    ______ ____
ROOT
ATOM      1  C   UNL     1       2.938   4.669  18.228  0.00  0.00    +0.000 A 
ATOM      2  C   UNL     1       3.756   3.700  17.584  0.00  0.00    +0.000 A 
ATOM      3 CL   UNL     1       3.693   1.997  17.883  0.00  0.00    +0.000 Cl
ATOM      4  C   UNL     1       4.756   4.060  16.666  0.00  0.00    +0.000 A 
ATOM      5  C   UNL     1       5.014   5.388  16.385  0.00  0.00    +0.000 A 
ATOM      6  C   UNL     1       4.272   6.368  17.027  0.00  0.00    +0.000 A 
ATOM      7  C   UNL     1       3.236   6.048  17.938  0.00  0.00    +0.000 A 
ENDROOT
BRANCH   1  13
ATOM      8  O   UNL     1       2.293   2.983  22.385  0.00  0.00    +0.000 OA
ATOM      9  C   UNL     1       2.071   3.188  21.205  0.00  0.00    +0.000 C 
ATOM     10  N   UNL     1       1.432   2.349  20.378  0.00  0.00    +0.000 N 
ATOM     11  C   UNL     1       1.120   2.986  19.229  0.00  0.00    +0.000 C 
ATOM     12  O   UNL     1       0.271   2.616  18.434  0.00  0.00    +0.000 OA
ATOM     13  C   UNL     1       1.855   4.297  19.223  0.00  0.00    +0.000 C 
ATOM     14  O   UNL     1       2.392   4.338  20.556  0.00  0.00    +0.000 OA
ATOM     15  H   UNL     1       0.974   1.514  20.697  0.00  0.00    +0.000 HD
ENDBRANCH   1  13
BRANCH   7  16
ATOM     16  N   UNL     1       2.561   7.191  18.519  0.00  0.00    +0.000 N 
ATOM     17  C   UNL     1       2.173   7.411  19.825  0.00  0.00    +0.000 A 
ATOM     18  C   UNL     1       1.524   8.624  19.928  0.00  0.00    +0.000 A 
ATOM     19  C   UNL     1       1.460   9.172  18.639  0.00  0.00    +0.000 A 
ATOM     20  C   UNL     1       2.102   8.290  17.799  0.00  0.00    +0.000 A 
ENDBRANCH   7  16
TORSDOF 2
ENDMDL
MODEL 3
REMARK VINA RESULT:      -7.4      2.181      3.987
REMARK  Name = 
REMARK  2 active torsions:
REMARK  status: ('A' for Active; 'I' for Inactive)
REMARK    1  A    between atoms: C_6  and  C_7
REMARK    2  A    between atoms: C_13  and  N_14
REMARK                            x       y       z     vdW  Elec       q    Type
REMARK                         _______ _______ _______ _____ _____    ______ ____
ROOT
ATOM      1  C   UNL     1       3.563   5.750  18.095  0.00  0.00    +0.000 A 
ATOM      2  C   UNL     1       3.837   6.962  17.402  0.00  0.00    +0.000 A 
ATOM      3 CL   UNL     1       5.119   7.180  16.262  0.00  0.00    +0.000 Cl
ATOM      4  C   UNL     1       3.104   8.136  17.637  0.00  0.00    +0.000 A 
ATOM      5  C   UNL     1       2.107   8.170  18.592  0.00  0.00    +0.000 A 
ATOM      6  C   UNL     1       1.838   7.024  19.326  0.00  0.00    +0.000 A 
ATOM      7  C   UNL     1       2.535   5.810  19.102  0.00  0.00    +0.000 A 
ENDROOT
BRANCH   1  13
ATOM      8  O   UNL     1       3.293   1.240  18.451  0.00  0.00    +0.000 OA
ATOM      9  C   UNL     1       3.808   2.343  18.471  0.00  0.00    +0.000 C 
ATOM     10  N   UNL     1       4.852   2.698  19.234  0.00  0.00    +0.000 N 
ATOM     11  C   UNL     1       5.337   3.889  18.823  0.00  0.00    +0.000 C 
ATOM     12  O   UNL     1       6.451   4.316  19.081  0.00  0.00    +0.000 OA
ATOM     13  C   UNL     1       4.346   4.473  17.855  0.00  0.00    +0.000 C 
ATOM     14  O   UNL     1       3.434   3.376  17.673  0.00  0.00    +0.000 OA
ATOM     15  H   UNL     1       5.377   2.038  19.779  0.00  0.00    +0.000 HD
ENDBRANCH   1  13
BRANCH   7  16
ATOM     16  N   UNL     1       2.131   4.711  19.954  0.00  0.00    +0.000 N 
ATOM     17  C   UNL     1       1.103   3.804  19.790  0.00  0.00    +0.000 A 
ATOM     18  C   UNL     1       1.053   2.944  20.867  0.00  0.00    +0.000 A 
ATOM     19  C   UNL     1       2.054   3.344  21.764  0.00  0.00    +0.000 A 
ATOM     20  C   UNL     1       2.701   4.414  21.188  0.00  0.00    +0.000 A 
ENDBRANCH   7  16
TORSDOF 2
ENDMDL
MODEL 4
REMARK VINA RESULT:      -7.3      2.100      4.263
REMARK  Name = 
REMARK  2 active torsions:
REMARK  status: ('A' for Active; 'I' for Inactive)
REMARK    1  A    between atoms: C_6  and  C_7
REMARK    2  A    between atoms: C_13  and  N_14
REMARK                            x       y       z     vdW  Elec       q    Type
REMARK                         _______ _______ _______ _____ _____    ______ ____
ROOT
ATOM      1  C   UNL     1       4.293   5.572  17.827  0.00  0.00    +0.000 A 
ATOM      2  C   UNL     1       4.581   6.914  17.449  0.00  0.00    +0.000 A 
ATOM      3 CL   UNL     1       6.142   7.495  16.983  0.00  0.00    +0.000 Cl
ATOM      4  C   UNL     1       3.605   7.921  17.478  0.00  0.00    +0.000 A 
ATOM      5  C   UNL     1       2.324   7.655  17.924  0.00  0.00    +0.000 A 
ATOM      6  C   UNL     1       2.012   6.372  18.348  0.00  0.00    +0.000 A 
ATOM      7  C   UNL     1       2.960   5.319  18.308  0.00  0.00    +0.000 A 
ENDROOT
BRANCH   1  13
ATOM      8  O   UNL     1       8.583   4.651  18.963  0.00  0.00    +0.000 OA
ATOM      9  C   UNL     1       7.557   4.611  18.307  0.00  0.00    +0.000 C 
ATOM     10  N   UNL     1       7.490   4.412  16.983  0.00  0.00    +0.000 N 
ATOM     11  C   UNL     1       6.213   4.158  16.623  0.00  0.00    +0.000 C 
ATOM     12  O   UNL     1       5.877   3.622  15.578  0.00  0.00    +0.000 OA
ATOM     13  C   UNL     1       5.336   4.471  17.802  0.00  0.00    +0.000 C 
ATOM     14  O   UNL     1       6.309   4.707  18.835  0.00  0.00    +0.000 OA
ATOM     15  H   UNL     1       8.288   4.161  16.429  0.00  0.00    +0.000 HD
ENDBRANCH   1  13
BRANCH   7  16
ATOM     16  N   UNL     1       2.471   4.042  18.788  0.00  0.00    +0.000 N 
ATOM     17  C   UNL     1       1.871   3.013  18.090  0.00  0.00    +0.000 A 
ATOM     18  C   UNL     1       1.527   1.993  18.952  0.00  0.00    +0.000 A 
ATOM     19  C   UNL     1       1.881   2.405  20.245  0.00  0.00    +0.000 A 
ATOM     20  C   UNL     1       2.459   3.649  20.123  0.00  0.00    +0.000 A 
ENDBRANCH   7  16
TORSDOF 2
ENDMDL
MODEL 5
REMARK VINA RESULT:      -7.1      1.930      3.972
REMARK  Name = 
REMARK  2 active torsions:
REMARK  status: ('A' for Active; 'I' for Inactive)
REMARK    1  A    between atoms: C_6  and  C_7
REMARK    2  A    between atoms: C_13  and  N_14
REMARK                            x       y       z     vdW  Elec       q    Type
REMARK                         _______ _______ _______ _____ _____    ______ ____
ROOT
ATOM      1  C   UNL     1       3.787   5.821  18.229  0.00  0.00    +0.000 A 
ATOM      2  C   UNL     1       4.084   7.028  17.536  0.00  0.00    +0.000 A 
ATOM      3 CL   UNL     1       5.507   7.299  16.591  0.00  0.00    +0.000 Cl
ATOM      4  C   UNL     1       3.251   8.155  17.612  0.00  0.00    +0.000 A 
ATOM      5  C   UNL     1       2.121   8.149  18.407  0.00  0.00    +0.000 A 
ATOM      6  C   UNL     1       1.818   7.010  19.138  0.00  0.00    +0.000 A 
ATOM      7  C   UNL     1       2.617   5.841  19.068  0.00  0.00    +0.000 A 
ENDROOT
BRANCH   1  13
ATOM      8  O   UNL     1       8.115   4.497  18.450  0.00  0.00    +0.000 OA
ATOM      9  C   UNL     1       6.955   4.500  18.080  0.00  0.00    +0.000 C 
ATOM     10  N   UNL     1       6.525   4.108  16.872  0.00  0.00    +0.000 N 
ATOM     11  C   UNL     1       5.180   3.981  16.884  0.00  0.00    +0.000 C 
ATOM     12  O   UNL     1       4.533   3.341  16.070  0.00  0.00    +0.000 OA
ATOM     13  C   UNL     1       4.677   4.595  18.160  0.00  0.00    +0.000 C 
ATOM     14  O   UNL     1       5.904   4.850  18.865  0.00  0.00    +0.000 OA
ATOM     15  H   UNL     1       7.123   3.664  16.199  0.00  0.00    +0.000 HD
ENDBRANCH   1  13
BRANCH   7  16
ATOM     16  N   UNL     1       2.160   4.742  19.895  0.00  0.00    +0.000 N 
ATOM     17  C   UNL     1       2.515   4.407  21.186  0.00  0.00    +0.000 A 
ATOM     18  C   UNL     1       1.862   3.257  21.574  0.00  0.00    +0.000 A 
ATOM     19  C   UNL     1       1.100   2.822  20.479  0.00  0.00    +0.000 A 
ATOM     20  C   UNL     1       1.290   3.742  19.472  0.00  0.00    +0.000 A 
ENDBRANCH   7  16
TORSDOF 2
ENDMDL
MODEL 6
REMARK VINA RESULT:      -7.0      2.578      4.823
REMARK  Name = 
REMARK  2 active torsions:
REMARK  status: ('A' for Active; 'I' for Inactive)
REMARK    1  A    between atoms: C_6  and  C_7
REMARK    2  A    between atoms: C_13  and  N_14
REMARK                            x       y       z     vdW  Elec       q    Type
REMARK                         _______ _______ _______ _____ _____    ______ ____
ROOT
ATOM      1  C   UNL     1       3.552   5.171  18.123  0.00  0.00    +0.000 A 
ATOM      2  C   UNL     1       2.642   5.923  18.918  0.00  0.00    +0.000 A 
ATOM      3 CL   UNL     1       1.546   5.245  20.072  0.00  0.00    +0.000 Cl
ATOM      4  C   UNL     1       2.512   7.314  18.787  0.00  0.00    +0.000 A 
ATOM      5  C   UNL     1       3.239   8.008  17.839  0.00  0.00    +0.000 A 
ATOM      6  C   UNL     1       4.104   7.308  17.010  0.00  0.00    +0.000 A 
ATOM      7  C   UNL     1       4.286   5.908  17.127  0.00  0.00    +0.000 A 
ENDROOT
BRANCH   1  13
ATOM      8  O   UNL     1       1.215   1.371  18.919  0.00  0.00    +0.000 OA
ATOM      9  C   UNL     1       2.159   2.140  18.947  0.00  0.00    +0.000 C 
ATOM     10  N   UNL     1       3.086   2.195  19.913  0.00  0.00    +0.000 N 
ATOM     11  C   UNL     1       4.124   2.959  19.509  0.00  0.00    +0.000 C 
ATOM     12  O   UNL     1       5.240   2.938  20.003  0.00  0.00    +0.000 OA
ATOM     13  C   UNL     1       3.704   3.667  18.251  0.00  0.00    +0.000 C 
ATOM     14  O   UNL     1       2.448   3.031  17.962  0.00  0.00    +0.000 OA
ATOM     15  H   UNL     1       3.145   1.517  20.651  0.00  0.00    +0.000 HD
ENDBRANCH   1  13
BRANCH   7  16
ATOM     16  N   UNL     1       5.224   5.335  16.184  0.00  0.00    +0.000 N 
ATOM     17  C   UNL     1       4.991   4.501  15.109  0.00  0.00    +0.000 A 
ATOM     18  C   UNL     1       6.182   4.166  14.501  0.00  0.00    +0.000 A 
ATOM     19  C   UNL     1       7.210   4.771  15.239  0.00  0.00    +0.000 A 
ATOM     20  C   UNL     1       6.607   5.482  16.253  0.00  0.00    +0.000 A 
ENDBRANCH   7  16
TORSDOF 2
ENDMDL
MODEL 7
REMARK VINA RESULT:      -6.9      2.440      4.786
REMARK  Name = 
REMARK  2 active torsions:
REMARK  status: ('A' for Active; 'I' for Inactive)
REMARK    1  A    between atoms: C_6  and  C_7
REMARK    2  A    between atoms: C_13  and  N_14
REMARK                            x       y       z     vdW  Elec       q    Type
REMARK                         _______ _______ _______ _____ _____    ______ ____
ROOT
ATOM      1  C   UNL     1       3.128   4.501  18.780  0.00  0.00    +0.000 A 
ATOM      2  C   UNL     1       2.007   3.881  19.399  0.00  0.00    +0.000 A 
ATOM      3 CL   UNL     1       0.940   4.659  20.516  0.00  0.00    +0.000 Cl
ATOM      4  C   UNL     1       1.698   2.527  19.195  0.00  0.00    +0.000 A 
ATOM      5  C   UNL     1       2.507   1.726  18.412  0.00  0.00    +0.000 A 
ATOM      6  C   UNL     1       3.637   2.277  17.827  0.00  0.00    +0.000 A 
ATOM      7  C   UNL     1       3.970   3.645  17.984  0.00  0.00    +0.000 A 
ENDROOT
BRANCH   1  13
ATOM      8  O   UNL     1       1.417   8.439  20.229  0.00  0.00    +0.000 OA
ATOM      9  C   UNL     1       2.090   7.684  19.551  0.00  0.00    +0.000 C 
ATOM     10  N   UNL     1       2.459   7.904  18.281  0.00  0.00    +0.000 N 
ATOM     11  C   UNL     1       3.409   7.015  17.920  0.00  0.00    +0.000 C 
ATOM     12  O   UNL     1       4.169   7.151  16.974  0.00  0.00    +0.000 OA
ATOM     13  C   UNL     1       3.477   5.962  18.990  0.00  0.00    +0.000 C 
ATOM     14  O   UNL     1       2.623   6.520  20.004  0.00  0.00    +0.000 OA
ATOM     15  H   UNL     1       2.302   8.777  17.812  0.00  0.00    +0.000 HD
ENDBRANCH   1  13
BRANCH   7  16
ATOM     16  N   UNL     1       5.183   4.058  17.307  0.00  0.00    +0.000 N 
ATOM     17  C   UNL     1       5.466   4.093  15.957  0.00  0.00    +0.000 A 
ATOM     18  C   UNL     1       6.763   4.519  15.755  0.00  0.00    +0.000 A 
ATOM     19  C   UNL     1       7.335   4.719  17.020  0.00  0.00    +0.000 A 
ATOM     20  C   UNL     1       6.357   4.440  17.949  0.00  0.00    +0.000 A 
ENDBRANCH   7  16
TORSDOF 2
ENDMDL
MODEL 8
REMARK VINA RESULT:      -6.7      1.823      1.931
REMARK  Name = 
REMARK  2 active torsions:
REMARK  status: ('A' for Active; 'I' for Inactive)
REMARK    1  A    between atoms: C_6  and  C_7
REMARK    2  A    between atoms: C_13  and  N_14
REMARK                            x       y       z     vdW  Elec       q    Type
REMARK                         _______ _______ _______ _____ _____    ______ ____
ROOT
ATOM      1  C   UNL     1       3.891   4.828  17.905  0.00  0.00    +0.000 A 
ATOM      2  C   UNL     1       3.933   3.500  17.396  0.00  0.00    +0.000 A 
ATOM      3 CL   UNL     1       5.323   2.759  16.680  0.00  0.00    +0.000 Cl
ATOM      4  C   UNL     1       2.799   2.673  17.377  0.00  0.00    +0.000 A 
ATOM      5  C   UNL     1       1.575   3.140  17.816  0.00  0.00    +0.000 A 
ATOM      6  C   UNL     1       1.477   4.444  18.277  0.00  0.00    +0.000 A 
ATOM      7  C   UNL     1       2.603   5.303  18.339  0.00  0.00    +0.000 A 
ENDROOT
BRANCH   1  13
ATOM      8  O   UNL     1       7.579   5.975  15.534  0.00  0.00    +0.000 OA
ATOM      9  C   UNL     1       6.897   5.747  16.517  0.00  0.00    +0.000 C 
ATOM     10  N   UNL     1       7.357   5.297  17.692  0.00  0.00    +0.000 N 
ATOM     11  C   UNL     1       6.395   5.409  18.634  0.00  0.00    +0.000 C 
ATOM     12  O   UNL     1       6.593   5.401  19.839  0.00  0.00    +0.000 OA
ATOM     13  C   UNL     1       5.107   5.735  17.931  0.00  0.00    +0.000 C 
ATOM     14  O   UNL     1       5.559   5.972  16.587  0.00  0.00    +0.000 OA
ATOM     15  H   UNL     1       8.336   5.217  17.899  0.00  0.00    +0.000 HD
ENDBRANCH   1  13
BRANCH   7  16
ATOM     16  N   UNL     1       2.327   6.632  18.844  0.00  0.00    +0.000 N 
ATOM     17  C   UNL     1       2.031   7.040  20.129  0.00  0.00    +0.000 A 
ATOM     18  C   UNL     1       1.800   8.399  20.154  0.00  0.00    +0.000 A 
ATOM     19  C   UNL     1       1.911   8.864  18.836  0.00  0.00    +0.000 A 
ATOM     20  C   UNL     1       2.237   7.776  18.056  0.00  0.00    +0.000 A 
ENDBRANCH   7  16
TORSDOF 2
ENDMDL
MODEL 9
REMARK VINA RESULT:      -6.7      2.603      5.222
REMARK  Name = 
REMARK  2 active torsions:
REMARK  status: ('A' for Active; 'I' for Inactive)
REMARK    1  A    between atoms: C_6  and  C_7
REMARK    2  A    between atoms: C_13  and  N_14
REMARK                            x       y       z     vdW  Elec       q    Type
REMARK                         _______ _______ _______ _____ _____    ______ ____
ROOT
ATOM      1  C   UNL     1       5.022   5.276  17.364  0.00  0.00    +0.000 A 
ATOM      2  C   UNL     1       4.446   4.189  16.649  0.00  0.00    +0.000 A 
ATOM      3 CL   UNL     1       2.960   3.409  17.068  0.00  0.00    +0.000 Cl
ATOM      4  C   UNL     1       5.083   3.602  15.545  0.00  0.00    +0.000 A 
ATOM      5  C   UNL     1       6.330   4.034  15.134  0.00  0.00    +0.000 A 
ATOM      6  C   UNL     1       6.950   5.060  15.832  0.00  0.00    +0.000 A 
ATOM      7  C   UNL     1       6.330   5.699  16.934  0.00  0.00    +0.000 A 
ENDROOT
BRANCH   1  13
ATOM      8  O   UNL     1       2.534   4.337  21.033  0.00  0.00    +0.000 OA
ATOM      9  C   UNL     1       2.926   4.969  20.069  0.00  0.00    +0.000 C 
ATOM     10  N   UNL     1       2.183   5.818  19.344  0.00  0.00    +0.000 N 
ATOM     11  C   UNL     1       2.980   6.544  18.531  0.00  0.00    +0.000 C 
ATOM     12  O   UNL     1       2.664   7.600  18.005  0.00  0.00    +0.000 OA
ATOM     13  C   UNL     1       4.347   5.921  18.560  0.00  0.00    +0.000 C 
ATOM     14  O   UNL     1       4.205   4.952  19.612  0.00  0.00    +0.000 OA
ATOM     15  H   UNL     1       1.255   6.094  19.611  0.00  0.00    +0.000 HD
ENDBRANCH   1  13
BRANCH   7  16
ATOM     16  N   UNL     1       7.115   6.749  17.549  0.00  0.00    +0.000 N 
ATOM     17  C   UNL     1       7.274   8.066  17.166  0.00  0.00    +0.000 A 
ATOM     18  C   UNL     1       8.146   8.707  18.021  0.00  0.00    +0.000 A 
ATOM     19  C   UNL     1       8.589   7.756  18.952  0.00  0.00    +0.000 A 
ATOM     20  C   UNL     1       7.946   6.575  18.652  0.00  0.00    +0.000 A 
ENDBRANCH   7  16
TORSDOF 2
ENDMDL
