MODEL 1
REMARK VINA RESULT:      -9.3      0.000      0.000
REMARK  Name = 
REMARK  7 active torsions:
REMARK  status: ('A' for Active; 'I' for Inactive)
REMARK    1  A    between atoms: C_2  and  O_3
REMARK    2  A    between atoms: C_2  and  C_4
REMARK    3  A    between atoms: C_5  and  C_6
REMARK    4  A    between atoms: C_9  and  C_10
REMARK    5  A    between atoms: C_10  and  C_11
REMARK    6  A    between atoms: C_12  and  C_13
REMARK    7  A    between atoms: C_26  and  O_27
REMARK                            x       y       z     vdW  Elec       q    Type
REMARK                         _______ _______ _______ _____ _____    ______ ____
ROOT
ATOM      1  C   UNL     1       3.515   6.075  17.796  0.00  0.00    +0.000 A 
ATOM      2  C   UNL     1       4.860   5.873  17.697  0.00  0.00    +0.000 A 
ATOM      3  C   UNL     1       5.324   4.983  18.811  0.00  0.00    +0.000 A 
ATOM      4  O   UNL     1       5.726   5.353  19.901  0.00  0.00    +0.000 OA
ATOM      5  O   UNL     1       5.081   3.702  18.440  0.00  0.00    +0.000 OA
ATOM      6  C   UNL     1       3.682   3.633  18.480  0.00  0.00    +0.000 A 
ATOM      7  C   UNL     1       3.256   2.327  18.755  0.00  0.00    +0.000 A 
ATOM      8  C   UNL     1       1.936   2.148  19.060  0.00  0.00    +0.000 A 
ATOM      9  C   UNL     1       1.076   3.259  19.071  0.00  0.00    +0.000 A 
ATOM     10  C   UNL     1       1.512   4.574  18.706  0.00  0.00    +0.000 A 
ATOM     11  C   UNL     1       2.837   4.810  18.354  0.00  0.00    +0.000 A 
ENDROOT
BRANCH   2  12
ATOM     12  C   UNL     1       5.427   5.535  16.356  0.00  0.00    +0.000 A 
ATOM     13  C   UNL     1       4.682   4.741  15.458  0.00  0.00    +0.000 A 
ATOM     14  C   UNL     1       5.279   4.201  14.326  0.00  0.00    +0.000 A 
ATOM     15  C   UNL     1       6.619   4.462  14.079  0.00  0.00    +0.000 A 
ATOM     16  F   UNL     1       7.199   3.914  13.006  0.00  0.00    +0.000 F 
ATOM     17  C   UNL     1       7.370   5.256  14.930  0.00  0.00    +0.000 A 
ATOM     18  C   UNL     1       6.779   5.802  16.066  0.00  0.00    +0.000 A 
ATOM     19 CL   UNL     1       7.788   6.751  17.102  0.00  0.00    +0.000 Cl
ENDBRANCH   2  12
BRANCH   8  20
ATOM     20  O   UNL     1       1.484   0.912  19.399  0.00  0.00    +0.000 OA
ATOM     21  H   UNL     1       1.779   0.258  18.750  0.00  0.00    +0.000 HD
ENDBRANCH   8  20
BRANCH   1  22
ATOM     22  C   UNL     1       3.192   7.586  17.785  0.00  0.00    +0.000 C 
BRANCH  22  26
ATOM     23  C   UNL     1       0.291  10.057  20.081  0.00  0.00    +0.000 A 
ATOM     24  C   UNL     1       0.957   8.958  20.604  0.00  0.00    +0.000 A 
ATOM     25  C   UNL     1       1.831   8.187  19.802  0.00  0.00    +0.000 A 
ATOM     26  C   UNL     1       2.084   8.446  18.425  0.00  0.00    +0.000 A 
ATOM     27  C   UNL     1       1.451   9.578  17.912  0.00  0.00    +0.000 A 
ATOM     28  C   UNL     1       0.554  10.354  18.722  0.00  0.00    +0.000 A 
BRANCH  23  30
ATOM     29  C   UNL     1      -0.497  11.245  22.155  0.00  0.00    +0.000 C 
ATOM     30  C   UNL     1      -0.685  10.861  20.874  0.00  0.00    +0.000 C 
BRANCH  29  32
ATOM     31  O   UNL     1      -2.485  11.560  23.394  0.00  0.00    +0.000 OA
ATOM     32  C   UNL     1      -1.398  12.015  23.052  0.00  0.00    +0.000 C 
BRANCH  32  33
ATOM     33  O   UNL     1      -0.975  13.223  23.436  0.00  0.00    +0.000 OA
ATOM     34  H   UNL     1      -1.661  13.901  23.502  0.00  0.00    +0.000 HD
ENDBRANCH  32  33
ENDBRANCH  29  32
ENDBRANCH  23  30
ENDBRANCH  22  26
ENDBRANCH   1  22
TORSDOF 7
ENDMDL
MODEL 2
REMARK VINA RESULT:      -9.0      0.966      1.071
REMARK  Name = 
REMARK  7 active torsions:
REMARK  status: ('A' for Active; 'I' for Inactive)
REMARK    1  A    between atoms: C_2  and  O_3
REMARK    2  A    between atoms: C_2  and  C_4
REMARK    3  A    between atoms: C_5  and  C_6
REMARK    4  A    between atoms: C_9  and  C_10
REMARK    5  A    between atoms: C_10  and  C_11
REMARK    6  A    between atoms: C_12  and  C_13
REMARK    7  A    between atoms: C_26  and  O_27
REMARK                            x       y       z     vdW  Elec       q    Type
REMARK                         _______ _______ _______ _____ _____    ______ ____
ROOT
ATOM      1  C   UNL     1       3.558   6.070  17.794  0.00  0.00    +0.000 A 
ATOM      2  C   UNL     1       4.895   5.827  17.681  0.00  0.00    +0.000 A 
ATOM      3  C   UNL     1       5.340   4.911  18.782  0.00  0.00    +0.000 A 
ATOM      4  O   UNL     1       5.762   5.256  19.872  0.00  0.00    +0.000 OA
ATOM      5  O   UNL     1       5.054   3.642  18.399  0.00  0.00    +0.000 OA
ATOM      6  C   UNL     1       3.653   3.617  18.450  0.00  0.00    +0.000 A 
ATOM      7  C   UNL     1       3.189   2.321  18.715  0.00  0.00    +0.000 A 
ATOM      8  C   UNL     1       1.867   2.180  19.029  0.00  0.00    +0.000 A 
ATOM      9  C   UNL     1       1.042   3.317  19.059  0.00  0.00    +0.000 A 
ATOM     10  C   UNL     1       1.516   4.622  18.705  0.00  0.00    +0.000 A 
ATOM     11  C   UNL     1       2.845   4.820  18.344  0.00  0.00    +0.000 A 
ENDROOT
BRANCH   2  12
ATOM     12  C   UNL     1       5.440   5.486  16.333  0.00  0.00    +0.000 A 
ATOM     13  C   UNL     1       4.697   4.661  15.462  0.00  0.00    +0.000 A 
ATOM     14  C   UNL     1       5.282   4.121  14.323  0.00  0.00    +0.000 A 
ATOM     15  C   UNL     1       6.608   4.415  14.042  0.00  0.00    +0.000 A 
ATOM     16  F   UNL     1       7.179   3.869  12.963  0.00  0.00    +0.000 F 
ATOM     17  C   UNL     1       7.357   5.241  14.865  0.00  0.00    +0.000 A 
ATOM     18  C   UNL     1       6.777   5.786  16.008  0.00  0.00    +0.000 A 
ATOM     19 CL   UNL     1       7.783   6.776  17.006  0.00  0.00    +0.000 Cl
ENDBRANCH   2  12
BRANCH   8  20
ATOM     20  O   UNL     1       1.380   0.955  19.359  0.00  0.00    +0.000 OA
ATOM     21  H   UNL     1       0.648   1.043  19.985  0.00  0.00    +0.000 HD
ENDBRANCH   8  20
BRANCH   1  22
ATOM     22  C   UNL     1       3.282   7.590  17.802  0.00  0.00    +0.000 C 
BRANCH  22  26
ATOM     23  C   UNL     1       0.287  10.107  19.920  0.00  0.00    +0.000 A 
ATOM     24  C   UNL     1       0.902   8.998  20.482  0.00  0.00    +0.000 A 
ATOM     25  C   UNL     1       1.812   8.213  19.734  0.00  0.00    +0.000 A 
ATOM     26  C   UNL     1       2.150   8.468  18.374  0.00  0.00    +0.000 A 
ATOM     27  C   UNL     1       1.567   9.609  17.825  0.00  0.00    +0.000 A 
ATOM     28  C   UNL     1       0.636  10.399  18.580  0.00  0.00    +0.000 A 
BRANCH  23  30
ATOM     29  C   UNL     1      -1.597  11.770  20.063  0.00  0.00    +0.000 C 
ATOM     30  C   UNL     1      -0.723  10.927  20.653  0.00  0.00    +0.000 C 
BRANCH  29  32
ATOM     31  O   UNL     1      -2.667  12.809  21.895  0.00  0.00    +0.000 OA
ATOM     32  C   UNL     1      -2.620  12.654  20.679  0.00  0.00    +0.000 C 
BRANCH  32  33
ATOM     33  O   UNL     1      -3.488  13.239  19.848  0.00  0.00    +0.000 OA
ATOM     34  H   UNL     1      -4.194  13.744  20.274  0.00  0.00    +0.000 HD
ENDBRANCH  32  33
ENDBRANCH  29  32
ENDBRANCH  23  30
ENDBRANCH  22  26
ENDBRANCH   1  22
TORSDOF 7
ENDMDL
MODEL 3
REMARK VINA RESULT:      -8.6      1.678      2.090
REMARK  Name = 
REMARK  7 active torsions:
REMARK  status: ('A' for Active; 'I' for Inactive)
REMARK    1  A    between atoms: C_2  and  O_3
REMARK    2  A    between atoms: C_2  and  C_4
REMARK    3  A    between atoms: C_5  and  C_6
REMARK    4  A    between atoms: C_9  and  C_10
REMARK    5  A    between atoms: C_10  and  C_11
REMARK    6  A    between atoms: C_12  and  C_13
REMARK    7  A    between atoms: C_26  and  O_27
REMARK                            x       y       z     vdW  Elec       q    Type
REMARK                         _______ _______ _______ _____ _____    ______ ____
ROOT
ATOM      1  C   UNL     1       3.629   6.029  18.062  0.00  0.00    +0.000 A 
ATOM      2  C   UNL     1       4.946   5.717  17.893  0.00  0.00    +0.000 A 
ATOM      3  C   UNL     1       5.362   4.699  18.913  0.00  0.00    +0.000 A 
ATOM      4  O   UNL     1       5.830   4.939  20.012  0.00  0.00    +0.000 OA
ATOM      5  O   UNL     1       4.990   3.480  18.450  0.00  0.00    +0.000 OA
ATOM      6  C   UNL     1       3.592   3.533  18.539  0.00  0.00    +0.000 A 
ATOM      7  C   UNL     1       3.057   2.251  18.725  0.00  0.00    +0.000 A 
ATOM      8  C   UNL     1       1.737   2.166  19.065  0.00  0.00    +0.000 A 
ATOM      9  C   UNL     1       0.983   3.344  19.200  0.00  0.00    +0.000 A 
ATOM     10  C   UNL     1       1.527   4.641  18.926  0.00  0.00    +0.000 A 
ATOM     11  C   UNL     1       2.856   4.787  18.542  0.00  0.00    +0.000 A 
ENDROOT
BRANCH   2  12
ATOM     12  C   UNL     1       5.436   5.443  16.509  0.00  0.00    +0.000 A 
ATOM     13  C   UNL     1       4.692   4.603  15.653  0.00  0.00    +0.000 A 
ATOM     14  C   UNL     1       5.245   4.128  14.470  0.00  0.00    +0.000 A 
ATOM     15  C   UNL     1       6.537   4.501  14.130  0.00  0.00    +0.000 A 
ATOM     16  F   UNL     1       7.078   4.016  13.007  0.00  0.00    +0.000 F 
ATOM     17  C   UNL     1       7.283   5.343  14.938  0.00  0.00    +0.000 A 
ATOM     18  C   UNL     1       6.736   5.825  16.125  0.00  0.00    +0.000 A 
ATOM     19 CL   UNL     1       7.740   6.840  17.100  0.00  0.00    +0.000 Cl
ENDBRANCH   2  12
BRANCH   8  20
ATOM     20  O   UNL     1       1.185   0.950  19.321  0.00  0.00    +0.000 OA
ATOM     21  H   UNL     1       0.221   1.024  19.373  0.00  0.00    +0.000 HD
ENDBRANCH   8  20
BRANCH   1  22
ATOM     22  C   UNL     1       3.446   7.558  18.186  0.00  0.00    +0.000 C 
BRANCH  22  26
ATOM     23  C   UNL     1      -0.183  10.001  18.993  0.00  0.00    +0.000 A 
ATOM     24  C   UNL     1       0.383   9.847  17.737  0.00  0.00    +0.000 A 
ATOM     25  C   UNL     1       1.567   9.093  17.559  0.00  0.00    +0.000 A 
ATOM     26  C   UNL     1       2.275   8.462  18.621  0.00  0.00    +0.000 A 
ATOM     27  C   UNL     1       1.681   8.579  19.877  0.00  0.00    +0.000 A 
ATOM     28  C   UNL     1       0.485   9.353  20.060  0.00  0.00    +0.000 A 
BRANCH  23  30
ATOM     29  C   UNL     1      -2.417  10.974  18.360  0.00  0.00    +0.000 C 
ATOM     30  C   UNL     1      -1.397  10.835  19.235  0.00  0.00    +0.000 C 
BRANCH  29  32
ATOM     31  O   UNL     1      -4.121  12.078  19.569  0.00  0.00    +0.000 OA
ATOM     32  C   UNL     1      -3.653  11.791  18.472  0.00  0.00    +0.000 C 
BRANCH  32  33
ATOM     33  O   UNL     1      -4.231  12.166  17.327  0.00  0.00    +0.000 OA
ATOM     34  H   UNL     1      -3.727  11.969  16.525  0.00  0.00    +0.000 HD
ENDBRANCH  32  33
ENDBRANCH  29  32
ENDBRANCH  23  30
ENDBRANCH  22  26
ENDBRANCH   1  22
TORSDOF 7
ENDMDL
MODEL 4
REMARK VINA RESULT:      -8.4      0.734      1.172
REMARK  Name = 
REMARK  7 active torsions:
REMARK  status: ('A' for Active; 'I' for Inactive)
REMARK    1  A    between atoms: C_2  and  O_3
REMARK    2  A    between atoms: C_2  and  C_4
REMARK    3  A    between atoms: C_5  and  C_6
REMARK    4  A    between atoms: C_9  and  C_10
REMARK    5  A    between atoms: C_10  and  C_11
REMARK    6  A    between atoms: C_12  and  C_13
REMARK    7  A    between atoms: C_26  and  O_27
REMARK                            x       y       z     vdW  Elec       q    Type
REMARK                         _______ _______ _______ _____ _____    ______ ____
ROOT
ATOM      1  C   UNL     1       3.409   5.971  17.681  0.00  0.00    +0.000 A 
ATOM      2  C   UNL     1       4.765   5.850  17.609  0.00  0.00    +0.000 A 
ATOM      3  C   UNL     1       5.262   5.012  18.749  0.00  0.00    +0.000 A 
ATOM      4  O   UNL     1       5.620   5.427  19.838  0.00  0.00    +0.000 OA
ATOM      5  O   UNL     1       5.104   3.712  18.400  0.00  0.00    +0.000 OA
ATOM      6  C   UNL     1       3.711   3.558  18.416  0.00  0.00    +0.000 A 
ATOM      7  C   UNL     1       3.361   2.233  18.711  0.00  0.00    +0.000 A 
ATOM      8  C   UNL     1       2.049   1.979  18.995  0.00  0.00    +0.000 A 
ATOM      9  C   UNL     1       1.123   3.035  18.969  0.00  0.00    +0.000 A 
ATOM     10  C   UNL     1       1.485   4.367  18.586  0.00  0.00    +0.000 A 
ATOM     11  C   UNL     1       2.799   4.678  18.252  0.00  0.00    +0.000 A 
ENDROOT
BRANCH   2  12
ATOM     12  C   UNL     1       5.377   5.522  16.286  0.00  0.00    +0.000 A 
ATOM     13  C   UNL     1       4.676   4.709  15.371  0.00  0.00    +0.000 A 
ATOM     14  C   UNL     1       5.317   4.180  14.257  0.00  0.00    +0.000 A 
ATOM     15  C   UNL     1       6.657   4.473  14.047  0.00  0.00    +0.000 A 
ATOM     16  F   UNL     1       7.280   3.936  12.992  0.00  0.00    +0.000 F 
ATOM     17  C   UNL     1       7.365   5.287  14.915  0.00  0.00    +0.000 A 
ATOM     18  C   UNL     1       6.729   5.822  16.033  0.00  0.00    +0.000 A 
ATOM     19 CL   UNL     1       7.686   6.797  17.092  0.00  0.00    +0.000 Cl
ENDBRANCH   2  12
BRANCH   8  20
ATOM     20  O   UNL     1       1.668   0.724  19.351  0.00  0.00    +0.000 OA
ATOM     21  H   UNL     1       0.732   0.589  19.150  0.00  0.00    +0.000 HD
ENDBRANCH   8  20
BRANCH   1  22
ATOM     22  C   UNL     1       2.994   7.459  17.634  0.00  0.00    +0.000 C 
BRANCH  22  26
ATOM     23  C   UNL     1       0.536  10.297  20.021  0.00  0.00    +0.000 A 
ATOM     24  C   UNL     1       0.997  10.559  18.739  0.00  0.00    +0.000 A 
ATOM     25  C   UNL     1       1.815   9.630  18.055  0.00  0.00    +0.000 A 
ATOM     26  C   UNL     1       2.246   8.391  18.609  0.00  0.00    +0.000 A 
ATOM     27  C   UNL     1       1.745   8.107  19.879  0.00  0.00    +0.000 A 
ATOM     28  C   UNL     1       0.924   9.054  20.578  0.00  0.00    +0.000 A 
BRANCH  23  30
ATOM     29  C   UNL     1       0.074  12.558  21.026  0.00  0.00    +0.000 C 
ATOM     30  C   UNL     1      -0.279  11.274  20.801  0.00  0.00    +0.000 C 
BRANCH  29  32
ATOM     31  O   UNL     1      -1.243  13.329  22.829  0.00  0.00    +0.000 OA
ATOM     32  C   UNL     1      -0.632  13.609  21.804  0.00  0.00    +0.000 C 
BRANCH  32  33
ATOM     33  O   UNL     1      -0.584  14.852  21.315  0.00  0.00    +0.000 OA
ATOM     34  H   UNL     1      -1.020  14.978  20.461  0.00  0.00    +0.000 HD
ENDBRANCH  32  33
ENDBRANCH  29  32
ENDBRANCH  23  30
ENDBRANCH  22  26
ENDBRANCH   1  22
TORSDOF 7
ENDMDL
MODEL 5
REMARK VINA RESULT:      -8.2      4.699     10.278
REMARK  Name = 
REMARK  7 active torsions:
REMARK  status: ('A' for Active; 'I' for Inactive)
REMARK    1  A    between atoms: C_2  and  O_3
REMARK    2  A    between atoms: C_2  and  C_4
REMARK    3  A    between atoms: C_5  and  C_6
REMARK    4  A    between atoms: C_9  and  C_10
REMARK    5  A    between atoms: C_10  and  C_11
REMARK    6  A    between atoms: C_12  and  C_13
REMARK    7  A    between atoms: C_26  and  O_27
REMARK                            x       y       z     vdW  Elec       q    Type
REMARK                         _______ _______ _______ _____ _____    ______ ____
ROOT
ATOM      1  C   UNL     1      -0.364  10.532  19.997  0.00  0.00    +0.000 A 
ATOM      2  C   UNL     1      -0.085  11.812  20.379  0.00  0.00    +0.000 A 
ATOM      3  C   UNL     1      -0.231  12.736  19.207  0.00  0.00    +0.000 A 
ATOM      4  O   UNL     1       0.656  13.053  18.433  0.00  0.00    +0.000 OA
ATOM      5  O   UNL     1      -1.547  13.034  19.082  0.00  0.00    +0.000 OA
ATOM      6  C   UNL     1      -2.097  11.818  18.656  0.00  0.00    +0.000 A 
ATOM      7  C   UNL     1      -3.247  12.036  17.885  0.00  0.00    +0.000 A 
ATOM      8  C   UNL     1      -3.757  10.967  17.204  0.00  0.00    +0.000 A 
ATOM      9  C   UNL     1      -3.126   9.717  17.313  0.00  0.00    +0.000 A 
ATOM     10  C   UNL     1      -2.000   9.495  18.170  0.00  0.00    +0.000 A 
ATOM     11  C   UNL     1      -1.459  10.538  18.915  0.00  0.00    +0.000 A 
ENDROOT
BRANCH   2  12
ATOM     12  C   UNL     1      -0.692  12.318  21.646  0.00  0.00    +0.000 A 
ATOM     13  C   UNL     1      -1.829  11.680  22.186  0.00  0.00    +0.000 A 
ATOM     14  C   UNL     1      -2.561  12.276  23.206  0.00  0.00    +0.000 A 
ATOM     15  C   UNL     1      -2.152  13.506  23.700  0.00  0.00    +0.000 A 
ATOM     16  F   UNL     1      -2.877  14.093  24.659  0.00  0.00    +0.000 F 
ATOM     17  C   UNL     1      -1.028  14.147  23.206  0.00  0.00    +0.000 A 
ATOM     18  C   UNL     1      -0.288  13.555  22.185  0.00  0.00    +0.000 A 
ATOM     19 CL   UNL     1       1.080  14.431  21.594  0.00  0.00    +0.000 Cl
ENDBRANCH   2  12
BRANCH   8  20
ATOM     20  O   UNL     1      -4.832  11.138  16.389  0.00  0.00    +0.000 OA
ATOM     21  H   UNL     1      -5.455  11.765  16.784  0.00  0.00    +0.000 HD
ENDBRANCH   8  20
BRANCH   1  22
ATOM     22  C   UNL     1       0.792   9.586  20.392  0.00  0.00    +0.000 C 
BRANCH  22  26
ATOM     23  C   UNL     1       3.355   6.799  18.057  0.00  0.00    +0.000 A 
ATOM     24  C   UNL     1       2.934   8.037  17.593  0.00  0.00    +0.000 A 
ATOM     25  C   UNL     1       2.079   8.853  18.371  0.00  0.00    +0.000 A 
ATOM     26  C   UNL     1       1.571   8.482  19.648  0.00  0.00    +0.000 A 
ATOM     27  C   UNL     1       2.031   7.259  20.134  0.00  0.00    +0.000 A 
ATOM     28  C   UNL     1       2.890   6.425  19.340  0.00  0.00    +0.000 A 
BRANCH  23  30
ATOM     29  C   UNL     1       5.032   6.280  16.252  0.00  0.00    +0.000 C 
ATOM     30  C   UNL     1       4.208   5.881  17.246  0.00  0.00    +0.000 C 
BRANCH  29  32
ATOM     31  O   UNL     1       5.416   4.656  14.580  0.00  0.00    +0.000 OA
ATOM     32  C   UNL     1       5.900   5.467  15.362  0.00  0.00    +0.000 C 
BRANCH  32  33
ATOM     33  O   UNL     1       7.219   5.649  15.479  0.00  0.00    +0.000 OA
ATOM     34  H   UNL     1       7.614   6.252  14.834  0.00  0.00    +0.000 HD
ENDBRANCH  32  33
ENDBRANCH  29  32
ENDBRANCH  23  30
ENDBRANCH  22  26
ENDBRANCH   1  22
TORSDOF 7
ENDMDL
MODEL 6
REMARK VINA RESULT:      -8.1      4.675     10.284
REMARK  Name = 
REMARK  7 active torsions:
REMARK  status: ('A' for Active; 'I' for Inactive)
REMARK    1  A    between atoms: C_2  and  O_3
REMARK    2  A    between atoms: C_2  and  C_4
REMARK    3  A    between atoms: C_5  and  C_6
REMARK    4  A    between atoms: C_9  and  C_10
REMARK    5  A    between atoms: C_10  and  C_11
REMARK    6  A    between atoms: C_12  and  C_13
REMARK    7  A    between atoms: C_26  and  O_27
REMARK                            x       y       z     vdW  Elec       q    Type
REMARK                         _______ _______ _______ _____ _____    ______ ____
ROOT
ATOM      1  C   UNL     1      -0.361  10.847  19.899  0.00  0.00    +0.000 A 
ATOM      2  C   UNL     1      -0.246  12.136  20.330  0.00  0.00    +0.000 A 
ATOM      3  C   UNL     1      -0.582  13.077  19.212  0.00  0.00    +0.000 A 
ATOM      4  O   UNL     1       0.209  13.550  18.414  0.00  0.00    +0.000 OA
ATOM      5  O   UNL     1      -1.932  13.190  19.163  0.00  0.00    +0.000 OA
ATOM      6  C   UNL     1      -2.328  11.926  18.705  0.00  0.00    +0.000 A 
ATOM      7  C   UNL     1      -3.536  12.009  18.000  0.00  0.00    +0.000 A 
ATOM      8  C   UNL     1      -3.926  10.907  17.292  0.00  0.00    +0.000 A 
ATOM      9  C   UNL     1      -3.120   9.757  17.311  0.00  0.00    +0.000 A 
ATOM     10  C   UNL     1      -1.930   9.662  18.103  0.00  0.00    +0.000 A 
ATOM     11  C   UNL     1      -1.502  10.741  18.871  0.00  0.00    +0.000 A 
ENDROOT
BRANCH   2  12
ATOM     12  C   UNL     1      -0.850  12.497  21.647  0.00  0.00    +0.000 A 
ATOM     13  C   UNL     1      -1.964  11.779  22.131  0.00  0.00    +0.000 A 
ATOM     14  C   UNL     1      -2.698  12.251  23.212  0.00  0.00    +0.000 A 
ATOM     15  C   UNL     1      -2.315  13.436  23.823  0.00  0.00    +0.000 A 
ATOM     16  F   UNL     1      -3.042  13.905  24.843  0.00  0.00    +0.000 F 
ATOM     17  C   UNL     1      -1.212  14.152  23.386  0.00  0.00    +0.000 A 
ATOM     18  C   UNL     1      -0.471  13.684  22.304  0.00  0.00    +0.000 A 
ATOM     19 CL   UNL     1       0.868  14.651  21.790  0.00  0.00    +0.000 Cl
ENDBRANCH   2  12
BRANCH   8  20
ATOM     20  O   UNL     1      -5.056  10.956  16.538  0.00  0.00    +0.000 OA
ATOM     21  H   UNL     1      -5.148  11.828  16.130  0.00  0.00    +0.000 HD
ENDBRANCH   8  20
BRANCH   1  22
ATOM     22  C   UNL     1       0.935  10.060  20.194  0.00  0.00    +0.000 C 
BRANCH  22  26
ATOM     23  C   UNL     1       2.699   6.134  19.068  0.00  0.00    +0.000 A 
ATOM     24  C   UNL     1       2.640   7.229  18.219  0.00  0.00    +0.000 A 
ATOM     25  C   UNL     1       2.021   8.434  18.626  0.00  0.00    +0.000 A 
ATOM     26  C   UNL     1       1.403   8.621  19.895  0.00  0.00    +0.000 A 
ATOM     27  C   UNL     1       1.503   7.536  20.766  0.00  0.00    +0.000 A 
ATOM     28  C   UNL     1       2.121   6.309  20.349  0.00  0.00    +0.000 A 
BRANCH  23  30
ATOM     29  C   UNL     1       3.184   3.683  19.371  0.00  0.00    +0.000 C 
ATOM     30  C   UNL     1       3.289   4.825  18.659  0.00  0.00    +0.000 C 
BRANCH  29  32
ATOM     31  O   UNL     1       3.088   1.494  18.486  0.00  0.00    +0.000 OA
ATOM     32  C   UNL     1       3.746   2.337  19.087  0.00  0.00    +0.000 C 
BRANCH  32  33
ATOM     33  O   UNL     1       4.980   2.093  19.540  0.00  0.00    +0.000 OA
ATOM     34  H   UNL     1       5.548   1.588  18.943  0.00  0.00    +0.000 HD
ENDBRANCH  32  33
ENDBRANCH  29  32
ENDBRANCH  23  30
ENDBRANCH  22  26
ENDBRANCH   1  22
TORSDOF 7
ENDMDL
MODEL 7
REMARK VINA RESULT:      -8.1      4.610     10.172
REMARK  Name = 
REMARK  7 active torsions:
REMARK  status: ('A' for Active; 'I' for Inactive)
REMARK    1  A    between atoms: C_2  and  O_3
REMARK    2  A    between atoms: C_2  and  C_4
REMARK    3  A    between atoms: C_5  and  C_6
REMARK    4  A    between atoms: C_9  and  C_10
REMARK    5  A    between atoms: C_10  and  C_11
REMARK    6  A    between atoms: C_12  and  C_13
REMARK    7  A    between atoms: C_26  and  O_27
REMARK                            x       y       z     vdW  Elec       q    Type
REMARK                         _______ _______ _______ _____ _____    ______ ____
ROOT
ATOM      1  C   UNL     1      -0.261  10.412  19.887  0.00  0.00    +0.000 A 
ATOM      2  C   UNL     1       0.083  11.681  20.247  0.00  0.00    +0.000 A 
ATOM      3  C   UNL     1      -0.021  12.593  19.061  0.00  0.00    +0.000 A 
ATOM      4  O   UNL     1       0.877  12.853  18.279  0.00  0.00    +0.000 OA
ATOM      5  O   UNL     1      -1.321  12.956  18.937  0.00  0.00    +0.000 OA
ATOM      6  C   UNL     1      -1.935  11.763  18.533  0.00  0.00    +0.000 A 
ATOM      7  C   UNL     1      -3.076  12.027  17.763  0.00  0.00    +0.000 A 
ATOM      8  C   UNL     1      -3.643  10.974  17.101  0.00  0.00    +0.000 A 
ATOM      9  C   UNL     1      -3.076   9.696  17.228  0.00  0.00    +0.000 A 
ATOM     10  C   UNL     1      -1.958   9.430  18.084  0.00  0.00    +0.000 A 
ATOM     11  C   UNL     1      -1.360  10.456  18.809  0.00  0.00    +0.000 A 
ENDROOT
BRANCH   2  12
ATOM     12  C   UNL     1      -0.491  12.237  21.509  0.00  0.00    +0.000 A 
ATOM     13  C   UNL     1      -1.625  11.633  22.092  0.00  0.00    +0.000 A 
ATOM     14  C   UNL     1      -2.328  12.273  23.106  0.00  0.00    +0.000 A 
ATOM     15  C   UNL     1      -1.892  13.512  23.551  0.00  0.00    +0.000 A 
ATOM     16  F   UNL     1      -2.590  14.141  24.504  0.00  0.00    +0.000 F 
ATOM     17  C   UNL     1      -0.769  14.121  23.014  0.00  0.00    +0.000 A 
ATOM     18  C   UNL     1      -0.059  13.485  21.999  0.00  0.00    +0.000 A 
ATOM     19 CL   UNL     1       1.309  14.322  21.352  0.00  0.00    +0.000 Cl
ENDBRANCH   2  12
BRANCH   8  20
ATOM     20  O   UNL     1      -4.712  11.187  16.289  0.00  0.00    +0.000 OA
ATOM     21  H   UNL     1      -4.796  12.129  16.086  0.00  0.00    +0.000 HD
ENDBRANCH   8  20
BRANCH   1  22
ATOM     22  C   UNL     1       0.847   9.414  20.292  0.00  0.00    +0.000 C 
BRANCH  22  26
ATOM     23  C   UNL     1       3.333   6.386  18.185  0.00  0.00    +0.000 A 
ATOM     24  C   UNL     1       2.831   6.220  19.467  0.00  0.00    +0.000 A 
ATOM     25  C   UNL     1       2.086   7.245  20.096  0.00  0.00    +0.000 A 
ATOM     26  C   UNL     1       1.811   8.508  19.500  0.00  0.00    +0.000 A 
ATOM     27  C   UNL     1       2.276   8.658  18.194  0.00  0.00    +0.000 A 
ATOM     28  C   UNL     1       3.041   7.622  17.558  0.00  0.00    +0.000 A 
BRANCH  23  30
ATOM     29  C   UNL     1       5.426   5.569  17.049  0.00  0.00    +0.000 C 
ATOM     30  C   UNL     1       4.173   5.355  17.507  0.00  0.00    +0.000 C 
BRANCH  29  32
ATOM     31  O   UNL     1       7.504   4.961  16.104  0.00  0.00    +0.000 OA
ATOM     32  C   UNL     1       6.343   4.642  16.338  0.00  0.00    +0.000 C 
BRANCH  32  33
ATOM     33  O   UNL     1       5.831   3.470  15.950  0.00  0.00    +0.000 OA
ATOM     34  H   UNL     1       5.409   2.951  16.648  0.00  0.00    +0.000 HD
ENDBRANCH  32  33
ENDBRANCH  29  32
ENDBRANCH  23  30
ENDBRANCH  22  26
ENDBRANCH   1  22
TORSDOF 7
ENDMDL
MODEL 8
REMARK VINA RESULT:      -8.1      4.811     10.322
REMARK  Name = 
REMARK  7 active torsions:
REMARK  status: ('A' for Active; 'I' for Inactive)
REMARK    1  A    between atoms: C_2  and  O_3
REMARK    2  A    between atoms: C_2  and  C_4
REMARK    3  A    between atoms: C_5  and  C_6
REMARK    4  A    between atoms: C_9  and  C_10
REMARK    5  A    between atoms: C_10  and  C_11
REMARK    6  A    between atoms: C_12  and  C_13
REMARK    7  A    between atoms: C_26  and  O_27
REMARK                            x       y       z     vdW  Elec       q    Type
REMARK                         _______ _______ _______ _____ _____    ______ ____
ROOT
ATOM      1  C   UNL     1      -0.407  10.935  20.079  0.00  0.00    +0.000 A 
ATOM      2  C   UNL     1      -0.342  12.219  20.532  0.00  0.00    +0.000 A 
ATOM      3  C   UNL     1      -0.676  13.169  19.421  0.00  0.00    +0.000 A 
ATOM      4  O   UNL     1       0.122  13.678  18.652  0.00  0.00    +0.000 OA
ATOM      5  O   UNL     1      -2.027  13.242  19.337  0.00  0.00    +0.000 OA
ATOM      6  C   UNL     1      -2.372  11.975  18.848  0.00  0.00    +0.000 A 
ATOM      7  C   UNL     1      -3.563  12.034  18.111  0.00  0.00    +0.000 A 
ATOM      8  C   UNL     1      -3.901  10.933  17.376  0.00  0.00    +0.000 A 
ATOM      9  C   UNL     1      -3.062   9.807  17.399  0.00  0.00    +0.000 A 
ATOM     10  C   UNL     1      -1.892   9.734  18.222  0.00  0.00    +0.000 A 
ATOM     11  C   UNL     1      -1.517  10.812  19.018  0.00  0.00    +0.000 A 
ENDROOT
BRANCH   2  12
ATOM     12  C   UNL     1      -0.992  12.541  21.838  0.00  0.00    +0.000 A 
ATOM     13  C   UNL     1      -2.102  11.788  22.276  0.00  0.00    +0.000 A 
ATOM     14  C   UNL     1      -2.877  12.222  23.344  0.00  0.00    +0.000 A 
ATOM     15  C   UNL     1      -2.540  13.403  23.988  0.00  0.00    +0.000 A 
ATOM     16  F   UNL     1      -3.307  13.835  24.994  0.00  0.00    +0.000 F 
ATOM     17  C   UNL     1      -1.443  14.153  23.596  0.00  0.00    +0.000 A 
ATOM     18  C   UNL     1      -0.660  13.724  22.527  0.00  0.00    +0.000 A 
ATOM     19 CL   UNL     1       0.670  14.731  22.071  0.00  0.00    +0.000 Cl
ENDBRANCH   2  12
BRANCH   8  20
ATOM     20  O   UNL     1      -5.011  10.962  16.592  0.00  0.00    +0.000 OA
ATOM     21  H   UNL     1      -5.608  11.666  16.882  0.00  0.00    +0.000 HD
ENDBRANCH   8  20
BRANCH   1  22
ATOM     22  C   UNL     1       0.904  10.181  20.396  0.00  0.00    +0.000 C 
BRANCH  22  26
ATOM     23  C   UNL     1       2.347   6.157  19.166  0.00  0.00    +0.000 A 
ATOM     24  C   UNL     1       1.888   6.460  20.439  0.00  0.00    +0.000 A 
ATOM     25  C   UNL     1       1.488   7.774  20.776  0.00  0.00    +0.000 A 
ATOM     26  C   UNL     1       1.539   8.876  19.876  0.00  0.00    +0.000 A 
ATOM     27  C   UNL     1       1.957   8.563  18.583  0.00  0.00    +0.000 A 
ATOM     28  C   UNL     1       2.373   7.231  18.244  0.00  0.00    +0.000 A 
BRANCH  23  30
ATOM     29  C   UNL     1       2.043   3.713  18.648  0.00  0.00    +0.000 C 
ATOM     30  C   UNL     1       2.834   4.799  18.785  0.00  0.00    +0.000 C 
BRANCH  29  32
ATOM     31  O   UNL     1       3.405   2.071  17.632  0.00  0.00    +0.000 OA
ATOM     32  C   UNL     1       2.409   2.314  18.306  0.00  0.00    +0.000 C 
BRANCH  32  33
ATOM     33  O   UNL     1       1.589   1.354  18.744  0.00  0.00    +0.000 OA
ATOM     34  H   UNL     1       1.408   0.644  18.113  0.00  0.00    +0.000 HD
ENDBRANCH  32  33
ENDBRANCH  29  32
ENDBRANCH  23  30
ENDBRANCH  22  26
ENDBRANCH   1  22
TORSDOF 7
ENDMDL
MODEL 9
REMARK VINA RESULT:      -7.8      4.677     10.445
REMARK  Name = 
REMARK  7 active torsions:
REMARK  status: ('A' for Active; 'I' for Inactive)
REMARK    1  A    between atoms: C_2  and  O_3
REMARK    2  A    between atoms: C_2  and  C_4
REMARK    3  A    between atoms: C_5  and  C_6
REMARK    4  A    between atoms: C_9  and  C_10
REMARK    5  A    between atoms: C_10  and  C_11
REMARK    6  A    between atoms: C_12  and  C_13
REMARK    7  A    between atoms: C_26  and  O_27
REMARK                            x       y       z     vdW  Elec       q    Type
REMARK                         _______ _______ _______ _____ _____    ______ ____
ROOT
ATOM      1  C   UNL     1       0.054  11.903  20.063  0.00  0.00    +0.000 A 
ATOM      2  C   UNL     1      -1.271  12.095  20.321  0.00  0.00    +0.000 A 
ATOM      3  C   UNL     1      -1.481  13.456  20.913  0.00  0.00    +0.000 A 
ATOM      4  O   UNL     1      -1.481  13.726  22.102  0.00  0.00    +0.000 OA
ATOM      5  O   UNL     1      -1.527  14.346  19.890  0.00  0.00    +0.000 OA
ATOM      6  C   UNL     1      -0.203  14.350  19.431  0.00  0.00    +0.000 A 
ATOM      7  C   UNL     1       0.118  15.586  18.852  0.00  0.00    +0.000 A 
ATOM      8  C   UNL     1       1.434  15.825  18.575  0.00  0.00    +0.000 A 
ATOM      9  C   UNL     1       2.389  14.837  18.864  0.00  0.00    +0.000 A 
ATOM     10  C   UNL     1       2.033  13.548  19.379  0.00  0.00    +0.000 A 
ATOM     11  C   UNL     1       0.704  13.235  19.649  0.00  0.00    +0.000 A 
ENDROOT
BRANCH   2  12
ATOM     12  C   UNL     1      -2.258  11.720  19.264  0.00  0.00    +0.000 A 
ATOM     13  C   UNL     1      -1.804  11.310  17.992  0.00  0.00    +0.000 A 
ATOM     14  C   UNL     1      -2.687  11.206  16.923  0.00  0.00    +0.000 A 
ATOM     15  C   UNL     1      -4.027  11.500  17.124  0.00  0.00    +0.000 A 
ATOM     16  F   UNL     1      -4.869  11.431  16.086  0.00  0.00    +0.000 F 
ATOM     17  C   UNL     1      -4.507  11.883  18.366  0.00  0.00    +0.000 A 
ATOM     18  C   UNL     1      -3.629  11.987  19.442  0.00  0.00    +0.000 A 
ATOM     19 CL   UNL     1      -4.293  12.508  20.952  0.00  0.00    +0.000 Cl
ENDBRANCH   2  12
BRANCH   8  20
ATOM     20  O   UNL     1       1.807  17.033  18.074  0.00  0.00    +0.000 OA
ATOM     21  H   UNL     1       1.734  17.715  18.756  0.00  0.00    +0.000 HD
ENDBRANCH   8  20
BRANCH   1  22
ATOM     22  C   UNL     1       0.547  10.590  20.712  0.00  0.00    +0.000 C 
BRANCH  22  26
ATOM     23  C   UNL     1       2.489   7.069  18.808  0.00  0.00    +0.000 A 
ATOM     24  C   UNL     1       2.176   8.240  18.134  0.00  0.00    +0.000 A 
ATOM     25  C   UNL     1       1.514   9.304  18.791  0.00  0.00    +0.000 A 
ATOM     26  C   UNL     1       1.102   9.264  20.154  0.00  0.00    +0.000 A 
ATOM     27  C   UNL     1       1.458   8.106  20.843  0.00  0.00    +0.000 A 
ATOM     28  C   UNL     1       2.120   7.021  20.174  0.00  0.00    +0.000 A 
BRANCH  23  30
ATOM     29  C   UNL     1       3.861   4.959  18.779  0.00  0.00    +0.000 C 
ATOM     30  C   UNL     1       3.132   5.900  18.140  0.00  0.00    +0.000 C 
BRANCH  29  32
ATOM     31  O   UNL     1       4.214   3.267  17.168  0.00  0.00    +0.000 OA
ATOM     32  C   UNL     1       4.570   3.776  18.226  0.00  0.00    +0.000 C 
BRANCH  32  33
ATOM     33  O   UNL     1       5.583   3.290  18.950  0.00  0.00    +0.000 OA
ATOM     34  H   UNL     1       5.877   3.852  19.680  0.00  0.00    +0.000 HD
ENDBRANCH  32  33
ENDBRANCH  29  32
ENDBRANCH  23  30
ENDBRANCH  22  26
ENDBRANCH   1  22
TORSDOF 7
ENDMDL
