MODEL 1
REMARK VINA RESULT:      -7.1      0.000      0.000
REMARK  Name = 
REMARK  5 active torsions:
REMARK  status: ('A' for Active; 'I' for Inactive)
REMARK    1  A    between atoms: C_1  and  N_2
REMARK    2  A    between atoms: N_5  and  C_6
REMARK    3  A    between atoms: C_6  and  C_7
REMARK    4  A    between atoms: C_7  and  O_8
REMARK    5  A    between atoms: O_8  and  C_9
REMARK                            x       y       z     vdW  Elec       q    Type
REMARK                         _______ _______ _______ _____ _____    ______ ____
ROOT
ATOM      1  C   UNL     1       1.368   2.986  21.495  0.00  0.00    +0.000 C 
ATOM      2  N   UNL     1       1.851   3.530  20.258  0.00  0.00    +0.000 N 
ATOM      3  C   UNL     1       2.252   2.863  19.089  0.00  0.00    +0.000 A 
ATOM      4  N   UNL     1       2.289   1.591  18.886  0.00  0.00    +0.000 NA
ATOM      5  N   UNL     1       2.619   3.844  18.157  0.00  0.00    +0.000 N 
ATOM      6  C   UNL     1       2.458   5.101  18.737  0.00  0.00    +0.000 A 
ATOM      7  C   UNL     1       2.679   6.369  18.243  0.00  0.00    +0.000 A 
ATOM      8  C   UNL     1       2.402   7.457  19.081  0.00  0.00    +0.000 A 
ATOM      9  C   UNL     1       1.916   7.261  20.386  0.00  0.00    +0.000 A 
ATOM     10  C   UNL     1       1.696   5.974  20.885  0.00  0.00    +0.000 A 
ATOM     11  C   UNL     1       1.976   4.905  20.050  0.00  0.00    +0.000 A 
ATOM     12  H   UNL     1       1.953   1.116  19.724  0.00  0.00    +0.000 HD
ENDROOT
BRANCH   5  13
ATOM     13  C   UNL     1       3.106   3.625  16.804  0.00  0.00    +0.000 C 
BRANCH  13  14
ATOM     14  C   UNL     1       4.538   3.090  16.816  0.00  0.00    +0.000 C 
BRANCH  14  15
ATOM     15  O   UNL     1       5.406   3.823  15.929  0.00  0.00    +0.000 OA
BRANCH  15  16
ATOM     16  C   UNL     1       6.039   4.883  16.545  0.00  0.00    +0.000 A 
ATOM     17  C   UNL     1       5.717   6.225  16.313  0.00  0.00    +0.000 A 
ATOM     18  C   UNL     1       6.434   7.251  16.928  0.00  0.00    +0.000 A 
ATOM     19  C   UNL     1       7.458   6.937  17.814  0.00  0.00    +0.000 A 
ATOM     20 CL   UNL     1       8.353   8.207  18.553  0.00  0.00    +0.000 Cl
ATOM     21  C   UNL     1       7.762   5.606  18.093  0.00  0.00    +0.000 A 
ATOM     22  C   UNL     1       7.048   4.578  17.463  0.00  0.00    +0.000 A 
ENDBRANCH  15  16
ENDBRANCH  14  15
ENDBRANCH  13  14
ENDBRANCH   5  13
TORSDOF 4
ENDMDL
MODEL 2
REMARK VINA RESULT:      -6.9      1.199      1.335
REMARK  Name = 
REMARK  5 active torsions:
REMARK  status: ('A' for Active; 'I' for Inactive)
REMARK    1  A    between atoms: C_1  and  N_2
REMARK    2  A    between atoms: N_5  and  C_6
REMARK    3  A    between atoms: C_6  and  C_7
REMARK    4  A    between atoms: C_7  and  O_8
REMARK    5  A    between atoms: O_8  and  C_9
REMARK                            x       y       z     vdW  Elec       q    Type
REMARK                         _______ _______ _______ _____ _____    ______ ____
ROOT
ATOM      1  C   UNL     1       3.134   2.605  21.205  0.00  0.00    +0.000 C 
ATOM      2  N   UNL     1       3.318   3.186  19.906  0.00  0.00    +0.000 N 
ATOM      3  C   UNL     1       3.799   2.594  18.726  0.00  0.00    +0.000 A 
ATOM      4  N   UNL     1       4.201   1.380  18.567  0.00  0.00    +0.000 NA
ATOM      5  N   UNL     1       3.767   3.576  17.727  0.00  0.00    +0.000 N 
ATOM      6  C   UNL     1       3.284   4.763  18.275  0.00  0.00    +0.000 A 
ATOM      7  C   UNL     1       3.066   6.004  17.715  0.00  0.00    +0.000 A 
ATOM      8  C   UNL     1       2.547   7.012  18.537  0.00  0.00    +0.000 A 
ATOM      9  C   UNL     1       2.260   6.767  19.892  0.00  0.00    +0.000 A 
ATOM     10  C   UNL     1       2.485   5.508  20.457  0.00  0.00    +0.000 A 
ATOM     11  C   UNL     1       3.001   4.519  19.637  0.00  0.00    +0.000 A 
ATOM     12  H   UNL     1       4.100   0.883  19.451  0.00  0.00    +0.000 HD
ENDROOT
BRANCH   5  13
ATOM     13  C   UNL     1       4.177   3.425  16.340  0.00  0.00    +0.000 C 
BRANCH  13  14
ATOM     14  C   UNL     1       5.432   4.246  16.045  0.00  0.00    +0.000 C 
BRANCH  14  15
ATOM     15  O   UNL     1       6.425   4.125  17.084  0.00  0.00    +0.000 OA
BRANCH  15  16
ATOM     16  C   UNL     1       6.947   5.340  17.477  0.00  0.00    +0.000 A 
ATOM     17  C   UNL     1       6.814   6.521  16.739  0.00  0.00    +0.000 A 
ATOM     18  C   UNL     1       7.414   7.705  17.166  0.00  0.00    +0.000 A 
ATOM     19  C   UNL     1       8.121   7.723  18.363  0.00  0.00    +0.000 A 
ATOM     20 CL   UNL     1       8.876   9.182  18.874  0.00  0.00    +0.000 Cl
ATOM     21  C   UNL     1       8.224   6.568  19.135  0.00  0.00    +0.000 A 
ATOM     22  C   UNL     1       7.631   5.376  18.695  0.00  0.00    +0.000 A 
ENDBRANCH  15  16
ENDBRANCH  14  15
ENDBRANCH  13  14
ENDBRANCH   5  13
TORSDOF 4
ENDMDL
MODEL 3
REMARK VINA RESULT:      -6.9      2.903      3.704
REMARK  Name = 
REMARK  5 active torsions:
REMARK  status: ('A' for Active; 'I' for Inactive)
REMARK    1  A    between atoms: C_1  and  N_2
REMARK    2  A    between atoms: N_5  and  C_6
REMARK    3  A    between atoms: C_6  and  C_7
REMARK    4  A    between atoms: C_7  and  O_8
REMARK    5  A    between atoms: O_8  and  C_9
REMARK                            x       y       z     vdW  Elec       q    Type
REMARK                         _______ _______ _______ _____ _____    ______ ____
ROOT
ATOM      1  C   UNL     1       2.151   2.943  19.006  0.00  0.00    +0.000 C 
ATOM      2  N   UNL     1       3.249   3.857  18.868  0.00  0.00    +0.000 N 
ATOM      3  C   UNL     1       4.618   3.645  19.103  0.00  0.00    +0.000 A 
ATOM      4  N   UNL     1       5.183   2.564  19.520  0.00  0.00    +0.000 NA
ATOM      5  N   UNL     1       5.280   4.842  18.801  0.00  0.00    +0.000 N 
ATOM      6  C   UNL     1       4.341   5.789  18.393  0.00  0.00    +0.000 A 
ATOM      7  C   UNL     1       4.481   7.101  17.994  0.00  0.00    +0.000 A 
ATOM      8  C   UNL     1       3.326   7.800  17.621  0.00  0.00    +0.000 A 
ATOM      9  C   UNL     1       2.063   7.183  17.656  0.00  0.00    +0.000 A 
ATOM     10  C   UNL     1       1.924   5.853  18.064  0.00  0.00    +0.000 A 
ATOM     11  C   UNL     1       3.071   5.172  18.433  0.00  0.00    +0.000 A 
ATOM     12  H   UNL     1       4.468   1.848  19.643  0.00  0.00    +0.000 HD
ENDROOT
BRANCH   5  13
ATOM     13  C   UNL     1       6.708   5.100  18.899  0.00  0.00    +0.000 C 
BRANCH  13  14
ATOM     14  C   UNL     1       7.442   4.604  17.653  0.00  0.00    +0.000 C 
BRANCH  14  15
ATOM     15  O   UNL     1       7.345   5.529  16.552  0.00  0.00    +0.000 OA
BRANCH  15  16
ATOM     16  C   UNL     1       6.913   4.936  15.383  0.00  0.00    +0.000 A 
ATOM     17  C   UNL     1       7.500   5.160  14.132  0.00  0.00    +0.000 A 
ATOM     18  C   UNL     1       6.979   4.571  12.980  0.00  0.00    +0.000 A 
ATOM     19  C   UNL     1       5.887   3.718  13.079  0.00  0.00    +0.000 A 
ATOM     20 CL   UNL     1       5.236   3.010  11.652  0.00  0.00    +0.000 Cl
ATOM     21  C   UNL     1       5.319   3.445  14.322  0.00  0.00    +0.000 A 
ATOM     22  C   UNL     1       5.836   4.050  15.476  0.00  0.00    +0.000 A 
ENDBRANCH  15  16
ENDBRANCH  14  15
ENDBRANCH  13  14
ENDBRANCH   5  13
TORSDOF 4
ENDMDL
MODEL 4
REMARK VINA RESULT:      -6.7      3.162      3.989
REMARK  Name = 
REMARK  5 active torsions:
REMARK  status: ('A' for Active; 'I' for Inactive)
REMARK    1  A    between atoms: C_1  and  N_2
REMARK    2  A    between atoms: N_5  and  C_6
REMARK    3  A    between atoms: C_6  and  C_7
REMARK    4  A    between atoms: C_7  and  O_8
REMARK    5  A    between atoms: O_8  and  C_9
REMARK                            x       y       z     vdW  Elec       q    Type
REMARK                         _______ _______ _______ _____ _____    ______ ____
ROOT
ATOM      1  C   UNL     1       4.310   2.264  19.677  0.00  0.00    +0.000 C 
ATOM      2  N   UNL     1       4.335   3.653  19.320  0.00  0.00    +0.000 N 
ATOM      3  C   UNL     1       5.277   4.357  18.552  0.00  0.00    +0.000 A 
ATOM      4  N   UNL     1       6.351   3.894  18.011  0.00  0.00    +0.000 NA
ATOM      5  N   UNL     1       4.839   5.687  18.475  0.00  0.00    +0.000 N 
ATOM      6  C   UNL     1       3.649   5.812  19.190  0.00  0.00    +0.000 A 
ATOM      7  C   UNL     1       2.831   6.899  19.417  0.00  0.00    +0.000 A 
ATOM      8  C   UNL     1       1.671   6.700  20.178  0.00  0.00    +0.000 A 
ATOM      9  C   UNL     1       1.354   5.432  20.697  0.00  0.00    +0.000 A 
ATOM     10  C   UNL     1       2.188   4.333  20.468  0.00  0.00    +0.000 A 
ATOM     11  C   UNL     1       3.332   4.541  19.717  0.00  0.00    +0.000 A 
ATOM     12  H   UNL     1       6.414   2.897  18.212  0.00  0.00    +0.000 HD
ENDROOT
BRANCH   5  13
ATOM     13  C   UNL     1       5.497   6.785  17.786  0.00  0.00    +0.000 C 
BRANCH  13  14
ATOM     14  C   UNL     1       5.379   6.632  16.270  0.00  0.00    +0.000 C 
BRANCH  14  15
ATOM     15  O   UNL     1       6.598   6.150  15.670  0.00  0.00    +0.000 OA
BRANCH  15  16
ATOM     16  C   UNL     1       6.379   5.236  14.660  0.00  0.00    +0.000 A 
ATOM     17  C   UNL     1       5.215   4.468  14.542  0.00  0.00    +0.000 A 
ATOM     18  C   UNL     1       5.081   3.521  13.527  0.00  0.00    +0.000 A 
ATOM     19  C   UNL     1       6.099   3.364  12.595  0.00  0.00    +0.000 A 
ATOM     20 CL   UNL     1       5.936   2.179  11.358  0.00  0.00    +0.000 Cl
ATOM     21  C   UNL     1       7.246   4.152  12.669  0.00  0.00    +0.000 A 
ATOM     22  C   UNL     1       7.384   5.094  13.698  0.00  0.00    +0.000 A 
ENDBRANCH  15  16
ENDBRANCH  14  15
ENDBRANCH  13  14
ENDBRANCH   5  13
TORSDOF 4
ENDMDL
MODEL 5
REMARK VINA RESULT:      -6.6      2.626      5.532
REMARK  Name = 
REMARK  5 active torsions:
REMARK  status: ('A' for Active; 'I' for Inactive)
REMARK    1  A    between atoms: C_1  and  N_2
REMARK    2  A    between atoms: N_5  and  C_6
REMARK    3  A    between atoms: C_6  and  C_7
REMARK    4  A    between atoms: C_7  and  O_8
REMARK    5  A    between atoms: O_8  and  C_9
REMARK                            x       y       z     vdW  Elec       q    Type
REMARK                         _______ _______ _______ _____ _____    ______ ____
ROOT
ATOM      1  C   UNL     1       7.811   5.582  18.779  0.00  0.00    +0.000 C 
ATOM      2  N   UNL     1       6.698   4.907  18.177  0.00  0.00    +0.000 N 
ATOM      3  C   UNL     1       5.582   4.312  18.789  0.00  0.00    +0.000 A 
ATOM      4  N   UNL     1       5.330   4.231  20.051  0.00  0.00    +0.000 NA
ATOM      5  N   UNL     1       4.769   3.805  17.766  0.00  0.00    +0.000 N 
ATOM      6  C   UNL     1       5.371   4.071  16.537  0.00  0.00    +0.000 A 
ATOM      7  C   UNL     1       4.979   3.782  15.247  0.00  0.00    +0.000 A 
ATOM      8  C   UNL     1       5.808   4.203  14.200  0.00  0.00    +0.000 A 
ATOM      9  C   UNL     1       7.005   4.896  14.456  0.00  0.00    +0.000 A 
ATOM     10  C   UNL     1       7.401   5.184  15.765  0.00  0.00    +0.000 A 
ATOM     11  C   UNL     1       6.576   4.761  16.794  0.00  0.00    +0.000 A 
ATOM     12  H   UNL     1       6.078   4.696  20.563  0.00  0.00    +0.000 HD
ENDROOT
BRANCH   5  13
ATOM     13  C   UNL     1       3.507   3.099  17.920  0.00  0.00    +0.000 C 
BRANCH  13  14
ATOM     14  C   UNL     1       2.353   4.079  18.132  0.00  0.00    +0.000 C 
BRANCH  14  15
ATOM     15  O   UNL     1       2.386   4.696  19.434  0.00  0.00    +0.000 OA
BRANCH  15  16
ATOM     16  C   UNL     1       2.171   6.058  19.393  0.00  0.00    +0.000 A 
ATOM     17  C   UNL     1       1.708   6.807  20.481  0.00  0.00    +0.000 A 
ATOM     18  C   UNL     1       1.459   8.174  20.356  0.00  0.00    +0.000 A 
ATOM     19  C   UNL     1       1.710   8.810  19.146  0.00  0.00    +0.000 A 
ATOM     20 CL   UNL     1       1.381  10.492  18.992  0.00  0.00    +0.000 Cl
ATOM     21  C   UNL     1       2.216   8.089  18.066  0.00  0.00    +0.000 A 
ATOM     22  C   UNL     1       2.453   6.713  18.191  0.00  0.00    +0.000 A 
ENDBRANCH  15  16
ENDBRANCH  14  15
ENDBRANCH  13  14
ENDBRANCH   5  13
TORSDOF 4
ENDMDL
MODEL 6
REMARK VINA RESULT:      -6.6      3.014      5.057
REMARK  Name = 
REMARK  5 active torsions:
REMARK  status: ('A' for Active; 'I' for Inactive)
REMARK    1  A    between atoms: C_1  and  N_2
REMARK    2  A    between atoms: N_5  and  C_6
REMARK    3  A    between atoms: C_6  and  C_7
REMARK    4  A    between atoms: C_7  and  O_8
REMARK    5  A    between atoms: O_8  and  C_9
REMARK                            x       y       z     vdW  Elec       q    Type
REMARK                         _______ _______ _______ _____ _____    ______ ____
ROOT
ATOM      1  C   UNL     1       4.951   2.024  20.399  0.00  0.00    +0.000 C 
ATOM      2  N   UNL     1       4.442   2.978  19.456  0.00  0.00    +0.000 N 
ATOM      3  C   UNL     1       5.134   3.950  18.713  0.00  0.00    +0.000 A 
ATOM      4  N   UNL     1       6.397   4.205  18.739  0.00  0.00    +0.000 NA
ATOM      5  N   UNL     1       4.188   4.614  17.920  0.00  0.00    +0.000 N 
ATOM      6  C   UNL     1       2.928   4.073  18.169  0.00  0.00    +0.000 A 
ATOM      7  C   UNL     1       1.687   4.374  17.650  0.00  0.00    +0.000 A 
ATOM      8  C   UNL     1       0.590   3.627  18.098  0.00  0.00    +0.000 A 
ATOM      9  C   UNL     1       0.750   2.603  19.049  0.00  0.00    +0.000 A 
ATOM     10  C   UNL     1       2.010   2.302  19.575  0.00  0.00    +0.000 A 
ATOM     11  C   UNL     1       3.087   3.049  19.128  0.00  0.00    +0.000 A 
ATOM     12  H   UNL     1       6.846   3.562  19.390  0.00  0.00    +0.000 HD
ENDROOT
BRANCH   5  13
ATOM     13  C   UNL     1       4.439   5.703  16.989  0.00  0.00    +0.000 C 
BRANCH  13  14
ATOM     14  C   UNL     1       4.074   7.052  17.610  0.00  0.00    +0.000 C 
BRANCH  14  15
ATOM     15  O   UNL     1       2.720   7.445  17.313  0.00  0.00    +0.000 OA
BRANCH  15  16
ATOM     16  C   UNL     1       2.108   8.109  18.356  0.00  0.00    +0.000 A 
ATOM     17  C   UNL     1       2.016   7.600  19.657  0.00  0.00    +0.000 A 
ATOM     18  C   UNL     1       1.335   8.299  20.653  0.00  0.00    +0.000 A 
ATOM     19  C   UNL     1       0.773   9.536  20.363  0.00  0.00    +0.000 A 
ATOM     20 CL   UNL     1      -0.083  10.383  21.591  0.00  0.00    +0.000 Cl
ATOM     21  C   UNL     1       0.895  10.080  19.086  0.00  0.00    +0.000 A 
ATOM     22  C   UNL     1       1.569   9.369  18.083  0.00  0.00    +0.000 A 
ENDBRANCH  15  16
ENDBRANCH  14  15
ENDBRANCH  13  14
ENDBRANCH   5  13
TORSDOF 4
ENDMDL
MODEL 7
REMARK VINA RESULT:      -6.6      3.402      4.811
REMARK  Name = 
REMARK  5 active torsions:
REMARK  status: ('A' for Active; 'I' for Inactive)
REMARK    1  A    between atoms: C_1  and  N_2
REMARK    2  A    between atoms: N_5  and  C_6
REMARK    3  A    between atoms: C_6  and  C_7
REMARK    4  A    between atoms: C_7  and  O_8
REMARK    5  A    between atoms: O_8  and  C_9
REMARK                            x       y       z     vdW  Elec       q    Type
REMARK                         _______ _______ _______ _____ _____    ______ ____
ROOT
ATOM      1  C   UNL     1       3.041   7.767  17.413  0.00  0.00    +0.000 C 
ATOM      2  N   UNL     1       4.015   6.785  17.797  0.00  0.00    +0.000 N 
ATOM      3  C   UNL     1       5.406   6.788  17.600  0.00  0.00    +0.000 A 
ATOM      4  N   UNL     1       6.111   7.686  17.004  0.00  0.00    +0.000 NA
ATOM      5  N   UNL     1       5.908   5.613  18.178  0.00  0.00    +0.000 N 
ATOM      6  C   UNL     1       4.848   4.886  18.718  0.00  0.00    +0.000 A 
ATOM      7  C   UNL     1       4.815   3.679  19.384  0.00  0.00    +0.000 A 
ATOM      8  C   UNL     1       3.572   3.208  19.826  0.00  0.00    +0.000 A 
ATOM      9  C   UNL     1       2.395   3.942  19.595  0.00  0.00    +0.000 A 
ATOM     10  C   UNL     1       2.432   5.164  18.917  0.00  0.00    +0.000 A 
ATOM     11  C   UNL     1       3.665   5.619  18.481  0.00  0.00    +0.000 A 
ATOM     12  H   UNL     1       5.493   8.436  16.697  0.00  0.00    +0.000 HD
ENDROOT
BRANCH   5  13
ATOM     13  C   UNL     1       7.296   5.182  18.216  0.00  0.00    +0.000 C 
BRANCH  13  14
ATOM     14  C   UNL     1       7.663   4.402  16.953  0.00  0.00    +0.000 C 
BRANCH  14  15
ATOM     15  O   UNL     1       7.676   5.234  15.776  0.00  0.00    +0.000 OA
BRANCH  15  16
ATOM     16  C   UNL     1       6.920   4.721  14.743  0.00  0.00    +0.000 A 
ATOM     17  C   UNL     1       5.621   4.225  14.899  0.00  0.00    +0.000 A 
ATOM     18  C   UNL     1       4.931   3.669  13.822  0.00  0.00    +0.000 A 
ATOM     19  C   UNL     1       5.526   3.642  12.566  0.00  0.00    +0.000 A 
ATOM     20 CL   UNL     1       4.678   2.936  11.246  0.00  0.00    +0.000 Cl
ATOM     21  C   UNL     1       6.800   4.174  12.381  0.00  0.00    +0.000 A 
ATOM     22  C   UNL     1       7.496   4.720  13.469  0.00  0.00    +0.000 A 
ENDBRANCH  15  16
ENDBRANCH  14  15
ENDBRANCH  13  14
ENDBRANCH   5  13
TORSDOF 4
ENDMDL
MODEL 8
REMARK VINA RESULT:      -6.5      4.682      6.807
REMARK  Name = 
REMARK  5 active torsions:
REMARK  status: ('A' for Active; 'I' for Inactive)
REMARK    1  A    between atoms: C_1  and  N_2
REMARK    2  A    between atoms: N_5  and  C_6
REMARK    3  A    between atoms: C_6  and  C_7
REMARK    4  A    between atoms: C_7  and  O_8
REMARK    5  A    between atoms: O_8  and  C_9
REMARK                            x       y       z     vdW  Elec       q    Type
REMARK                         _______ _______ _______ _____ _____    ______ ____
ROOT
ATOM      1  C   UNL     1       1.405  13.380  20.539  0.00  0.00    +0.000 C 
ATOM      2  N   UNL     1       1.175  12.022  20.137  0.00  0.00    +0.000 N 
ATOM      3  C   UNL     1       1.503  11.384  18.929  0.00  0.00    +0.000 A 
ATOM      4  N   UNL     1       2.076  11.905  17.899  0.00  0.00    +0.000 NA
ATOM      5  N   UNL     1       1.086  10.050  19.039  0.00  0.00    +0.000 N 
ATOM      6  C   UNL     1       0.500   9.861  20.290  0.00  0.00    +0.000 A 
ATOM      7  C   UNL     1      -0.059   8.745  20.876  0.00  0.00    +0.000 A 
ATOM      8  C   UNL     1      -0.560   8.870  22.178  0.00  0.00    +0.000 A 
ATOM      9  C   UNL     1      -0.498  10.096  22.864  0.00  0.00    +0.000 A 
ATOM     10  C   UNL     1       0.067  11.226  22.265  0.00  0.00    +0.000 A 
ATOM     11  C   UNL     1       0.557  11.093  20.977  0.00  0.00    +0.000 A 
ATOM     12  H   UNL     1       2.283  12.882  18.099  0.00  0.00    +0.000 HD
ENDROOT
BRANCH   5  13
ATOM     13  C   UNL     1       1.213   9.010  18.031  0.00  0.00    +0.000 C 
BRANCH  13  14
ATOM     14  C   UNL     1       2.575   8.321  18.122  0.00  0.00    +0.000 C 
BRANCH  14  15
ATOM     15  O   UNL     1       2.739   7.587  19.352  0.00  0.00    +0.000 OA
BRANCH  15  16
ATOM     16  C   UNL     1       2.260   6.295  19.280  0.00  0.00    +0.000 A 
ATOM     17  C   UNL     1       1.756   5.589  20.377  0.00  0.00    +0.000 A 
ATOM     18  C   UNL     1       1.338   4.265  20.247  0.00  0.00    +0.000 A 
ATOM     19  C   UNL     1       1.385   3.649  19.002  0.00  0.00    +0.000 A 
ATOM     20 CL   UNL     1       0.887   2.009  18.852  0.00  0.00    +0.000 Cl
ATOM     21  C   UNL     1       1.840   4.352  17.888  0.00  0.00    +0.000 A 
ATOM     22  C   UNL     1       2.272   5.679  18.026  0.00  0.00    +0.000 A 
ENDBRANCH  15  16
ENDBRANCH  14  15
ENDBRANCH  13  14
ENDBRANCH   5  13
TORSDOF 4
ENDMDL
MODEL 9
REMARK VINA RESULT:      -6.4      0.509      1.152
REMARK  Name = 
REMARK  5 active torsions:
REMARK  status: ('A' for Active; 'I' for Inactive)
REMARK    1  A    between atoms: C_1  and  N_2
REMARK    2  A    between atoms: N_5  and  C_6
REMARK    3  A    between atoms: C_6  and  C_7
REMARK    4  A    between atoms: C_7  and  O_8
REMARK    5  A    between atoms: O_8  and  C_9
REMARK                            x       y       z     vdW  Elec       q    Type
REMARK                         _______ _______ _______ _____ _____    ______ ____
ROOT
ATOM      1  C   UNL     1       1.969   2.675  21.475  0.00  0.00    +0.000 C 
ATOM      2  N   UNL     1       2.267   3.206  20.176  0.00  0.00    +0.000 N 
ATOM      3  C   UNL     1       2.579   2.525  18.987  0.00  0.00    +0.000 A 
ATOM      4  N   UNL     1       2.681   1.252  18.817  0.00  0.00    +0.000 NA
ATOM      5  N   UNL     1       2.767   3.494  17.992  0.00  0.00    +0.000 N 
ATOM      6  C   UNL     1       2.585   4.758  18.552  0.00  0.00    +0.000 A 
ATOM      7  C   UNL     1       2.658   6.019  18.000  0.00  0.00    +0.000 A 
ATOM      8  C   UNL     1       2.403   7.116  18.834  0.00  0.00    +0.000 A 
ATOM      9  C   UNL     1       2.084   6.935  20.192  0.00  0.00    +0.000 A 
ATOM     10  C   UNL     1       2.014   5.654  20.749  0.00  0.00    +0.000 A 
ATOM     11  C   UNL     1       2.271   4.578  19.917  0.00  0.00    +0.000 A 
ATOM     12  H   UNL     1       2.478   0.787  19.701  0.00  0.00    +0.000 HD
ENDROOT
BRANCH   5  13
ATOM     13  C   UNL     1       3.110   3.261  16.599  0.00  0.00    +0.000 C 
BRANCH  13  14
ATOM     14  C   UNL     1       4.620   3.358  16.381  0.00  0.00    +0.000 C 
BRANCH  14  15
ATOM     15  O   UNL     1       5.012   4.614  15.793  0.00  0.00    +0.000 OA
BRANCH  15  16
ATOM     16  C   UNL     1       5.913   5.316  16.566  0.00  0.00    +0.000 A 
ATOM     17  C   UNL     1       6.756   4.724  17.513  0.00  0.00    +0.000 A 
ATOM     18  C   UNL     1       7.606   5.499  18.301  0.00  0.00    +0.000 A 
ATOM     19  C   UNL     1       7.646   6.876  18.118  0.00  0.00    +0.000 A 
ATOM     20 CL   UNL     1       8.682   7.829  19.108  0.00  0.00    +0.000 Cl
ATOM     21  C   UNL     1       6.849   7.479  17.148  0.00  0.00    +0.000 A 
ATOM     22  C   UNL     1       5.986   6.698  16.366  0.00  0.00    +0.000 A 
ENDBRANCH  15  16
ENDBRANCH  14  15
ENDBRANCH  13  14
ENDBRANCH   5  13
TORSDOF 4
ENDMDL
