MODEL 1
REMARK VINA RESULT:      -7.8      0.000      0.000
REMARK  Name = 
REMARK  9 active torsions:
REMARK  status: ('A' for Active; 'I' for Inactive)
REMARK    1  A    between atoms: C_1  and  O_2
REMARK    2  A    between atoms: O_2  and  C_3
REMARK    3  A    between atoms: C_3  and  C_4
REMARK    4  A    between atoms: C_4  and  N_5
REMARK    5  A    between atoms: C_6  and  C_8
REMARK    6  A    between atoms: C_13  and  N_14
REMARK    7  A    between atoms: N_17  and  C_18
REMARK    8  A    between atoms: C_18  and  C_19
REMARK    9  A    between atoms: C_18  and  C_20
REMARK                            x       y       z     vdW  Elec       q    Type
REMARK                         _______ _______ _______ _____ _____    ______ ____
ROOT
ATOM      1  C   UNL     1       4.691   4.886  17.189  0.00  0.00    +0.000 A 
ATOM      2  N   UNL     1       4.782   3.683  17.791  0.00  0.00    +0.000 NA
ATOM      3  N   UNL     1       4.080   3.835  18.932  0.00  0.00    +0.000 N 
ATOM      4  C   UNL     1       3.507   5.067  19.085  0.00  0.00    +0.000 A 
ATOM      5  C   UNL     1       2.675   5.613  20.070  0.00  0.00    +0.000 A 
ATOM      6  C   UNL     1       2.288   6.938  19.869  0.00  0.00    +0.000 A 
ATOM      7  N   UNL     1       2.708   7.669  18.805  0.00  0.00    +0.000 NA
ATOM      8  C   UNL     1       3.510   7.118  17.858  0.00  0.00    +0.000 A 
ATOM      9  C   UNL     1       3.916   5.791  17.973  0.00  0.00    +0.000 A 
ATOM     10  H   UNL     1       4.022   3.044  19.565  0.00  0.00    +0.000 HD
ENDROOT
BRANCH   6  11
ATOM     11  N   UNL     1       1.408   7.528  20.797  0.00  0.00    +0.000 N 
ATOM     12  C   UNL     1       0.781   8.747  20.731  0.00  0.00    +0.000 C 
ATOM     13  O   UNL     1      -0.031   9.066  21.601  0.00  0.00    +0.000 OA
ATOM     14  N   UNL     1       1.124   9.540  19.692  0.00  0.00    +0.000 N 
ATOM     15  H   UNL     1       1.145   6.990  21.610  0.00  0.00    +0.000 HD
ATOM     16  H   UNL     1       1.815   9.130  19.072  0.00  0.00    +0.000 HD
BRANCH  14  17
ATOM     17  C   UNL     1       0.585  10.845  19.363  0.00  0.00    +0.000 C 
ATOM     18  C   UNL     1       0.495  11.766  20.588  0.00  0.00    +0.000 C 
BRANCH  17  19
ATOM     19  C   UNL     1      -0.822  10.735  18.782  0.00  0.00    +0.000 A 
ATOM     20  C   UNL     1      -1.054   9.900  17.680  0.00  0.00    +0.000 A 
ATOM     21  C   UNL     1      -2.277   9.940  17.006  0.00  0.00    +0.000 A 
ATOM     22  C   UNL     1      -3.286  10.799  17.435  0.00  0.00    +0.000 A 
ATOM     23  C   UNL     1      -3.089  11.599  18.556  0.00  0.00    +0.000 A 
ATOM     24  C   UNL     1      -1.865  11.573  19.221  0.00  0.00    +0.000 A 
ENDBRANCH  17  19
ENDBRANCH  14  17
ENDBRANCH   6  11
BRANCH   1  26
ATOM     25  N   UNL     1       5.932   4.108  15.276  0.00  0.00    +0.000 N 
ATOM     26  C   UNL     1       5.311   5.181  15.884  0.00  0.00    +0.000 C 
ATOM     27  O   UNL     1       5.264   6.297  15.373  0.00  0.00    +0.000 OA
ATOM     28  H   UNL     1       5.744   3.192  15.673  0.00  0.00    +0.000 HD
BRANCH  25  29
ATOM     29  C   UNL     1       6.463   4.226  13.932  0.00  0.00    +0.000 C 
BRANCH  29  30
ATOM     30  C   UNL     1       5.577   3.572  12.872  0.00  0.00    +0.000 C 
BRANCH  30  32
ATOM     31  C   UNL     1       5.828   1.720  11.438  0.00  0.00    +0.000 C 
ATOM     32  O   UNL     1       6.397   2.945  11.883  0.00  0.00    +0.000 OA
ENDBRANCH  30  32
ENDBRANCH  29  30
ENDBRANCH  25  29
ENDBRANCH   1  26
TORSDOF 7
ENDMDL
MODEL 2
REMARK VINA RESULT:      -7.7      2.167      3.088
REMARK  Name = 
REMARK  9 active torsions:
REMARK  status: ('A' for Active; 'I' for Inactive)
REMARK    1  A    between atoms: C_1  and  O_2
REMARK    2  A    between atoms: O_2  and  C_3
REMARK    3  A    between atoms: C_3  and  C_4
REMARK    4  A    between atoms: C_4  and  N_5
REMARK    5  A    between atoms: C_6  and  C_8
REMARK    6  A    between atoms: C_13  and  N_14
REMARK    7  A    between atoms: N_17  and  C_18
REMARK    8  A    between atoms: C_18  and  C_19
REMARK    9  A    between atoms: C_18  and  C_20
REMARK                            x       y       z     vdW  Elec       q    Type
REMARK                         _______ _______ _______ _____ _____    ______ ____
ROOT
ATOM      1  C   UNL     1       6.947   4.742  16.181  0.00  0.00    +0.000 A 
ATOM      2  N   UNL     1       7.910   4.220  16.968  0.00  0.00    +0.000 NA
ATOM      3  N   UNL     1       7.435   4.388  18.219  0.00  0.00    +0.000 N 
ATOM      4  C   UNL     1       6.195   4.963  18.282  0.00  0.00    +0.000 A 
ATOM      5  C   UNL     1       5.340   5.261  19.350  0.00  0.00    +0.000 A 
ATOM      6  C   UNL     1       4.129   5.861  19.004  0.00  0.00    +0.000 A 
ATOM      7  N   UNL     1       3.803   6.166  17.723  0.00  0.00    +0.000 NA
ATOM      8  C   UNL     1       4.645   5.863  16.702  0.00  0.00    +0.000 A 
ATOM      9  C   UNL     1       5.862   5.237  16.963  0.00  0.00    +0.000 A 
ATOM     10  H   UNL     1       8.011   4.075  18.993  0.00  0.00    +0.000 HD
ENDROOT
BRANCH   6  11
ATOM     11  N   UNL     1       3.201   6.136  20.028  0.00  0.00    +0.000 N 
ATOM     12  C   UNL     1       2.159   7.030  20.024  0.00  0.00    +0.000 C 
ATOM     13  O   UNL     1       1.389   7.076  20.986  0.00  0.00    +0.000 OA
ATOM     14  N   UNL     1       2.060   7.828  18.940  0.00  0.00    +0.000 N 
ATOM     15  H   UNL     1       3.253   5.590  20.875  0.00  0.00    +0.000 HD
ATOM     16  H   UNL     1       2.781   7.668  18.243  0.00  0.00    +0.000 HD
BRANCH  14  17
ATOM     17  C   UNL     1       1.037   8.818  18.663  0.00  0.00    +0.000 C 
ATOM     18  C   UNL     1       0.626   8.836  17.184  0.00  0.00    +0.000 C 
BRANCH  17  19
ATOM     19  C   UNL     1       1.513  10.224  19.013  0.00  0.00    +0.000 A 
ATOM     20  C   UNL     1       1.114  10.811  20.222  0.00  0.00    +0.000 A 
ATOM     21  C   UNL     1       1.364  12.163  20.470  0.00  0.00    +0.000 A 
ATOM     22  C   UNL     1       2.030  12.938  19.524  0.00  0.00    +0.000 A 
ATOM     23  C   UNL     1       2.476  12.359  18.340  0.00  0.00    +0.000 A 
ATOM     24  C   UNL     1       2.214  11.015  18.083  0.00  0.00    +0.000 A 
ENDBRANCH  17  19
ENDBRANCH  14  17
ENDBRANCH   6  11
BRANCH   1  26
ATOM     25  N   UNL     1       6.299   3.791  14.064  0.00  0.00    +0.000 N 
ATOM     26  C   UNL     1       7.036   4.764  14.710  0.00  0.00    +0.000 C 
ATOM     27  O   UNL     1       7.708   5.597  14.106  0.00  0.00    +0.000 OA
ATOM     28  H   UNL     1       5.624   3.285  14.630  0.00  0.00    +0.000 HD
BRANCH  25  29
ATOM     29  C   UNL     1       6.190   3.783  12.618  0.00  0.00    +0.000 C 
BRANCH  29  30
ATOM     30  C   UNL     1       5.057   2.897  12.101  0.00  0.00    +0.000 C 
BRANCH  30  32
ATOM     31  C   UNL     1       7.012   1.903  11.242  0.00  0.00    +0.000 C 
ATOM     32  O   UNL     1       5.605   1.778  11.401  0.00  0.00    +0.000 OA
ENDBRANCH  30  32
ENDBRANCH  29  30
ENDBRANCH  25  29
ENDBRANCH   1  26
TORSDOF 7
ENDMDL
MODEL 3
REMARK VINA RESULT:      -7.7      1.443      2.091
REMARK  Name = 
REMARK  9 active torsions:
REMARK  status: ('A' for Active; 'I' for Inactive)
REMARK    1  A    between atoms: C_1  and  O_2
REMARK    2  A    between atoms: O_2  and  C_3
REMARK    3  A    between atoms: C_3  and  C_4
REMARK    4  A    between atoms: C_4  and  N_5
REMARK    5  A    between atoms: C_6  and  C_8
REMARK    6  A    between atoms: C_13  and  N_14
REMARK    7  A    between atoms: N_17  and  C_18
REMARK    8  A    between atoms: C_18  and  C_19
REMARK    9  A    between atoms: C_18  and  C_20
REMARK                            x       y       z     vdW  Elec       q    Type
REMARK                         _______ _______ _______ _____ _____    ______ ____
ROOT
ATOM      1  C   UNL     1       3.565   4.267  18.687  0.00  0.00    +0.000 A 
ATOM      2  N   UNL     1       3.267   3.230  19.497  0.00  0.00    +0.000 NA
ATOM      3  N   UNL     1       2.513   3.781  20.469  0.00  0.00    +0.000 N 
ATOM      4  C   UNL     1       2.276   5.119  20.313  0.00  0.00    +0.000 A 
ATOM      5  C   UNL     1       1.520   6.041  21.046  0.00  0.00    +0.000 A 
ATOM      6  C   UNL     1       1.524   7.349  20.558  0.00  0.00    +0.000 A 
ATOM      7  N   UNL     1       2.234   7.719  19.463  0.00  0.00    +0.000 NA
ATOM      8  C   UNL     1       2.957   6.806  18.764  0.00  0.00    +0.000 A 
ATOM      9  C   UNL     1       2.980   5.474  19.171  0.00  0.00    +0.000 A 
ATOM     10  H   UNL     1       2.179   3.177  21.212  0.00  0.00    +0.000 HD
ENDROOT
BRANCH   6  11
ATOM     11  N   UNL     1       0.738   8.313  21.220  0.00  0.00    +0.000 N 
ATOM     12  C   UNL     1       0.252   9.502  20.737  0.00  0.00    +0.000 C 
ATOM     13  O   UNL     1      -0.498  10.186  21.436  0.00  0.00    +0.000 OA
ATOM     14  N   UNL     1       0.656   9.854  19.497  0.00  0.00    +0.000 N 
ATOM     15  H   UNL     1       0.436   8.114  22.162  0.00  0.00    +0.000 HD
ATOM     16  H   UNL     1       1.282   9.183  19.063  0.00  0.00    +0.000 HD
BRANCH  14  17
ATOM     17  C   UNL     1       0.260  11.025  18.739  0.00  0.00    +0.000 C 
ATOM     18  C   UNL     1       0.387  12.320  19.554  0.00  0.00    +0.000 C 
BRANCH  17  19
ATOM     19  C   UNL     1      -1.192  10.926  18.281  0.00  0.00    +0.000 A 
ATOM     20  C   UNL     1      -2.137  11.839  18.769  0.00  0.00    +0.000 A 
ATOM     21  C   UNL     1      -3.500  11.645  18.530  0.00  0.00    +0.000 A 
ATOM     22  C   UNL     1      -3.932  10.550  17.785  0.00  0.00    +0.000 A 
ATOM     23  C   UNL     1      -3.003   9.661  17.251  0.00  0.00    +0.000 A 
ATOM     24  C   UNL     1      -1.645   9.843  17.503  0.00  0.00    +0.000 A 
ENDBRANCH  17  19
ENDBRANCH  14  17
ENDBRANCH   6  11
BRANCH   1  26
ATOM     25  N   UNL     1       5.731   4.333  17.635  0.00  0.00    +0.000 N 
ATOM     26  C   UNL     1       4.377   4.125  17.465  0.00  0.00    +0.000 C 
ATOM     27  O   UNL     1       3.882   3.830  16.380  0.00  0.00    +0.000 OA
ATOM     28  H   UNL     1       6.066   4.369  18.593  0.00  0.00    +0.000 HD
BRANCH  25  29
ATOM     29  C   UNL     1       6.658   4.093  16.546  0.00  0.00    +0.000 C 
BRANCH  29  30
ATOM     30  C   UNL     1       7.109   5.373  15.842  0.00  0.00    +0.000 C 
BRANCH  30  32
ATOM     31  C   UNL     1       6.434   4.129  13.959  0.00  0.00    +0.000 C 
ATOM     32  O   UNL     1       6.538   5.425  14.532  0.00  0.00    +0.000 OA
ENDBRANCH  30  32
ENDBRANCH  29  30
ENDBRANCH  25  29
ENDBRANCH   1  26
TORSDOF 7
ENDMDL
MODEL 4
REMARK VINA RESULT:      -7.6      1.663      2.289
REMARK  Name = 
REMARK  9 active torsions:
REMARK  status: ('A' for Active; 'I' for Inactive)
REMARK    1  A    between atoms: C_1  and  O_2
REMARK    2  A    between atoms: O_2  and  C_3
REMARK    3  A    between atoms: C_3  and  C_4
REMARK    4  A    between atoms: C_4  and  N_5
REMARK    5  A    between atoms: C_6  and  C_8
REMARK    6  A    between atoms: C_13  and  N_14
REMARK    7  A    between atoms: N_17  and  C_18
REMARK    8  A    between atoms: C_18  and  C_19
REMARK    9  A    between atoms: C_18  and  C_20
REMARK                            x       y       z     vdW  Elec       q    Type
REMARK                         _______ _______ _______ _____ _____    ______ ____
ROOT
ATOM      1  C   UNL     1       2.840   3.475  18.682  0.00  0.00    +0.000 A 
ATOM      2  N   UNL     1       1.986   2.606  19.262  0.00  0.00    +0.000 NA
ATOM      3  N   UNL     1       1.307   3.360  20.150  0.00  0.00    +0.000 N 
ATOM      4  C   UNL     1       1.654   4.684  20.152  0.00  0.00    +0.000 A 
ATOM      5  C   UNL     1       1.173   5.790  20.861  0.00  0.00    +0.000 A 
ATOM      6  C   UNL     1       1.798   7.006  20.580  0.00  0.00    +0.000 A 
ATOM      7  N   UNL     1       2.824   7.115  19.700  0.00  0.00    +0.000 NA
ATOM      8  C   UNL     1       3.271   6.029  19.018  0.00  0.00    +0.000 A 
ATOM      9  C   UNL     1       2.680   4.784  19.222  0.00  0.00    +0.000 A 
ATOM     10  H   UNL     1       0.606   2.905  20.723  0.00  0.00    +0.000 HD
ENDROOT
BRANCH   6  11
ATOM     11  N   UNL     1       1.323   8.167  21.222  0.00  0.00    +0.000 N 
ATOM     12  C   UNL     1       0.892   9.343  20.660  0.00  0.00    +0.000 C 
ATOM     13  O   UNL     1       0.424  10.229  21.377  0.00  0.00    +0.000 OA
ATOM     14  N   UNL     1       1.029   9.451  19.321  0.00  0.00    +0.000 N 
ATOM     15  H   UNL     1       1.232   8.151  22.227  0.00  0.00    +0.000 HD
ATOM     16  H   UNL     1       1.442   8.634  18.882  0.00  0.00    +0.000 HD
BRANCH  14  17
ATOM     17  C   UNL     1       0.617  10.556  18.478  0.00  0.00    +0.000 C 
ATOM     18  C   UNL     1       1.056  11.916  19.039  0.00  0.00    +0.000 C 
BRANCH  17  19
ATOM     19  C   UNL     1      -0.901  10.604  18.326  0.00  0.00    +0.000 A 
ATOM     20  C   UNL     1      -1.530   9.780  17.383  0.00  0.00    +0.000 A 
ATOM     21  C   UNL     1      -2.883   9.953  17.082  0.00  0.00    +0.000 A 
ATOM     22  C   UNL     1      -3.626  10.934  17.732  0.00  0.00    +0.000 A 
ATOM     23  C   UNL     1      -3.029  11.729  18.707  0.00  0.00    +0.000 A 
ATOM     24  C   UNL     1      -1.676  11.570  18.997  0.00  0.00    +0.000 A 
ENDBRANCH  17  19
ENDBRANCH  14  17
ENDBRANCH   6  11
BRANCH   1  26
ATOM     25  N   UNL     1       4.372   4.134  16.943  0.00  0.00    +0.000 N 
ATOM     26  C   UNL     1       3.786   3.084  17.621  0.00  0.00    +0.000 C 
ATOM     27  O   UNL     1       4.041   1.908  17.371  0.00  0.00    +0.000 OA
ATOM     28  H   UNL     1       4.256   5.057  17.352  0.00  0.00    +0.000 HD
BRANCH  25  29
ATOM     29  C   UNL     1       5.419   3.894  15.970  0.00  0.00    +0.000 C 
BRANCH  29  30
ATOM     30  C   UNL     1       6.801   4.342  16.445  0.00  0.00    +0.000 C 
BRANCH  30  32
ATOM     31  C   UNL     1       6.859   4.727  14.121  0.00  0.00    +0.000 C 
ATOM     32  O   UNL     1       7.495   4.977  15.368  0.00  0.00    +0.000 OA
ENDBRANCH  30  32
ENDBRANCH  29  30
ENDBRANCH  25  29
ENDBRANCH   1  26
TORSDOF 7
ENDMDL
MODEL 5
REMARK VINA RESULT:      -7.5      3.223      4.718
REMARK  Name = 
REMARK  9 active torsions:
REMARK  status: ('A' for Active; 'I' for Inactive)
REMARK    1  A    between atoms: C_1  and  O_2
REMARK    2  A    between atoms: O_2  and  C_3
REMARK    3  A    between atoms: C_3  and  C_4
REMARK    4  A    between atoms: C_4  and  N_5
REMARK    5  A    between atoms: C_6  and  C_8
REMARK    6  A    between atoms: C_13  and  N_14
REMARK    7  A    between atoms: N_17  and  C_18
REMARK    8  A    between atoms: C_18  and  C_19
REMARK    9  A    between atoms: C_18  and  C_20
REMARK                            x       y       z     vdW  Elec       q    Type
REMARK                         _______ _______ _______ _____ _____    ______ ____
ROOT
ATOM      1  C   UNL     1       7.034   5.059  15.165  0.00  0.00    +0.000 A 
ATOM      2  N   UNL     1       7.725   6.062  15.743  0.00  0.00    +0.000 NA
ATOM      3  N   UNL     1       7.405   5.968  17.049  0.00  0.00    +0.000 N 
ATOM      4  C   UNL     1       6.567   4.932  17.355  0.00  0.00    +0.000 A 
ATOM      5  C   UNL     1       6.042   4.458  18.563  0.00  0.00    +0.000 A 
ATOM      6  C   UNL     1       5.202   3.349  18.464  0.00  0.00    +0.000 A 
ATOM      7  N   UNL     1       4.884   2.776  17.276  0.00  0.00    +0.000 NA
ATOM      8  C   UNL     1       5.408   3.249  16.116  0.00  0.00    +0.000 A 
ATOM      9  C   UNL     1       6.278   4.336  16.134  0.00  0.00    +0.000 A 
ATOM     10  H   UNL     1       7.807   6.646  17.688  0.00  0.00    +0.000 HD
ENDROOT
BRANCH   6  11
ATOM     11  N   UNL     1       4.686   2.791  19.650  0.00  0.00    +0.000 N 
ATOM     12  C   UNL     1       3.648   3.239  20.428  0.00  0.00    +0.000 C 
ATOM     13  O   UNL     1       3.274   2.570  21.394  0.00  0.00    +0.000 OA
ATOM     14  N   UNL     1       3.107   4.426  20.078  0.00  0.00    +0.000 N 
ATOM     15  H   UNL     1       5.079   1.920  19.975  0.00  0.00    +0.000 HD
ATOM     16  H   UNL     1       3.540   4.851  19.263  0.00  0.00    +0.000 HD
BRANCH  14  17
ATOM     17  C   UNL     1       1.981   5.099  20.695  0.00  0.00    +0.000 C 
ATOM     18  C   UNL     1       0.668   4.324  20.519  0.00  0.00    +0.000 C 
BRANCH  17  19
ATOM     19  C   UNL     1       1.766   6.486  20.097  0.00  0.00    +0.000 A 
ATOM     20  C   UNL     1       2.249   6.770  18.812  0.00  0.00    +0.000 A 
ATOM     21  C   UNL     1       2.248   8.080  18.328  0.00  0.00    +0.000 A 
ATOM     22  C   UNL     1       1.747   9.116  19.111  0.00  0.00    +0.000 A 
ATOM     23  C   UNL     1       1.218   8.845  20.370  0.00  0.00    +0.000 A 
ATOM     24  C   UNL     1       1.233   7.541  20.862  0.00  0.00    +0.000 A 
ENDBRANCH  17  19
ENDBRANCH  14  17
ENDBRANCH   6  11
BRANCH   1  26
ATOM     25  N   UNL     1       6.455   3.611  13.329  0.00  0.00    +0.000 N 
ATOM     26  C   UNL     1       7.092   4.771  13.720  0.00  0.00    +0.000 C 
ATOM     27  O   UNL     1       7.655   5.520  12.925  0.00  0.00    +0.000 OA
ATOM     28  H   UNL     1       5.852   3.171  14.017  0.00  0.00    +0.000 HD
BRANCH  25  29
ATOM     29  C   UNL     1       6.320   3.279  11.923  0.00  0.00    +0.000 C 
BRANCH  29  30
ATOM     30  C   UNL     1       5.007   2.572  11.591  0.00  0.00    +0.000 C 
BRANCH  30  32
ATOM     31  C   UNL     1       3.359   3.508  10.192  0.00  0.00    +0.000 C 
ATOM     32  O   UNL     1       3.958   3.537  11.481  0.00  0.00    +0.000 OA
ENDBRANCH  30  32
ENDBRANCH  29  30
ENDBRANCH  25  29
ENDBRANCH   1  26
TORSDOF 7
ENDMDL
MODEL 6
REMARK VINA RESULT:      -7.5      2.904      9.079
REMARK  Name = 
REMARK  9 active torsions:
REMARK  status: ('A' for Active; 'I' for Inactive)
REMARK    1  A    between atoms: C_1  and  O_2
REMARK    2  A    between atoms: O_2  and  C_3
REMARK    3  A    between atoms: C_3  and  C_4
REMARK    4  A    between atoms: C_4  and  N_5
REMARK    5  A    between atoms: C_6  and  C_8
REMARK    6  A    between atoms: C_13  and  N_14
REMARK    7  A    between atoms: N_17  and  C_18
REMARK    8  A    between atoms: C_18  and  C_19
REMARK    9  A    between atoms: C_18  and  C_20
REMARK                            x       y       z     vdW  Elec       q    Type
REMARK                         _______ _______ _______ _____ _____    ______ ____
ROOT
ATOM      1  C   UNL     1       1.183  10.206  19.232  0.00  0.00    +0.000 A 
ATOM      2  N   UNL     1       1.556  10.380  17.948  0.00  0.00    +0.000 NA
ATOM      3  N   UNL     1       2.078   9.187  17.596  0.00  0.00    +0.000 N 
ATOM      4  C   UNL     1       2.031   8.236  18.578  0.00  0.00    +0.000 A 
ATOM      5  C   UNL     1       2.407   6.888  18.613  0.00  0.00    +0.000 A 
ATOM      6  C   UNL     1       2.197   6.234  19.828  0.00  0.00    +0.000 A 
ATOM      7  N   UNL     1       1.691   6.861  20.919  0.00  0.00    +0.000 NA
ATOM      8  C   UNL     1       1.328   8.168  20.860  0.00  0.00    +0.000 A 
ATOM      9  C   UNL     1       1.479   8.883  19.675  0.00  0.00    +0.000 A 
ATOM     10  H   UNL     1       2.444   9.087  16.656  0.00  0.00    +0.000 HD
ENDROOT
BRANCH   6  11
ATOM     11  N   UNL     1       2.504   4.861  19.911  0.00  0.00    +0.000 N 
ATOM     12  C   UNL     1       3.679   4.224  19.598  0.00  0.00    +0.000 C 
ATOM     13  O   UNL     1       3.798   3.017  19.818  0.00  0.00    +0.000 OA
ATOM     14  N   UNL     1       4.643   4.988  19.040  0.00  0.00    +0.000 N 
ATOM     15  H   UNL     1       1.804   4.241  20.290  0.00  0.00    +0.000 HD
ATOM     16  H   UNL     1       4.379   5.961  18.919  0.00  0.00    +0.000 HD
BRANCH  14  17
ATOM     17  C   UNL     1       5.981   4.581  18.660  0.00  0.00    +0.000 C 
ATOM     18  C   UNL     1       7.051   5.578  19.128  0.00  0.00    +0.000 C 
BRANCH  17  19
ATOM     19  C   UNL     1       6.117   4.458  17.145  0.00  0.00    +0.000 A 
ATOM     20  C   UNL     1       7.332   4.788  16.528  0.00  0.00    +0.000 A 
ATOM     21  C   UNL     1       7.417   4.882  15.137  0.00  0.00    +0.000 A 
ATOM     22  C   UNL     1       6.299   4.629  14.347  0.00  0.00    +0.000 A 
ATOM     23  C   UNL     1       5.097   4.252  14.941  0.00  0.00    +0.000 A 
ATOM     24  C   UNL     1       5.005   4.173  16.329  0.00  0.00    +0.000 A 
ENDBRANCH  17  19
ENDBRANCH  14  17
ENDBRANCH   6  11
BRANCH   1  26
ATOM     25  N   UNL     1      -0.734  10.972  20.476  0.00  0.00    +0.000 N 
ATOM     26  C   UNL     1       0.541  11.265  20.033  0.00  0.00    +0.000 C 
ATOM     27  O   UNL     1       1.108  12.323  20.295  0.00  0.00    +0.000 OA
ATOM     28  H   UNL     1      -1.034  10.007  20.383  0.00  0.00    +0.000 HD
BRANCH  25  29
ATOM     29  C   UNL     1      -1.425  11.868  21.383  0.00  0.00    +0.000 C 
BRANCH  29  30
ATOM     30  C   UNL     1      -1.049  11.653  22.848  0.00  0.00    +0.000 C 
BRANCH  30  32
ATOM     31  C   UNL     1      -0.077   9.616  23.525  0.00  0.00    +0.000 C 
ATOM     32  O   UNL     1      -1.288  10.290  23.209  0.00  0.00    +0.000 OA
ENDBRANCH  30  32
ENDBRANCH  29  30
ENDBRANCH  25  29
ENDBRANCH   1  26
TORSDOF 7
ENDMDL
MODEL 7
REMARK VINA RESULT:      -7.5      2.940      9.385
REMARK  Name = 
REMARK  9 active torsions:
REMARK  status: ('A' for Active; 'I' for Inactive)
REMARK    1  A    between atoms: C_1  and  O_2
REMARK    2  A    between atoms: O_2  and  C_3
REMARK    3  A    between atoms: C_3  and  C_4
REMARK    4  A    between atoms: C_4  and  N_5
REMARK    5  A    between atoms: C_6  and  C_8
REMARK    6  A    between atoms: C_13  and  N_14
REMARK    7  A    between atoms: N_17  and  C_18
REMARK    8  A    between atoms: C_18  and  C_19
REMARK    9  A    between atoms: C_18  and  C_20
REMARK                            x       y       z     vdW  Elec       q    Type
REMARK                         _______ _______ _______ _____ _____    ______ ____
ROOT
ATOM      1  C   UNL     1       1.164  10.387  19.446  0.00  0.00    +0.000 A 
ATOM      2  N   UNL     1       1.528  10.588  18.163  0.00  0.00    +0.000 NA
ATOM      3  N   UNL     1       2.010   9.392  17.770  0.00  0.00    +0.000 N 
ATOM      4  C   UNL     1       1.946   8.413  18.723  0.00  0.00    +0.000 A 
ATOM      5  C   UNL     1       2.281   7.054  18.714  0.00  0.00    +0.000 A 
ATOM      6  C   UNL     1       2.066   6.370  19.911  0.00  0.00    +0.000 A 
ATOM      7  N   UNL     1       1.590   6.979  21.026  0.00  0.00    +0.000 NA
ATOM      8  C   UNL     1       1.266   8.298  21.011  0.00  0.00    +0.000 A 
ATOM      9  C   UNL     1       1.425   9.043  19.845  0.00  0.00    +0.000 A 
ATOM     10  H   UNL     1       2.363   9.309  16.822  0.00  0.00    +0.000 HD
ENDROOT
BRANCH   6  11
ATOM     11  N   UNL     1       2.332   4.987  19.949  0.00  0.00    +0.000 N 
ATOM     12  C   UNL     1       3.487   4.326  19.613  0.00  0.00    +0.000 C 
ATOM     13  O   UNL     1       3.571   3.110  19.793  0.00  0.00    +0.000 OA
ATOM     14  N   UNL     1       4.472   5.079  19.077  0.00  0.00    +0.000 N 
ATOM     15  H   UNL     1       1.615   4.376  20.311  0.00  0.00    +0.000 HD
ATOM     16  H   UNL     1       4.236   6.062  18.987  0.00  0.00    +0.000 HD
BRANCH  14  17
ATOM     17  C   UNL     1       5.797   4.645  18.680  0.00  0.00    +0.000 C 
ATOM     18  C   UNL     1       6.905   5.510  19.297  0.00  0.00    +0.000 C 
BRANCH  17  19
ATOM     19  C   UNL     1       5.973   4.707  17.165  0.00  0.00    +0.000 A 
ATOM     20  C   UNL     1       4.944   4.253  16.328  0.00  0.00    +0.000 A 
ATOM     21  C   UNL     1       5.159   4.107  14.956  0.00  0.00    +0.000 A 
ATOM     22  C   UNL     1       6.395   4.432  14.402  0.00  0.00    +0.000 A 
ATOM     23  C   UNL     1       7.411   4.930  15.211  0.00  0.00    +0.000 A 
ATOM     24  C   UNL     1       7.205   5.061  16.583  0.00  0.00    +0.000 A 
ENDBRANCH  17  19
ENDBRANCH  14  17
ENDBRANCH   6  11
BRANCH   1  26
ATOM     25  N   UNL     1      -0.802  11.594  20.143  0.00  0.00    +0.000 N 
ATOM     26  C   UNL     1       0.563  11.440  20.285  0.00  0.00    +0.000 C 
ATOM     27  O   UNL     1       1.230  12.118  21.063  0.00  0.00    +0.000 OA
ATOM     28  H   UNL     1      -1.289  10.861  19.636  0.00  0.00    +0.000 HD
BRANCH  25  29
ATOM     29  C   UNL     1      -1.537  12.499  21.005  0.00  0.00    +0.000 C 
BRANCH  29  30
ATOM     30  C   UNL     1      -1.916  11.879  22.350  0.00  0.00    +0.000 C 
BRANCH  30  32
ATOM     31  C   UNL     1      -1.218  13.858  23.422  0.00  0.00    +0.000 C 
ATOM     32  O   UNL     1      -1.102  12.441  23.382  0.00  0.00    +0.000 OA
ENDBRANCH  30  32
ENDBRANCH  29  30
ENDBRANCH  25  29
ENDBRANCH   1  26
TORSDOF 7
ENDMDL
MODEL 8
REMARK VINA RESULT:      -7.5      2.450      8.871
REMARK  Name = 
REMARK  9 active torsions:
REMARK  status: ('A' for Active; 'I' for Inactive)
REMARK    1  A    between atoms: C_1  and  O_2
REMARK    2  A    between atoms: O_2  and  C_3
REMARK    3  A    between atoms: C_3  and  C_4
REMARK    4  A    between atoms: C_4  and  N_5
REMARK    5  A    between atoms: C_6  and  C_8
REMARK    6  A    between atoms: C_13  and  N_14
REMARK    7  A    between atoms: N_17  and  C_18
REMARK    8  A    between atoms: C_18  and  C_19
REMARK    9  A    between atoms: C_18  and  C_20
REMARK                            x       y       z     vdW  Elec       q    Type
REMARK                         _______ _______ _______ _____ _____    ______ ____
ROOT
ATOM      1  C   UNL     1       1.218   9.525  18.927  0.00  0.00    +0.000 A 
ATOM      2  N   UNL     1       1.702   9.746  17.688  0.00  0.00    +0.000 NA
ATOM      3  N   UNL     1       2.454   8.657  17.432  0.00  0.00    +0.000 N 
ATOM      4  C   UNL     1       2.455   7.721  18.429  0.00  0.00    +0.000 A 
ATOM      5  C   UNL     1       3.045   6.457  18.546  0.00  0.00    +0.000 A 
ATOM      6  C   UNL     1       2.810   5.789  19.748  0.00  0.00    +0.000 A 
ATOM      7  N   UNL     1       2.083   6.332  20.757  0.00  0.00    +0.000 NA
ATOM      8  C   UNL     1       1.515   7.558  20.620  0.00  0.00    +0.000 A 
ATOM      9  C   UNL     1       1.679   8.276  19.438  0.00  0.00    +0.000 A 
ATOM     10  H   UNL     1       2.937   8.611  16.541  0.00  0.00    +0.000 HD
ENDROOT
BRANCH   6  11
ATOM     11  N   UNL     1       3.332   4.490  19.906  0.00  0.00    +0.000 N 
ATOM     12  C   UNL     1       4.503   3.970  19.414  0.00  0.00    +0.000 C 
ATOM     13  O   UNL     1       4.844   2.828  19.727  0.00  0.00    +0.000 OA
ATOM     14  N   UNL     1       5.210   4.768  18.585  0.00  0.00    +0.000 N 
ATOM     15  H   UNL     1       2.823   3.842  20.490  0.00  0.00    +0.000 HD
ATOM     16  H   UNL     1       4.782   5.674  18.423  0.00  0.00    +0.000 HD
BRANCH  14  17
ATOM     17  C   UNL     1       6.491   4.486  17.969  0.00  0.00    +0.000 C 
ATOM     18  C   UNL     1       7.579   5.480  18.400  0.00  0.00    +0.000 C 
BRANCH  17  19
ATOM     19  C   UNL     1       6.403   4.550  16.447  0.00  0.00    +0.000 A 
ATOM     20  C   UNL     1       5.327   3.941  15.788  0.00  0.00    +0.000 A 
ATOM     21  C   UNL     1       5.331   3.807  14.397  0.00  0.00    +0.000 A 
ATOM     22  C   UNL     1       6.398   4.298  13.649  0.00  0.00    +0.000 A 
ATOM     23  C   UNL     1       7.452   4.949  14.284  0.00  0.00    +0.000 A 
ATOM     24  C   UNL     1       7.458   5.069  15.672  0.00  0.00    +0.000 A 
ENDBRANCH  17  19
ENDBRANCH  14  17
ENDBRANCH   6  11
BRANCH   1  26
ATOM     25  N   UNL     1      -0.807  10.831  18.908  0.00  0.00    +0.000 N 
ATOM     26  C   UNL     1       0.320  10.467  19.619  0.00  0.00    +0.000 C 
ATOM     27  O   UNL     1       0.553  10.884  20.751  0.00  0.00    +0.000 OA
ATOM     28  H   UNL     1      -1.014  10.284  18.078  0.00  0.00    +0.000 HD
BRANCH  25  29
ATOM     29  C   UNL     1      -1.838  11.643  19.523  0.00  0.00    +0.000 C 
BRANCH  29  30
ATOM     30  C   UNL     1      -3.113  11.739  18.685  0.00  0.00    +0.000 C 
BRANCH  30  32
ATOM     31  C   UNL     1      -3.966  11.212  16.553  0.00  0.00    +0.000 C 
ATOM     32  O   UNL     1      -2.799  11.510  17.309  0.00  0.00    +0.000 OA
ENDBRANCH  30  32
ENDBRANCH  29  30
ENDBRANCH  25  29
ENDBRANCH   1  26
TORSDOF 7
ENDMDL
MODEL 9
REMARK VINA RESULT:      -7.5      2.818      8.997
REMARK  Name = 
REMARK  9 active torsions:
REMARK  status: ('A' for Active; 'I' for Inactive)
REMARK    1  A    between atoms: C_1  and  O_2
REMARK    2  A    between atoms: O_2  and  C_3
REMARK    3  A    between atoms: C_3  and  C_4
REMARK    4  A    between atoms: C_4  and  N_5
REMARK    5  A    between atoms: C_6  and  C_8
REMARK    6  A    between atoms: C_13  and  N_14
REMARK    7  A    between atoms: N_17  and  C_18
REMARK    8  A    between atoms: C_18  and  C_19
REMARK    9  A    between atoms: C_18  and  C_20
REMARK                            x       y       z     vdW  Elec       q    Type
REMARK                         _______ _______ _______ _____ _____    ______ ____
ROOT
ATOM      1  C   UNL     1       1.009   9.890  19.975  0.00  0.00    +0.000 A 
ATOM      2  N   UNL     1       0.549   9.906  21.243  0.00  0.00    +0.000 NA
ATOM      3  N   UNL     1       0.769   8.652  21.686  0.00  0.00    +0.000 N 
ATOM      4  C   UNL     1       1.381   7.830  20.780  0.00  0.00    +0.000 A 
ATOM      5  C   UNL     1       1.825   6.504  20.848  0.00  0.00    +0.000 A 
ATOM      6  C   UNL     1       2.415   6.004  19.687  0.00  0.00    +0.000 A 
ATOM      7  N   UNL     1       2.528   6.736  18.550  0.00  0.00    +0.000 NA
ATOM      8  C   UNL     1       2.096   8.022  18.508  0.00  0.00    +0.000 A 
ATOM      9  C   UNL     1       1.522   8.603  19.635  0.00  0.00    +0.000 A 
ATOM     10  H   UNL     1       0.483   8.424  22.631  0.00  0.00    +0.000 HD
ENDROOT
BRANCH   6  11
ATOM     11  N   UNL     1       2.931   4.693  19.709  0.00  0.00    +0.000 N 
ATOM     12  C   UNL     1       4.164   4.250  19.300  0.00  0.00    +0.000 C 
ATOM     13  O   UNL     1       4.480   3.071  19.475  0.00  0.00    +0.000 OA
ATOM     14  N   UNL     1       4.960   5.162  18.702  0.00  0.00    +0.000 N 
ATOM     15  H   UNL     1       2.362   3.965  20.115  0.00  0.00    +0.000 HD
ATOM     16  H   UNL     1       4.543   6.085  18.627  0.00  0.00    +0.000 HD
BRANCH  14  17
ATOM     17  C   UNL     1       6.314   4.972  18.221  0.00  0.00    +0.000 C 
ATOM     18  C   UNL     1       7.182   6.226  18.408  0.00  0.00    +0.000 C 
BRANCH  17  19
ATOM     19  C   UNL     1       6.335   4.632  16.734  0.00  0.00    +0.000 A 
ATOM     20  C   UNL     1       7.405   5.065  15.938  0.00  0.00    +0.000 A 
ATOM     21  C   UNL     1       7.347   4.946  14.548  0.00  0.00    +0.000 A 
ATOM     22  C   UNL     1       6.231   4.378  13.938  0.00  0.00    +0.000 A 
ATOM     23  C   UNL     1       5.181   3.898  14.717  0.00  0.00    +0.000 A 
ATOM     24  C   UNL     1       5.230   4.030  16.103  0.00  0.00    +0.000 A 
ENDBRANCH  17  19
ENDBRANCH  14  17
ENDBRANCH   6  11
BRANCH   1  26
ATOM     25  N   UNL     1      -0.231  11.730  19.037  0.00  0.00    +0.000 N 
ATOM     26  C   UNL     1       0.981  11.072  19.095  0.00  0.00    +0.000 C 
ATOM     27  O   UNL     1       1.971  11.449  18.471  0.00  0.00    +0.000 OA
ATOM     28  H   UNL     1      -0.921  11.469  19.735  0.00  0.00    +0.000 HD
BRANCH  25  29
ATOM     29  C   UNL     1      -0.359  12.983  18.317  0.00  0.00    +0.000 C 
BRANCH  29  30
ATOM     30  C   UNL     1      -0.514  14.195  19.235  0.00  0.00    +0.000 C 
BRANCH  30  32
ATOM     31  C   UNL     1       1.288  15.654  18.817  0.00  0.00    +0.000 C 
ATOM     32  O   UNL     1      -0.080  15.373  18.551  0.00  0.00    +0.000 OA
ENDBRANCH  30  32
ENDBRANCH  29  30
ENDBRANCH  25  29
ENDBRANCH   1  26
TORSDOF 7
ENDMDL
