MODEL 1
REMARK VINA RESULT:      -7.0      0.000      0.000
REMARK  Name = 
REMARK  10 active torsions:
REMARK  status: ('A' for Active; 'I' for Inactive)
REMARK    1  A    between atoms: C_2  and  C_3
REMARK    2  A    between atoms: C_3  and  C_4
REMARK    3  A    between atoms: C_4  and  O_5
REMARK    4  A    between atoms: O_5  and  C_6
REMARK    5  A    between atoms: C_7  and  O_8
REMARK    6  A    between atoms: O_8  and  C_9
REMARK    7  A    between atoms: C_11  and  C_12
REMARK    8  A    between atoms: C_13  and  C_14
REMARK    9  A    between atoms: C_24  and  O_25
REMARK   10  A    between atoms: O_25  and  C_26
REMARK                            x       y       z     vdW  Elec       q    Type
REMARK                         _______ _______ _______ _____ _____    ______ ____
ROOT
ATOM      1  C   UNL     1       5.391   4.833  16.902  0.00  0.00    +0.000 A 
ATOM      2  C   UNL     1       5.354   6.221  17.175  0.00  0.00    +0.000 A 
ATOM      3  C   UNL     1       4.376   6.726  18.032  0.00  0.00    +0.000 A 
ATOM      4  C   UNL     1       3.333   5.934  18.515  0.00  0.00    +0.000 A 
ATOM      5  C   UNL     1       3.304   4.593  18.147  0.00  0.00    +0.000 A 
ATOM      6  C   UNL     1       4.322   4.027  17.355  0.00  0.00    +0.000 A 
ENDROOT
BRANCH   2   7
ATOM      7  O   UNL     1       6.322   7.046  16.652  0.00  0.00    +0.000 OA
ATOM      8  C   UNL     1       7.426   7.388  17.490  0.00  0.00    +0.000 C 
ENDBRANCH   2   7
BRANCH   4   9
ATOM      9  C   UNL     1       2.324   6.494  19.426  0.00  0.00    +0.000 C 
ATOM     10  C   UNL     1       2.195   7.820  19.581  0.00  0.00    +0.000 C 
BRANCH  10  11
ATOM     11  C   UNL     1       1.230   8.442  20.519  0.00  0.00    +0.000 C 
ATOM     12  O   UNL     1       0.899   7.863  21.552  0.00  0.00    +0.000 OA
ATOM     13  N   UNL     1       0.795   9.724  20.169  0.00  0.00    +0.000 N 
ATOM     14  C   UNL     1       0.118  10.479  21.217  0.00  0.00    +0.000 C 
ATOM     15  C   UNL     1       0.346  11.982  21.081  0.00  0.00    +0.000 C 
ATOM     16  C   UNL     1       0.083  12.416  19.677  0.00  0.00    +0.000 C 
ATOM     17  C   UNL     1       0.181  11.558  18.655  0.00  0.00    +0.000 C 
ATOM     18  C   UNL     1       0.644  10.155  18.848  0.00  0.00    +0.000 C 
ATOM     19  O   UNL     1       0.891   9.505  17.836  0.00  0.00    +0.000 OA
ENDBRANCH  10  11
ENDBRANCH   4   9
BRANCH   6  20
ATOM     20  O   UNL     1       4.091   2.689  17.166  0.00  0.00    +0.000 OA
ATOM     21  C   UNL     1       3.494   1.914  18.188  0.00  0.00    +0.000 C 
ENDBRANCH   6  20
BRANCH   1  22
ATOM     22  O   UNL     1       6.423   4.229  16.215  0.00  0.00    +0.000 OA
BRANCH  22  23
ATOM     23  C   UNL     1       6.588   4.658  14.851  0.00  0.00    +0.000 C 
BRANCH  23  24
ATOM     24  C   UNL     1       5.511   4.038  13.964  0.00  0.00    +0.000 C 
BRANCH  24  26
ATOM     25  C   UNL     1       6.554   2.994  11.729  0.00  0.00    +0.000 C 
ATOM     26  C   UNL     1       6.092   3.470  12.735  0.00  0.00    +0.000 C 
ENDBRANCH  24  26
ENDBRANCH  23  24
ENDBRANCH  22  23
ENDBRANCH   1  22
TORSDOF 8
ENDMDL
MODEL 2
REMARK VINA RESULT:      -7.0      1.484      1.963
REMARK  Name = 
REMARK  10 active torsions:
REMARK  status: ('A' for Active; 'I' for Inactive)
REMARK    1  A    between atoms: C_2  and  C_3
REMARK    2  A    between atoms: C_3  and  C_4
REMARK    3  A    between atoms: C_4  and  O_5
REMARK    4  A    between atoms: O_5  and  C_6
REMARK    5  A    between atoms: C_7  and  O_8
REMARK    6  A    between atoms: O_8  and  C_9
REMARK    7  A    between atoms: C_11  and  C_12
REMARK    8  A    between atoms: C_13  and  C_14
REMARK    9  A    between atoms: C_24  and  O_25
REMARK   10  A    between atoms: O_25  and  C_26
REMARK                            x       y       z     vdW  Elec       q    Type
REMARK                         _______ _______ _______ _____ _____    ______ ____
ROOT
ATOM      1  C   UNL     1       4.715   5.346  17.467  0.00  0.00    +0.000 A 
ATOM      2  C   UNL     1       4.844   6.725  17.174  0.00  0.00    +0.000 A 
ATOM      3  C   UNL     1       3.878   7.618  17.640  0.00  0.00    +0.000 A 
ATOM      4  C   UNL     1       2.704   7.184  18.257  0.00  0.00    +0.000 A 
ATOM      5  C   UNL     1       2.524   5.817  18.436  0.00  0.00    +0.000 A 
ATOM      6  C   UNL     1       3.515   4.890  18.058  0.00  0.00    +0.000 A 
ENDROOT
BRANCH   2   7
ATOM      7  O   UNL     1       5.952   7.180  16.499  0.00  0.00    +0.000 OA
ATOM      8  C   UNL     1       7.116   7.489  17.265  0.00  0.00    +0.000 C 
ENDBRANCH   2   7
BRANCH   4   9
ATOM      9  C   UNL     1       1.710   8.152  18.746  0.00  0.00    +0.000 C 
ATOM     10  C   UNL     1       1.393   9.238  18.027  0.00  0.00    +0.000 C 
BRANCH  10  11
ATOM     11  C   UNL     1       0.436  10.272  18.488  0.00  0.00    +0.000 C 
ATOM     12  O   UNL     1      -0.769  10.030  18.539  0.00  0.00    +0.000 OA
ATOM     13  N   UNL     1       1.009  11.478  18.903  0.00  0.00    +0.000 N 
ATOM     14  C   UNL     1       0.140  12.374  19.658  0.00  0.00    +0.000 C 
ATOM     15  C   UNL     1       0.917  13.210  20.669  0.00  0.00    +0.000 C 
ATOM     16  C   UNL     1       2.104  13.836  20.015  0.00  0.00    +0.000 C 
ATOM     17  C   UNL     1       2.656  13.299  18.919  0.00  0.00    +0.000 C 
ATOM     18  C   UNL     1       2.178  12.009  18.349  0.00  0.00    +0.000 C 
ATOM     19  O   UNL     1       2.865  11.499  17.470  0.00  0.00    +0.000 OA
ENDBRANCH  10  11
ENDBRANCH   4   9
BRANCH   6  20
ATOM     20  O   UNL     1       3.122   3.616  18.374  0.00  0.00    +0.000 OA
ATOM     21  C   UNL     1       2.085   2.985  17.649  0.00  0.00    +0.000 C 
ENDBRANCH   6  20
BRANCH   1  22
ATOM     22  O   UNL     1       5.708   4.426  17.201  0.00  0.00    +0.000 OA
BRANCH  22  23
ATOM     23  C   UNL     1       5.570   3.713  15.959  0.00  0.00    +0.000 C 
BRANCH  23  24
ATOM     24  C   UNL     1       6.551   4.254  14.922  0.00  0.00    +0.000 C 
BRANCH  24  26
ATOM     25  C   UNL     1       5.885   3.455  12.454  0.00  0.00    +0.000 C 
ATOM     26  C   UNL     1       6.192   3.810  13.564  0.00  0.00    +0.000 C 
ENDBRANCH  24  26
ENDBRANCH  23  24
ENDBRANCH  22  23
ENDBRANCH   1  22
TORSDOF 8
ENDMDL
MODEL 3
REMARK VINA RESULT:      -6.8      1.106      2.614
REMARK  Name = 
REMARK  10 active torsions:
REMARK  status: ('A' for Active; 'I' for Inactive)
REMARK    1  A    between atoms: C_2  and  C_3
REMARK    2  A    between atoms: C_3  and  C_4
REMARK    3  A    between atoms: C_4  and  O_5
REMARK    4  A    between atoms: O_5  and  C_6
REMARK    5  A    between atoms: C_7  and  O_8
REMARK    6  A    between atoms: O_8  and  C_9
REMARK    7  A    between atoms: C_11  and  C_12
REMARK    8  A    between atoms: C_13  and  C_14
REMARK    9  A    between atoms: C_24  and  O_25
REMARK   10  A    between atoms: O_25  and  C_26
REMARK                            x       y       z     vdW  Elec       q    Type
REMARK                         _______ _______ _______ _____ _____    ______ ____
ROOT
ATOM      1  C   UNL     1       4.209   4.534  17.518  0.00  0.00    +0.000 A 
ATOM      2  C   UNL     1       2.870   4.165  17.791  0.00  0.00    +0.000 A 
ATOM      3  C   UNL     1       2.097   4.964  18.634  0.00  0.00    +0.000 A 
ATOM      4  C   UNL     1       2.640   6.036  19.344  0.00  0.00    +0.000 A 
ATOM      5  C   UNL     1       3.990   6.323  19.166  0.00  0.00    +0.000 A 
ATOM      6  C   UNL     1       4.782   5.593  18.258  0.00  0.00    +0.000 A 
ENDROOT
BRANCH   2   7
ATOM      7  O   UNL     1       2.323   3.068  17.167  0.00  0.00    +0.000 OA
ATOM      8  C   UNL     1       2.151   1.881  17.942  0.00  0.00    +0.000 C 
ENDBRANCH   2   7
BRANCH   4   9
ATOM      9  C   UNL     1       1.796   6.865  20.216  0.00  0.00    +0.000 C 
ATOM     10  C   UNL     1       1.745   8.196  20.064  0.00  0.00    +0.000 C 
BRANCH  10  11
ATOM     11  C   UNL     1       0.950   9.089  20.941  0.00  0.00    +0.000 C 
ATOM     12  O   UNL     1       0.632   8.730  22.074  0.00  0.00    +0.000 OA
ATOM     13  N   UNL     1       0.660  10.349  20.411  0.00  0.00    +0.000 N 
ATOM     14  C   UNL     1       0.177  11.347  21.358  0.00  0.00    +0.000 C 
ATOM     15  C   UNL     1       0.588  12.762  20.962  0.00  0.00    +0.000 C 
ATOM     16  C   UNL     1       0.270  13.006  19.524  0.00  0.00    +0.000 C 
ATOM     17  C   UNL     1       0.170  11.993  18.654  0.00  0.00    +0.000 C 
ATOM     18  C   UNL     1       0.459  10.586  19.048  0.00  0.00    +0.000 C 
ATOM     19  O   UNL     1       0.534   9.759  18.145  0.00  0.00    +0.000 OA
ENDBRANCH  10  11
ENDBRANCH   4   9
BRANCH   6  20
ATOM     20  O   UNL     1       6.058   6.092  18.232  0.00  0.00    +0.000 OA
ATOM     21  C   UNL     1       7.054   5.557  19.082  0.00  0.00    +0.000 C 
ENDBRANCH   6  20
BRANCH   1  22
ATOM     22  O   UNL     1       4.982   3.905  16.564  0.00  0.00    +0.000 OA
BRANCH  22  23
ATOM     23  C   UNL     1       5.058   4.575  15.293  0.00  0.00    +0.000 C 
BRANCH  23  24
ATOM     24  C   UNL     1       6.370   4.237  14.591  0.00  0.00    +0.000 C 
BRANCH  24  26
ATOM     25  C   UNL     1       5.950   3.289  12.122  0.00  0.00    +0.000 C 
ATOM     26  C   UNL     1       6.131   3.711  13.236  0.00  0.00    +0.000 C 
ENDBRANCH  24  26
ENDBRANCH  23  24
ENDBRANCH  22  23
ENDBRANCH   1  22
TORSDOF 8
ENDMDL
MODEL 4
REMARK VINA RESULT:      -6.8      1.363      3.044
REMARK  Name = 
REMARK  10 active torsions:
REMARK  status: ('A' for Active; 'I' for Inactive)
REMARK    1  A    between atoms: C_2  and  C_3
REMARK    2  A    between atoms: C_3  and  C_4
REMARK    3  A    between atoms: C_4  and  O_5
REMARK    4  A    between atoms: O_5  and  C_6
REMARK    5  A    between atoms: C_7  and  O_8
REMARK    6  A    between atoms: O_8  and  C_9
REMARK    7  A    between atoms: C_11  and  C_12
REMARK    8  A    between atoms: C_13  and  C_14
REMARK    9  A    between atoms: C_24  and  O_25
REMARK   10  A    between atoms: O_25  and  C_26
REMARK                            x       y       z     vdW  Elec       q    Type
REMARK                         _______ _______ _______ _____ _____    ______ ____
ROOT
ATOM      1  C   UNL     1       5.284   5.182  17.221  0.00  0.00    +0.000 A 
ATOM      2  C   UNL     1       4.138   4.637  17.848  0.00  0.00    +0.000 A 
ATOM      3  C   UNL     1       3.078   5.477  18.190  0.00  0.00    +0.000 A 
ATOM      4  C   UNL     1       3.165   6.865  18.075  0.00  0.00    +0.000 A 
ATOM      5  C   UNL     1       4.342   7.408  17.569  0.00  0.00    +0.000 A 
ATOM      6  C   UNL     1       5.400   6.588  17.132  0.00  0.00    +0.000 A 
ENDROOT
BRANCH   2   7
ATOM      7  O   UNL     1       4.050   3.279  18.048  0.00  0.00    +0.000 OA
ATOM      8  C   UNL     1       2.859   2.772  18.650  0.00  0.00    +0.000 C 
ENDBRANCH   2   7
BRANCH   4   9
ATOM      9  C   UNL     1       2.026   7.722  18.434  0.00  0.00    +0.000 C 
ATOM     10  C   UNL     1       1.811   8.885  17.802  0.00  0.00    +0.000 C 
BRANCH  10  11
ATOM     11  C   UNL     1       0.709   9.813  18.151  0.00  0.00    +0.000 C 
ATOM     12  O   UNL     1      -0.463   9.452  18.064  0.00  0.00    +0.000 OA
ATOM     13  N   UNL     1       1.107  11.064  18.631  0.00  0.00    +0.000 N 
ATOM     14  C   UNL     1       0.072  11.860  19.281  0.00  0.00    +0.000 C 
ATOM     15  C   UNL     1       0.641  12.758  20.376  0.00  0.00    +0.000 C 
ATOM     16  C   UNL     1       1.827  13.506  19.863  0.00  0.00    +0.000 C 
ATOM     17  C   UNL     1       2.550  13.041  18.838  0.00  0.00    +0.000 C 
ATOM     18  C   UNL     1       2.272  11.716  18.215  0.00  0.00    +0.000 C 
ATOM     19  O   UNL     1       3.103  11.288  17.420  0.00  0.00    +0.000 OA
ENDBRANCH  10  11
ENDBRANCH   4   9
BRANCH   6  20
ATOM     20  O   UNL     1       6.424   7.354  16.639  0.00  0.00    +0.000 OA
ATOM     21  C   UNL     1       7.480   7.769  17.485  0.00  0.00    +0.000 C 
ENDBRANCH   6  20
BRANCH   1  22
ATOM     22  O   UNL     1       6.292   4.405  16.692  0.00  0.00    +0.000 OA
BRANCH  22  23
ATOM     23  C   UNL     1       5.943   3.661  15.510  0.00  0.00    +0.000 C 
BRANCH  23  24
ATOM     24  C   UNL     1       6.188   4.503  14.261  0.00  0.00    +0.000 C 
BRANCH  24  26
ATOM     25  C   UNL     1       5.967   3.024  12.039  0.00  0.00    +0.000 C 
ATOM     26  C   UNL     1       6.058   3.693  13.037  0.00  0.00    +0.000 C 
ENDBRANCH  24  26
ENDBRANCH  23  24
ENDBRANCH  22  23
ENDBRANCH   1  22
TORSDOF 8
ENDMDL
MODEL 5
REMARK VINA RESULT:      -6.7      2.201      4.321
REMARK  Name = 
REMARK  10 active torsions:
REMARK  status: ('A' for Active; 'I' for Inactive)
REMARK    1  A    between atoms: C_2  and  C_3
REMARK    2  A    between atoms: C_3  and  C_4
REMARK    3  A    between atoms: C_4  and  O_5
REMARK    4  A    between atoms: O_5  and  C_6
REMARK    5  A    between atoms: C_7  and  O_8
REMARK    6  A    between atoms: O_8  and  C_9
REMARK    7  A    between atoms: C_11  and  C_12
REMARK    8  A    between atoms: C_13  and  C_14
REMARK    9  A    between atoms: C_24  and  O_25
REMARK   10  A    between atoms: O_25  and  C_26
REMARK                            x       y       z     vdW  Elec       q    Type
REMARK                         _______ _______ _______ _____ _____    ______ ____
ROOT
ATOM      1  C   UNL     1       3.889   5.525  18.443  0.00  0.00    +0.000 A 
ATOM      2  C   UNL     1       3.004   5.897  19.483  0.00  0.00    +0.000 A 
ATOM      3  C   UNL     1       2.305   7.101  19.391  0.00  0.00    +0.000 A 
ATOM      4  C   UNL     1       2.558   8.029  18.380  0.00  0.00    +0.000 A 
ATOM      5  C   UNL     1       3.517   7.712  17.424  0.00  0.00    +0.000 A 
ATOM      6  C   UNL     1       4.181   6.470  17.434  0.00  0.00    +0.000 A 
ENDROOT
BRANCH   2   7
ATOM      7  O   UNL     1       2.788   5.039  20.536  0.00  0.00    +0.000 OA
ATOM      8  C   UNL     1       1.442   4.842  20.967  0.00  0.00    +0.000 C 
ENDBRANCH   2   7
BRANCH   4   9
ATOM      9  C   UNL     1       1.795   9.284  18.305  0.00  0.00    +0.000 C 
ATOM     10  C   UNL     1       0.774   9.521  19.140  0.00  0.00    +0.000 C 
BRANCH  10  11
ATOM     11  C   UNL     1      -0.062  10.745  19.082  0.00  0.00    +0.000 C 
ATOM     12  O   UNL     1      -0.293  11.293  18.006  0.00  0.00    +0.000 OA
ATOM     13  N   UNL     1      -0.594  11.167  20.303  0.00  0.00    +0.000 N 
ATOM     14  C   UNL     1      -1.667  12.152  20.229  0.00  0.00    +0.000 C 
ATOM     15  C   UNL     1      -2.659  12.010  21.379  0.00  0.00    +0.000 C 
ATOM     16  C   UNL     1      -1.929  11.924  22.679  0.00  0.00    +0.000 C 
ATOM     17  C   UNL     1      -0.663  11.493  22.737  0.00  0.00    +0.000 C 
ATOM     18  C   UNL     1       0.054  10.993  21.530  0.00  0.00    +0.000 C 
ATOM     19  O   UNL     1       1.133  10.439  21.712  0.00  0.00    +0.000 OA
ENDBRANCH  10  11
ENDBRANCH   4   9
BRANCH   6  20
ATOM     20  O   UNL     1       5.042   6.382  16.371  0.00  0.00    +0.000 OA
ATOM     21  C   UNL     1       6.439   6.324  16.583  0.00  0.00    +0.000 C 
ENDBRANCH   6  20
BRANCH   1  22
ATOM     22  O   UNL     1       4.480   4.281  18.368  0.00  0.00    +0.000 OA
BRANCH  22  23
ATOM     23  C   UNL     1       3.851   3.353  17.466  0.00  0.00    +0.000 C 
BRANCH  23  24
ATOM     24  C   UNL     1       3.366   2.120  18.224  0.00  0.00    +0.000 C 
BRANCH  24  26
ATOM     25  C   UNL     1       0.730   2.244  18.687  0.00  0.00    +0.000 C 
ATOM     26  C   UNL     1       1.915   2.181  18.472  0.00  0.00    +0.000 C 
ENDBRANCH  24  26
ENDBRANCH  23  24
ENDBRANCH  22  23
ENDBRANCH   1  22
TORSDOF 8
ENDMDL
MODEL 6
REMARK VINA RESULT:      -6.7      2.332      4.492
REMARK  Name = 
REMARK  10 active torsions:
REMARK  status: ('A' for Active; 'I' for Inactive)
REMARK    1  A    between atoms: C_2  and  C_3
REMARK    2  A    between atoms: C_3  and  C_4
REMARK    3  A    between atoms: C_4  and  O_5
REMARK    4  A    between atoms: O_5  and  C_6
REMARK    5  A    between atoms: C_7  and  O_8
REMARK    6  A    between atoms: O_8  and  C_9
REMARK    7  A    between atoms: C_11  and  C_12
REMARK    8  A    between atoms: C_13  and  C_14
REMARK    9  A    between atoms: C_24  and  O_25
REMARK   10  A    between atoms: O_25  and  C_26
REMARK                            x       y       z     vdW  Elec       q    Type
REMARK                         _______ _______ _______ _____ _____    ______ ____
ROOT
ATOM      1  C   UNL     1       3.503   5.683  18.486  0.00  0.00    +0.000 A 
ATOM      2  C   UNL     1       2.610   6.075  19.512  0.00  0.00    +0.000 A 
ATOM      3  C   UNL     1       1.973   7.313  19.430  0.00  0.00    +0.000 A 
ATOM      4  C   UNL     1       2.298   8.251  18.449  0.00  0.00    +0.000 A 
ATOM      5  C   UNL     1       3.267   7.908  17.511  0.00  0.00    +0.000 A 
ATOM      6  C   UNL     1       3.869   6.635  17.508  0.00  0.00    +0.000 A 
ENDROOT
BRANCH   2   7
ATOM      7  O   UNL     1       2.323   5.205  20.538  0.00  0.00    +0.000 OA
ATOM      8  C   UNL     1       1.136   4.420  20.431  0.00  0.00    +0.000 C 
ENDBRANCH   2   7
BRANCH   4   9
ATOM      9  C   UNL     1       1.600   9.543  18.383  0.00  0.00    +0.000 C 
ATOM     10  C   UNL     1       1.087  10.106  19.487  0.00  0.00    +0.000 C 
BRANCH  10  11
ATOM     11  C   UNL     1       0.333  11.382  19.477  0.00  0.00    +0.000 C 
ATOM     12  O   UNL     1       0.396  12.138  18.509  0.00  0.00    +0.000 OA
ATOM     13  N   UNL     1      -0.475  11.611  20.595  0.00  0.00    +0.000 N 
ATOM     14  C   UNL     1      -1.462  12.676  20.465  0.00  0.00    +0.000 C 
ATOM     15  C   UNL     1      -2.714  12.403  21.293  0.00  0.00    +0.000 C 
ATOM     16  C   UNL     1      -2.336  12.017  22.685  0.00  0.00    +0.000 C 
ATOM     17  C   UNL     1      -1.139  11.483  22.956  0.00  0.00    +0.000 C 
ATOM     18  C   UNL     1      -0.160  11.161  21.881  0.00  0.00    +0.000 C 
ATOM     19  O   UNL     1       0.821  10.497  22.200  0.00  0.00    +0.000 OA
ENDBRANCH  10  11
ENDBRANCH   4   9
BRANCH   6  20
ATOM     20  O   UNL     1       4.754   6.528  16.467  0.00  0.00    +0.000 OA
ATOM     21  C   UNL     1       6.145   6.638  16.694  0.00  0.00    +0.000 C 
ENDBRANCH   6  20
BRANCH   1  22
ATOM     22  O   UNL     1       4.035   4.413  18.398  0.00  0.00    +0.000 OA
BRANCH  22  23
ATOM     23  C   UNL     1       3.316   3.502  17.546  0.00  0.00    +0.000 C 
BRANCH  23  24
ATOM     24  C   UNL     1       3.493   2.066  18.033  0.00  0.00    +0.000 C 
BRANCH  24  26
ATOM     25  C   UNL     1       4.428   2.013  20.542  0.00  0.00    +0.000 C 
ATOM     26  C   UNL     1       4.011   2.029  19.412  0.00  0.00    +0.000 C 
ENDBRANCH  24  26
ENDBRANCH  23  24
ENDBRANCH  22  23
ENDBRANCH   1  22
TORSDOF 8
ENDMDL
MODEL 7
REMARK VINA RESULT:      -6.7      2.328      4.177
REMARK  Name = 
REMARK  10 active torsions:
REMARK  status: ('A' for Active; 'I' for Inactive)
REMARK    1  A    between atoms: C_2  and  C_3
REMARK    2  A    between atoms: C_3  and  C_4
REMARK    3  A    between atoms: C_4  and  O_5
REMARK    4  A    between atoms: O_5  and  C_6
REMARK    5  A    between atoms: C_7  and  O_8
REMARK    6  A    between atoms: O_8  and  C_9
REMARK    7  A    between atoms: C_11  and  C_12
REMARK    8  A    between atoms: C_13  and  C_14
REMARK    9  A    between atoms: C_24  and  O_25
REMARK   10  A    between atoms: O_25  and  C_26
REMARK                            x       y       z     vdW  Elec       q    Type
REMARK                         _______ _______ _______ _____ _____    ______ ____
ROOT
ATOM      1  C   UNL     1       4.153   5.897  18.383  0.00  0.00    +0.000 A 
ATOM      2  C   UNL     1       3.135   6.097  19.346  0.00  0.00    +0.000 A 
ATOM      3  C   UNL     1       2.187   7.101  19.143  0.00  0.00    +0.000 A 
ATOM      4  C   UNL     1       2.293   8.019  18.097  0.00  0.00    +0.000 A 
ATOM      5  C   UNL     1       3.364   7.893  17.220  0.00  0.00    +0.000 A 
ATOM      6  C   UNL     1       4.293   6.841  17.340  0.00  0.00    +0.000 A 
ENDROOT
BRANCH   2   7
ATOM      7  O   UNL     1       3.047   5.258  20.431  0.00  0.00    +0.000 OA
ATOM      8  C   UNL     1       1.787   4.636  20.689  0.00  0.00    +0.000 C 
ENDBRANCH   2   7
BRANCH   4   9
ATOM      9  C   UNL     1       1.271   9.059  17.905  0.00  0.00    +0.000 C 
ATOM     10  C   UNL     1       1.128  10.057  18.788  0.00  0.00    +0.000 C 
BRANCH  10  11
ATOM     11  C   UNL     1       0.086  11.106  18.674  0.00  0.00    +0.000 C 
ATOM     12  O   UNL     1      -1.094  10.800  18.514  0.00  0.00    +0.000 OA
ATOM     13  N   UNL     1       0.539  12.420  18.821  0.00  0.00    +0.000 N 
ATOM     14  C   UNL     1      -0.488  13.432  19.040  0.00  0.00    +0.000 C 
ATOM     15  C   UNL     1       0.017  14.588  19.898  0.00  0.00    +0.000 C 
ATOM     16  C   UNL     1       1.328  15.078  19.379  0.00  0.00    +0.000 C 
ATOM     17  C   UNL     1       2.131  14.284  18.661  0.00  0.00    +0.000 C 
ATOM     18  C   UNL     1       1.808  12.850  18.419  0.00  0.00    +0.000 C 
ATOM     19  O   UNL     1       2.690  12.155  17.924  0.00  0.00    +0.000 OA
ENDBRANCH  10  11
ENDBRANCH   4   9
BRANCH   6  20
ATOM     20  O   UNL     1       5.224   6.910  16.338  0.00  0.00    +0.000 OA
ATOM     21  C   UNL     1       5.310   5.884  15.367  0.00  0.00    +0.000 C 
ENDBRANCH   6  20
BRANCH   1  22
ATOM     22  O   UNL     1       5.016   4.821  18.415  0.00  0.00    +0.000 OA
BRANCH  22  23
ATOM     23  C   UNL     1       6.182   4.991  19.242  0.00  0.00    +0.000 C 
BRANCH  23  24
ATOM     24  C   UNL     1       7.425   5.177  18.378  0.00  0.00    +0.000 C 
BRANCH  24  26
ATOM     25  C   UNL     1       8.141   7.755  18.234  0.00  0.00    +0.000 C 
ATOM     26  C   UNL     1       7.812   6.597  18.294  0.00  0.00    +0.000 C 
ENDBRANCH  24  26
ENDBRANCH  23  24
ENDBRANCH  22  23
ENDBRANCH   1  22
TORSDOF 8
ENDMDL
MODEL 8
REMARK VINA RESULT:      -6.6      1.177      1.455
REMARK  Name = 
REMARK  10 active torsions:
REMARK  status: ('A' for Active; 'I' for Inactive)
REMARK    1  A    between atoms: C_2  and  C_3
REMARK    2  A    between atoms: C_3  and  C_4
REMARK    3  A    between atoms: C_4  and  O_5
REMARK    4  A    between atoms: O_5  and  C_6
REMARK    5  A    between atoms: C_7  and  O_8
REMARK    6  A    between atoms: O_8  and  C_9
REMARK    7  A    between atoms: C_11  and  C_12
REMARK    8  A    between atoms: C_13  and  C_14
REMARK    9  A    between atoms: C_24  and  O_25
REMARK   10  A    between atoms: O_25  and  C_26
REMARK                            x       y       z     vdW  Elec       q    Type
REMARK                         _______ _______ _______ _____ _____    ______ ____
ROOT
ATOM      1  C   UNL     1       4.259   4.787  18.109  0.00  0.00    +0.000 A 
ATOM      2  C   UNL     1       4.110   6.179  17.904  0.00  0.00    +0.000 A 
ATOM      3  C   UNL     1       3.263   6.909  18.740  0.00  0.00    +0.000 A 
ATOM      4  C   UNL     1       2.436   6.291  19.680  0.00  0.00    +0.000 A 
ATOM      5  C   UNL     1       2.497   4.906  19.796  0.00  0.00    +0.000 A 
ATOM      6  C   UNL     1       3.401   4.144  19.031  0.00  0.00    +0.000 A 
ENDROOT
BRANCH   2   7
ATOM      7  O   UNL     1       4.852   6.811  16.935  0.00  0.00    +0.000 OA
ATOM      8  C   UNL     1       6.186   7.197  17.266  0.00  0.00    +0.000 C 
ENDBRANCH   2   7
BRANCH   4   9
ATOM      9  C   UNL     1       1.564   7.089  20.553  0.00  0.00    +0.000 C 
ATOM     10  C   UNL     1       1.461   8.417  20.397  0.00  0.00    +0.000 C 
BRANCH  10  11
ATOM     11  C   UNL     1       0.635   9.281  21.275  0.00  0.00    +0.000 C 
ATOM     12  O   UNL     1       0.350   8.921  22.416  0.00  0.00    +0.000 OA
ATOM     13  N   UNL     1       0.278  10.519  20.734  0.00  0.00    +0.000 N 
ATOM     14  C   UNL     1      -0.240  11.505  21.676  0.00  0.00    +0.000 C 
ATOM     15  C   UNL     1       0.097  12.933  21.258  0.00  0.00    +0.000 C 
ATOM     16  C   UNL     1      -0.251  13.144  19.821  0.00  0.00    +0.000 C 
ATOM     17  C   UNL     1      -0.313  12.117  18.965  0.00  0.00    +0.000 C 
ATOM     18  C   UNL     1       0.048  10.730  19.371  0.00  0.00    +0.000 C 
ATOM     19  O   UNL     1       0.151   9.896  18.477  0.00  0.00    +0.000 OA
ENDBRANCH  10  11
ENDBRANCH   4   9
BRANCH   6  20
ATOM     20  O   UNL     1       3.300   2.816  19.356  0.00  0.00    +0.000 OA
ATOM     21  C   UNL     1       2.182   2.059  18.934  0.00  0.00    +0.000 C 
ENDBRANCH   6  20
BRANCH   1  22
ATOM     22  O   UNL     1       5.202   4.027  17.450  0.00  0.00    +0.000 OA
BRANCH  22  23
ATOM     23  C   UNL     1       4.982   3.861  16.037  0.00  0.00    +0.000 C 
BRANCH  23  24
ATOM     24  C   UNL     1       6.280   4.084  15.266  0.00  0.00    +0.000 C 
BRANCH  24  26
ATOM     25  C   UNL     1       5.957   3.544  12.663  0.00  0.00    +0.000 C 
ATOM     26  C   UNL     1       6.110   3.782  13.834  0.00  0.00    +0.000 C 
ENDBRANCH  24  26
ENDBRANCH  23  24
ENDBRANCH  22  23
ENDBRANCH   1  22
TORSDOF 8
ENDMDL
MODEL 9
REMARK VINA RESULT:      -6.6      2.266      3.563
REMARK  Name = 
REMARK  10 active torsions:
REMARK  status: ('A' for Active; 'I' for Inactive)
REMARK    1  A    between atoms: C_2  and  C_3
REMARK    2  A    between atoms: C_3  and  C_4
REMARK    3  A    between atoms: C_4  and  O_5
REMARK    4  A    between atoms: O_5  and  C_6
REMARK    5  A    between atoms: C_7  and  O_8
REMARK    6  A    between atoms: O_8  and  C_9
REMARK    7  A    between atoms: C_11  and  C_12
REMARK    8  A    between atoms: C_13  and  C_14
REMARK    9  A    between atoms: C_24  and  O_25
REMARK   10  A    between atoms: O_25  and  C_26
REMARK                            x       y       z     vdW  Elec       q    Type
REMARK                         _______ _______ _______ _____ _____    ______ ____
ROOT
ATOM      1  C   UNL     1       4.354   5.809  18.428  0.00  0.00    +0.000 A 
ATOM      2  C   UNL     1       4.166   6.870  17.510  0.00  0.00    +0.000 A 
ATOM      3  C   UNL     1       3.180   7.825  17.760  0.00  0.00    +0.000 A 
ATOM      4  C   UNL     1       2.266   7.691  18.806  0.00  0.00    +0.000 A 
ATOM      5  C   UNL     1       2.378   6.581  19.637  0.00  0.00    +0.000 A 
ATOM      6  C   UNL     1       3.414   5.641  19.470  0.00  0.00    +0.000 A 
ENDROOT
BRANCH   2   7
ATOM      7  O   UNL     1       5.000   6.990  16.424  0.00  0.00    +0.000 OA
ATOM      8  C   UNL     1       5.138   5.859  15.564  0.00  0.00    +0.000 C 
ENDBRANCH   2   7
BRANCH   4   9
ATOM      9  C   UNL     1       1.245   8.722  19.049  0.00  0.00    +0.000 C 
ATOM     10  C   UNL     1       1.131   9.783  18.237  0.00  0.00    +0.000 C 
BRANCH  10  11
ATOM     11  C   UNL     1       0.155  10.877  18.457  0.00  0.00    +0.000 C 
ATOM     12  O   UNL     1      -1.049  10.683  18.295  0.00  0.00    +0.000 OA
ATOM     13  N   UNL     1       0.697  12.084  18.908  0.00  0.00    +0.000 N 
ATOM     14  C   UNL     1      -0.253  13.055  19.439  0.00  0.00    +0.000 C 
ATOM     15  C   UNL     1       0.363  13.923  20.532  0.00  0.00    +0.000 C 
ATOM     16  C   UNL     1       1.678  14.464  20.079  0.00  0.00    +0.000 C 
ATOM     17  C   UNL     1       2.396  13.843  19.136  0.00  0.00    +0.000 C 
ATOM     18  C   UNL     1       1.972  12.538  18.555  0.00  0.00    +0.000 C 
ATOM     19  O   UNL     1       2.784  11.952  17.847  0.00  0.00    +0.000 OA
ENDBRANCH  10  11
ENDBRANCH   4   9
BRANCH   6  20
ATOM     20  O   UNL     1       3.334   4.669  20.433  0.00  0.00    +0.000 OA
ATOM     21  C   UNL     1       2.592   3.488  20.199  0.00  0.00    +0.000 C 
ENDBRANCH   6  20
BRANCH   1  22
ATOM     22  O   UNL     1       5.414   4.929  18.352  0.00  0.00    +0.000 OA
BRANCH  22  23
ATOM     23  C   UNL     1       6.508   5.204  19.246  0.00  0.00    +0.000 C 
BRANCH  23  24
ATOM     24  C   UNL     1       7.773   5.527  18.455  0.00  0.00    +0.000 C 
BRANCH  24  26
ATOM     25  C   UNL     1       7.939   8.137  17.882  0.00  0.00    +0.000 C 
ATOM     26  C   UNL     1       7.856   6.964  18.142  0.00  0.00    +0.000 C 
ENDBRANCH  24  26
ENDBRANCH  23  24
ENDBRANCH  22  23
ENDBRANCH   1  22
TORSDOF 8
ENDMDL
