MODEL 1
REMARK VINA RESULT:      -6.8      0.000      0.000
REMARK  Name = 
REMARK  4 active torsions:
REMARK  status: ('A' for Active; 'I' for Inactive)
REMARK    1  A    between atoms: C_1  and  C_2
REMARK    2  A    between atoms: C_6  and  C_8
REMARK    3  A    between atoms: C_8  and  C_9
REMARK    4  A    between atoms: C_9  and  N_10
REMARK                            x       y       z     vdW  Elec       q    Type
REMARK                         _______ _______ _______ _____ _____    ______ ____
ROOT
ATOM      1  C   UNL     1       6.510   3.645  12.090  0.00  0.00    +0.000 C 
ATOM      2  C   UNL     1       6.631   4.130  13.475  0.00  0.00    +0.000 A 
ATOM      3  C   UNL     1       6.087   3.777  14.686  0.00  0.00    +0.000 A 
ATOM      4  C   UNL     1       6.660   4.682  15.615  0.00  0.00    +0.000 A 
ATOM      5  N   UNL     1       6.388   4.692  16.976  0.00  0.00    +0.000 N 
ATOM      6  C   UNL     1       6.959   5.596  17.849  0.00  0.00    +0.000 C 
ATOM      7  O   UNL     1       7.813   6.432  17.568  0.00  0.00    +0.000 OA
ATOM      8  N   UNL     1       7.486   5.524  14.989  0.00  0.00    +0.000 NA
ATOM      9  O   UNL     1       7.469   5.182  13.657  0.00  0.00    +0.000 OA
ATOM     10  H   UNL     1       5.722   4.014  17.313  0.00  0.00    +0.000 HD
ENDROOT
BRANCH   6  11
ATOM     11  C   UNL     1       6.470   5.464  19.275  0.00  0.00    +0.000 C 
BRANCH  11  12
ATOM     12  C   UNL     1       4.945   5.531  19.261  0.00  0.00    +0.000 C 
BRANCH  12  13
ATOM     13  N   UNL     1       4.302   4.276  19.590  0.00  0.00    +0.000 N 
ATOM     14  C   UNL     1       2.983   4.097  19.892  0.00  0.00    +0.000 A 
ATOM     15  C   UNL     1       2.803   2.741  20.025  0.00  0.00    +0.000 A 
ATOM     16  C   UNL     1       4.075   2.190  19.786  0.00  0.00    +0.000 A 
ATOM     17  N   UNL     1       4.996   3.124  19.527  0.00  0.00    +0.000 NA
ENDBRANCH  12  13
ENDBRANCH  11  12
ENDBRANCH   6  11
TORSDOF 3
ENDMDL
MODEL 2
REMARK VINA RESULT:      -6.7      1.034      1.499
REMARK  Name = 
REMARK  4 active torsions:
REMARK  status: ('A' for Active; 'I' for Inactive)
REMARK    1  A    between atoms: C_1  and  C_2
REMARK    2  A    between atoms: C_6  and  C_8
REMARK    3  A    between atoms: C_8  and  C_9
REMARK    4  A    between atoms: C_9  and  N_10
REMARK                            x       y       z     vdW  Elec       q    Type
REMARK                         _______ _______ _______ _____ _____    ______ ____
ROOT
ATOM      1  C   UNL     1       6.934   4.060  12.177  0.00  0.00    +0.000 C 
ATOM      2  C   UNL     1       6.788   4.381  13.608  0.00  0.00    +0.000 A 
ATOM      3  C   UNL     1       5.960   3.968  14.623  0.00  0.00    +0.000 A 
ATOM      4  C   UNL     1       6.392   4.700  15.758  0.00  0.00    +0.000 A 
ATOM      5  N   UNL     1       5.827   4.599  17.023  0.00  0.00    +0.000 N 
ATOM      6  C   UNL     1       6.270   5.335  18.102  0.00  0.00    +0.000 C 
ATOM      7  O   UNL     1       7.237   6.093  18.115  0.00  0.00    +0.000 OA
ATOM      8  N   UNL     1       7.409   5.503  15.431  0.00  0.00    +0.000 NA
ATOM      9  O   UNL     1       7.656   5.305  14.093  0.00  0.00    +0.000 OA
ATOM     10  H   UNL     1       5.046   3.970  17.124  0.00  0.00    +0.000 HD
ENDROOT
BRANCH   6  11
ATOM     11  C   UNL     1       5.467   5.111  19.366  0.00  0.00    +0.000 C 
BRANCH  11  12
ATOM     12  C   UNL     1       4.623   3.854  19.176  0.00  0.00    +0.000 C 
BRANCH  12  13
ATOM     13  N   UNL     1       3.267   3.983  19.665  0.00  0.00    +0.000 N 
ATOM     14  C   UNL     1       2.334   2.988  19.736  0.00  0.00    +0.000 A 
ATOM     15  C   UNL     1       1.239   3.536  20.360  0.00  0.00    +0.000 A 
ATOM     16  C   UNL     1       1.611   4.866  20.624  0.00  0.00    +0.000 A 
ATOM     17  N   UNL     1       2.845   5.147  20.194  0.00  0.00    +0.000 NA
ENDBRANCH  12  13
ENDBRANCH  11  12
ENDBRANCH   6  11
TORSDOF 3
ENDMDL
MODEL 3
REMARK VINA RESULT:      -6.7      1.109      1.165
REMARK  Name = 
REMARK  4 active torsions:
REMARK  status: ('A' for Active; 'I' for Inactive)
REMARK    1  A    between atoms: C_1  and  C_2
REMARK    2  A    between atoms: C_6  and  C_8
REMARK    3  A    between atoms: C_8  and  C_9
REMARK    4  A    between atoms: C_9  and  N_10
REMARK                            x       y       z     vdW  Elec       q    Type
REMARK                         _______ _______ _______ _____ _____    ______ ____
ROOT
ATOM      1  C   UNL     1       6.930   4.071  12.244  0.00  0.00    +0.000 C 
ATOM      2  C   UNL     1       6.758   4.334  13.683  0.00  0.00    +0.000 A 
ATOM      3  C   UNL     1       5.978   3.812  14.686  0.00  0.00    +0.000 A 
ATOM      4  C   UNL     1       6.339   4.549  15.842  0.00  0.00    +0.000 A 
ATOM      5  N   UNL     1       5.791   4.356  17.103  0.00  0.00    +0.000 N 
ATOM      6  C   UNL     1       6.162   5.100  18.204  0.00  0.00    +0.000 C 
ATOM      7  O   UNL     1       7.050   5.948  18.239  0.00  0.00    +0.000 OA
ATOM      8  N   UNL     1       7.271   5.457  15.538  0.00  0.00    +0.000 NA
ATOM      9  O   UNL     1       7.532   5.323  14.195  0.00  0.00    +0.000 OA
ATOM     10  H   UNL     1       5.075   3.651  17.186  0.00  0.00    +0.000 HD
ENDROOT
BRANCH   6  11
ATOM     11  C   UNL     1       5.389   4.762  19.460  0.00  0.00    +0.000 C 
BRANCH  11  12
ATOM     12  C   UNL     1       3.944   5.211  19.263  0.00  0.00    +0.000 C 
BRANCH  12  13
ATOM     13  N   UNL     1       2.997   4.117  19.199  0.00  0.00    +0.000 N 
ATOM     14  C   UNL     1       1.649   4.201  19.402  0.00  0.00    +0.000 A 
ATOM     15  C   UNL     1       1.146   2.951  19.134  0.00  0.00    +0.000 A 
ATOM     16  C   UNL     1       2.270   2.184  18.780  0.00  0.00    +0.000 A 
ATOM     17  N   UNL     1       3.405   2.890  18.827  0.00  0.00    +0.000 NA
ENDBRANCH  12  13
ENDBRANCH  11  12
ENDBRANCH   6  11
TORSDOF 3
ENDMDL
MODEL 4
REMARK VINA RESULT:      -6.4      2.928      4.125
REMARK  Name = 
REMARK  4 active torsions:
REMARK  status: ('A' for Active; 'I' for Inactive)
REMARK    1  A    between atoms: C_1  and  C_2
REMARK    2  A    between atoms: C_6  and  C_8
REMARK    3  A    between atoms: C_8  and  C_9
REMARK    4  A    between atoms: C_9  and  N_10
REMARK                            x       y       z     vdW  Elec       q    Type
REMARK                         _______ _______ _______ _____ _____    ______ ____
ROOT
ATOM      1  C   UNL     1       7.773   7.701  17.604  0.00  0.00    +0.000 C 
ATOM      2  C   UNL     1       7.014   6.469  17.883  0.00  0.00    +0.000 A 
ATOM      3  C   UNL     1       6.180   5.650  17.161  0.00  0.00    +0.000 A 
ATOM      4  C   UNL     1       5.805   4.630  18.071  0.00  0.00    +0.000 A 
ATOM      5  N   UNL     1       4.956   3.575  17.766  0.00  0.00    +0.000 N 
ATOM      6  C   UNL     1       4.606   2.604  18.682  0.00  0.00    +0.000 C 
ATOM      7  O   UNL     1       5.041   2.497  19.825  0.00  0.00    +0.000 OA
ATOM      8  N   UNL     1       6.377   4.838  19.260  0.00  0.00    +0.000 NA
ATOM      9  O   UNL     1       7.130   5.983  19.144  0.00  0.00    +0.000 OA
ATOM     10  H   UNL     1       4.573   3.553  16.833  0.00  0.00    +0.000 HD
ENDROOT
BRANCH   6  11
ATOM     11  C   UNL     1       3.619   1.587  18.150  0.00  0.00    +0.000 C 
BRANCH  11  12
ATOM     12  C   UNL     1       2.256   2.263  18.035  0.00  0.00    +0.000 C 
BRANCH  12  13
ATOM     13  N   UNL     1       1.864   2.990  19.225  0.00  0.00    +0.000 N 
ATOM     14  C   UNL     1       1.585   4.325  19.302  0.00  0.00    +0.000 A 
ATOM     15  C   UNL     1       1.157   4.550  20.588  0.00  0.00    +0.000 A 
ATOM     16  C   UNL     1       1.214   3.288  21.207  0.00  0.00    +0.000 A 
ATOM     17  N   UNL     1       1.653   2.333  20.381  0.00  0.00    +0.000 NA
ENDBRANCH  12  13
ENDBRANCH  11  12
ENDBRANCH   6  11
TORSDOF 3
ENDMDL
MODEL 5
REMARK VINA RESULT:      -6.4      2.176      6.023
REMARK  Name = 
REMARK  4 active torsions:
REMARK  status: ('A' for Active; 'I' for Inactive)
REMARK    1  A    between atoms: C_1  and  C_2
REMARK    2  A    between atoms: C_6  and  C_8
REMARK    3  A    between atoms: C_8  and  C_9
REMARK    4  A    between atoms: C_9  and  N_10
REMARK                            x       y       z     vdW  Elec       q    Type
REMARK                         _______ _______ _______ _____ _____    ______ ____
ROOT
ATOM      1  C   UNL     1       0.688   2.564  19.435  0.00  0.00    +0.000 C 
ATOM      2  C   UNL     1       2.060   3.010  19.135  0.00  0.00    +0.000 A 
ATOM      3  C   UNL     1       2.810   3.167  17.995  0.00  0.00    +0.000 A 
ATOM      4  C   UNL     1       4.064   3.645  18.453  0.00  0.00    +0.000 A 
ATOM      5  N   UNL     1       5.142   3.943  17.631  0.00  0.00    +0.000 N 
ATOM      6  C   UNL     1       6.351   4.398  18.115  0.00  0.00    +0.000 C 
ATOM      7  O   UNL     1       6.607   4.669  19.286  0.00  0.00    +0.000 OA
ATOM      8  N   UNL     1       4.057   3.756  19.784  0.00  0.00    +0.000 NA
ATOM      9  O   UNL     1       2.811   3.361  20.210  0.00  0.00    +0.000 OA
ATOM     10  H   UNL     1       5.018   3.789  16.642  0.00  0.00    +0.000 HD
ENDROOT
BRANCH   6  11
ATOM     11  C   UNL     1       7.403   4.597  17.046  0.00  0.00    +0.000 C 
BRANCH  11  12
ATOM     12  C   UNL     1       6.812   5.490  15.958  0.00  0.00    +0.000 C 
BRANCH  12  13
ATOM     13  N   UNL     1       6.927   4.939  14.624  0.00  0.00    +0.000 N 
ATOM     14  C   UNL     1       6.175   3.928  14.099  0.00  0.00    +0.000 A 
ATOM     15  C   UNL     1       6.555   3.815  12.783  0.00  0.00    +0.000 A 
ATOM     16  C   UNL     1       7.543   4.801  12.613  0.00  0.00    +0.000 A 
ATOM     17  N   UNL     1       7.781   5.485  13.737  0.00  0.00    +0.000 NA
ENDBRANCH  12  13
ENDBRANCH  11  12
ENDBRANCH   6  11
TORSDOF 3
ENDMDL
MODEL 6
REMARK VINA RESULT:      -6.3      1.906      2.672
REMARK  Name = 
REMARK  4 active torsions:
REMARK  status: ('A' for Active; 'I' for Inactive)
REMARK    1  A    between atoms: C_1  and  C_2
REMARK    2  A    between atoms: C_6  and  C_8
REMARK    3  A    between atoms: C_8  and  C_9
REMARK    4  A    between atoms: C_9  and  N_10
REMARK                            x       y       z     vdW  Elec       q    Type
REMARK                         _______ _______ _______ _____ _____    ______ ____
ROOT
ATOM      1  C   UNL     1       7.562   4.998  12.649  0.00  0.00    +0.000 C 
ATOM      2  C   UNL     1       7.079   4.772  14.022  0.00  0.00    +0.000 A 
ATOM      3  C   UNL     1       6.043   4.074  14.591  0.00  0.00    +0.000 A 
ATOM      4  C   UNL     1       6.184   4.294  15.985  0.00  0.00    +0.000 A 
ATOM      5  N   UNL     1       5.340   3.771  16.955  0.00  0.00    +0.000 N 
ATOM      6  C   UNL     1       5.506   4.015  18.303  0.00  0.00    +0.000 C 
ATOM      7  O   UNL     1       6.430   4.638  18.819  0.00  0.00    +0.000 OA
ATOM      8  N   UNL     1       7.237   5.081  16.223  0.00  0.00    +0.000 NA
ATOM      9  O   UNL     1       7.795   5.379  15.002  0.00  0.00    +0.000 OA
ATOM     10  H   UNL     1       4.566   3.211  16.633  0.00  0.00    +0.000 HD
ENDROOT
BRANCH   6  11
ATOM     11  C   UNL     1       4.432   3.398  19.173  0.00  0.00    +0.000 C 
BRANCH  11  12
ATOM     12  C   UNL     1       3.075   3.879  18.667  0.00  0.00    +0.000 C 
BRANCH  12  13
ATOM     13  N   UNL     1       2.839   5.291  18.883  0.00  0.00    +0.000 N 
ATOM     14  C   UNL     1       2.935   6.280  17.947  0.00  0.00    +0.000 A 
ATOM     15  C   UNL     1       2.521   7.434  18.569  0.00  0.00    +0.000 A 
ATOM     16  C   UNL     1       2.198   7.035  19.878  0.00  0.00    +0.000 A 
ATOM     17  N   UNL     1       2.399   5.728  20.078  0.00  0.00    +0.000 NA
ENDBRANCH  12  13
ENDBRANCH  11  12
ENDBRANCH   6  11
TORSDOF 3
ENDMDL
MODEL 7
REMARK VINA RESULT:      -6.3      2.727      3.852
REMARK  Name = 
REMARK  4 active torsions:
REMARK  status: ('A' for Active; 'I' for Inactive)
REMARK    1  A    between atoms: C_1  and  C_2
REMARK    2  A    between atoms: C_6  and  C_8
REMARK    3  A    between atoms: C_8  and  C_9
REMARK    4  A    between atoms: C_9  and  N_10
REMARK                            x       y       z     vdW  Elec       q    Type
REMARK                         _______ _______ _______ _____ _____    ______ ____
ROOT
ATOM      1  C   UNL     1       7.955   8.116  17.637  0.00  0.00    +0.000 C 
ATOM      2  C   UNL     1       7.050   6.955  17.584  0.00  0.00    +0.000 A 
ATOM      3  C   UNL     1       6.914   5.788  18.295  0.00  0.00    +0.000 A 
ATOM      4  C   UNL     1       5.812   5.127  17.695  0.00  0.00    +0.000 A 
ATOM      5  N   UNL     1       5.317   3.895  18.098  0.00  0.00    +0.000 N 
ATOM      6  C   UNL     1       4.246   3.279  17.483  0.00  0.00    +0.000 C 
ATOM      7  O   UNL     1       3.559   3.752  16.582  0.00  0.00    +0.000 OA
ATOM      8  N   UNL     1       5.330   5.858  16.686  0.00  0.00    +0.000 NA
ATOM      9  O   UNL     1       6.100   6.995  16.616  0.00  0.00    +0.000 OA
ATOM     10  H   UNL     1       5.793   3.439  18.862  0.00  0.00    +0.000 HD
ENDROOT
BRANCH   6  11
ATOM     11  C   UNL     1       3.919   1.913  18.047  0.00  0.00    +0.000 C 
BRANCH  11  12
ATOM     12  C   UNL     1       2.442   1.901  18.434  0.00  0.00    +0.000 C 
BRANCH  12  13
ATOM     13  N   UNL     1       2.114   2.812  19.510  0.00  0.00    +0.000 N 
ATOM     14  C   UNL     1       1.191   3.818  19.465  0.00  0.00    +0.000 A 
ATOM     15  C   UNL     1       1.139   4.343  20.733  0.00  0.00    +0.000 A 
ATOM     16  C   UNL     1       2.069   3.587  21.469  0.00  0.00    +0.000 A 
ATOM     17  N   UNL     1       2.674   2.656  20.724  0.00  0.00    +0.000 NA
ENDBRANCH  12  13
ENDBRANCH  11  12
ENDBRANCH   6  11
TORSDOF 3
ENDMDL
MODEL 8
REMARK VINA RESULT:      -6.1      1.952      5.887
REMARK  Name = 
REMARK  4 active torsions:
REMARK  status: ('A' for Active; 'I' for Inactive)
REMARK    1  A    between atoms: C_1  and  C_2
REMARK    2  A    between atoms: C_6  and  C_8
REMARK    3  A    between atoms: C_8  and  C_9
REMARK    4  A    between atoms: C_9  and  N_10
REMARK                            x       y       z     vdW  Elec       q    Type
REMARK                         _______ _______ _______ _____ _____    ______ ____
ROOT
ATOM      1  C   UNL     1       1.605   2.494  20.925  0.00  0.00    +0.000 C 
ATOM      2  C   UNL     1       2.765   3.123  20.270  0.00  0.00    +0.000 A 
ATOM      3  C   UNL     1       2.965   4.241  19.498  0.00  0.00    +0.000 A 
ATOM      4  C   UNL     1       4.354   4.238  19.214  0.00  0.00    +0.000 A 
ATOM      5  N   UNL     1       5.005   5.197  18.450  0.00  0.00    +0.000 N 
ATOM      6  C   UNL     1       6.359   5.155  18.187  0.00  0.00    +0.000 C 
ATOM      7  O   UNL     1       7.159   4.341  18.640  0.00  0.00    +0.000 OA
ATOM      8  N   UNL     1       4.938   3.177  19.778  0.00  0.00    +0.000 NA
ATOM      9  O   UNL     1       3.950   2.483  20.435  0.00  0.00    +0.000 OA
ATOM     10  H   UNL     1       4.436   5.934  18.062  0.00  0.00    +0.000 HD
ENDROOT
BRANCH   6  11
ATOM     11  C   UNL     1       6.842   6.267  17.281  0.00  0.00    +0.000 C 
BRANCH  11  12
ATOM     12  C   UNL     1       5.905   6.339  16.078  0.00  0.00    +0.000 C 
BRANCH  12  13
ATOM     13  N   UNL     1       6.229   5.394  15.030  0.00  0.00    +0.000 N 
ATOM     14  C   UNL     1       5.413   4.410  14.548  0.00  0.00    +0.000 A 
ATOM     15  C   UNL     1       6.089   3.837  13.497  0.00  0.00    +0.000 A 
ATOM     16  C   UNL     1       7.302   4.545  13.427  0.00  0.00    +0.000 A 
ATOM     17  N   UNL     1       7.396   5.492  14.366  0.00  0.00    +0.000 NA
ENDBRANCH  12  13
ENDBRANCH  11  12
ENDBRANCH   6  11
TORSDOF 3
ENDMDL
MODEL 9
REMARK VINA RESULT:      -6.1      2.367      6.106
REMARK  Name = 
REMARK  4 active torsions:
REMARK  status: ('A' for Active; 'I' for Inactive)
REMARK    1  A    between atoms: C_1  and  C_2
REMARK    2  A    between atoms: C_6  and  C_8
REMARK    3  A    between atoms: C_8  and  C_9
REMARK    4  A    between atoms: C_9  and  N_10
REMARK                            x       y       z     vdW  Elec       q    Type
REMARK                         _______ _______ _______ _____ _____    ______ ____
ROOT
ATOM      1  C   UNL     1       1.473   2.762  21.462  0.00  0.00    +0.000 C 
ATOM      2  C   UNL     1       2.234   3.663  20.580  0.00  0.00    +0.000 A 
ATOM      3  C   UNL     1       3.529   3.722  20.125  0.00  0.00    +0.000 A 
ATOM      4  C   UNL     1       3.565   4.870  19.292  0.00  0.00    +0.000 A 
ATOM      5  N   UNL     1       4.691   5.318  18.616  0.00  0.00    +0.000 N 
ATOM      6  C   UNL     1       4.689   6.445  17.821  0.00  0.00    +0.000 C 
ATOM      7  O   UNL     1       3.712   7.137  17.547  0.00  0.00    +0.000 OA
ATOM      8  N   UNL     1       2.365   5.457  19.264  0.00  0.00    +0.000 NA
ATOM      9  O   UNL     1       1.536   4.707  20.065  0.00  0.00    +0.000 OA
ATOM     10  H   UNL     1       5.541   4.791  18.746  0.00  0.00    +0.000 HD
ENDROOT
BRANCH   6  11
ATOM     11  C   UNL     1       6.043   6.782  17.232  0.00  0.00    +0.000 C 
BRANCH  11  12
ATOM     12  C   UNL     1       6.829   5.483  17.076  0.00  0.00    +0.000 C 
BRANCH  12  13
ATOM     13  N   UNL     1       6.777   4.927  15.740  0.00  0.00    +0.000 N 
ATOM     14  C   UNL     1       5.958   3.921  15.314  0.00  0.00    +0.000 A 
ATOM     15  C   UNL     1       6.176   3.801  13.962  0.00  0.00    +0.000 A 
ATOM     16  C   UNL     1       7.145   4.778  13.670  0.00  0.00    +0.000 A 
ATOM     17  N   UNL     1       7.522   5.463  14.755  0.00  0.00    +0.000 NA
ENDBRANCH  12  13
ENDBRANCH  11  12
ENDBRANCH   6  11
TORSDOF 3
ENDMDL
