MODEL 1
REMARK VINA RESULT:      -8.1      0.000      0.000
REMARK  Name = 
REMARK  5 active torsions:
REMARK  status: ('A' for Active; 'I' for Inactive)
REMARK    1  A    between atoms: C_1  and  N_2
REMARK    2  A    between atoms: C_4  and  C_5
REMARK    3  A    between atoms: C_5  and  N_6
REMARK    4  A    between atoms: C_5  and  C_13
REMARK    5  A    between atoms: C_16  and  C_17
REMARK                            x       y       z     vdW  Elec       q    Type
REMARK                         _______ _______ _______ _____ _____    ______ ____
ROOT
ATOM      1  C   UNL     1       3.158   6.214  18.620  0.00  0.00    +0.000 C 
ENDROOT
BRANCH   1   5
ATOM      2  C   UNL     1       7.776   7.926  17.318  0.00  0.00    +0.000 C 
ATOM      3  N   UNL     1       6.573   7.125  17.357  0.00  0.00    +0.000 N 
ATOM      4  C   UNL     1       5.489   7.394  18.149  0.00  0.00    +0.000 A 
ATOM      5  C   UNL     1       4.508   6.441  17.930  0.00  0.00    +0.000 A 
ATOM      6  C   UNL     1       5.039   5.586  16.885  0.00  0.00    +0.000 A 
ATOM      7  C   UNL     1       4.528   4.479  16.171  0.00  0.00    +0.000 A 
ATOM      8  C   UNL     1       5.347   3.793  15.265  0.00  0.00    +0.000 A 
ATOM      9  C   UNL     1       6.668   4.183  15.069  0.00  0.00    +0.000 A 
ATOM     10  C   UNL     1       7.189   5.297  15.729  0.00  0.00    +0.000 A 
ATOM     11  C   UNL     1       6.348   5.993  16.612  0.00  0.00    +0.000 A 
ENDBRANCH   1   5
BRANCH   1  12
ATOM     12  N   UNL     1       3.268   5.558  19.926  0.00  0.00    +0.000 N 
ATOM     13  C   UNL     1       2.440   4.451  20.152  0.00  0.00    +0.000 A 
ATOM     14  C   UNL     1       2.514   3.819  21.393  0.00  0.00    +0.000 A 
ATOM     15  C   UNL     1       1.752   2.677  21.641  0.00  0.00    +0.000 A 
ATOM     16  C   UNL     1       0.933   2.185  20.639  0.00  0.00    +0.000 A 
ATOM     17  C   UNL     1       0.917   2.858  19.432  0.00  0.00    +0.000 A 
ATOM     18  N   UNL     1       1.654   3.962  19.170  0.00  0.00    +0.000 NA
ATOM     19  H   UNL     1       3.189   6.219  20.686  0.00  0.00    +0.000 HD
ENDBRANCH   1  12
BRANCH   1  20
ATOM     20  C   UNL     1       2.436   7.561  18.767  0.00  0.00    +0.000 A 
ATOM     21  C   UNL     1       2.309   8.401  17.648  0.00  0.00    +0.000 A 
ATOM     22  C   UNL     1       1.622   9.618  17.730  0.00  0.00    +0.000 A 
ATOM     23  C   UNL     1       1.051  10.033  18.941  0.00  0.00    +0.000 A 
ATOM     24  C   UNL     1       1.156   9.195  20.057  0.00  0.00    +0.000 A 
ATOM     25  C   UNL     1       1.805   7.962  19.960  0.00  0.00    +0.000 A 
BRANCH  23  26
ATOM     26  C   UNL     1       0.313  11.342  19.057  0.00  0.00    +0.000 C 
ATOM     27  F   UNL     1       1.049  12.424  18.677  0.00  0.00    +0.000 F 
ATOM     28  F   UNL     1      -0.816  11.373  18.294  0.00  0.00    +0.000 F 
ATOM     29  F   UNL     1      -0.095  11.599  20.332  0.00  0.00    +0.000 F 
ENDBRANCH  23  26
ENDBRANCH   1  20
TORSDOF 4
ENDMDL
MODEL 2
REMARK VINA RESULT:      -8.1      0.136      1.188
REMARK  Name = 
REMARK  5 active torsions:
REMARK  status: ('A' for Active; 'I' for Inactive)
REMARK    1  A    between atoms: C_1  and  N_2
REMARK    2  A    between atoms: C_4  and  C_5
REMARK    3  A    between atoms: C_5  and  N_6
REMARK    4  A    between atoms: C_5  and  C_13
REMARK    5  A    between atoms: C_16  and  C_17
REMARK                            x       y       z     vdW  Elec       q    Type
REMARK                         _______ _______ _______ _____ _____    ______ ____
ROOT
ATOM      1  C   UNL     1       3.136   6.217  18.589  0.00  0.00    +0.000 C 
ENDROOT
BRANCH   1   5
ATOM      2  C   UNL     1       7.763   7.934  17.328  0.00  0.00    +0.000 C 
ATOM      3  N   UNL     1       6.561   7.130  17.358  0.00  0.00    +0.000 N 
ATOM      4  C   UNL     1       5.468   7.401  18.136  0.00  0.00    +0.000 A 
ATOM      5  C   UNL     1       4.492   6.444  17.912  0.00  0.00    +0.000 A 
ATOM      6  C   UNL     1       5.037   5.584  16.880  0.00  0.00    +0.000 A 
ATOM      7  C   UNL     1       4.538   4.470  16.167  0.00  0.00    +0.000 A 
ATOM      8  C   UNL     1       5.369   3.781  15.275  0.00  0.00    +0.000 A 
ATOM      9  C   UNL     1       6.691   4.173  15.091  0.00  0.00    +0.000 A 
ATOM     10  C   UNL     1       7.201   5.293  15.750  0.00  0.00    +0.000 A 
ATOM     11  C   UNL     1       6.348   5.992  16.619  0.00  0.00    +0.000 A 
ENDBRANCH   1   5
BRANCH   1  12
ATOM     12  N   UNL     1       3.233   5.586  19.907  0.00  0.00    +0.000 N 
ATOM     13  C   UNL     1       2.424   4.466  20.137  0.00  0.00    +0.000 A 
ATOM     14  C   UNL     1       2.487   3.857  21.390  0.00  0.00    +0.000 A 
ATOM     15  C   UNL     1       1.744   2.704  21.644  0.00  0.00    +0.000 A 
ATOM     16  C   UNL     1       0.954   2.178  20.635  0.00  0.00    +0.000 A 
ATOM     17  C   UNL     1       0.948   2.831  19.416  0.00  0.00    +0.000 A 
ATOM     18  N   UNL     1       1.667   3.945  19.149  0.00  0.00    +0.000 NA
ATOM     19  H   UNL     1       3.126   6.259  20.654  0.00  0.00    +0.000 HD
ENDBRANCH   1  12
BRANCH   1  20
ATOM     20  C   UNL     1       2.400   7.560  18.702  0.00  0.00    +0.000 A 
ATOM     21  C   UNL     1       1.827   7.932  19.931  0.00  0.00    +0.000 A 
ATOM     22  C   UNL     1       1.184   9.165  20.086  0.00  0.00    +0.000 A 
ATOM     23  C   UNL     1       1.087  10.058  19.011  0.00  0.00    +0.000 A 
ATOM     24  C   UNL     1       1.668   9.706  17.788  0.00  0.00    +0.000 A 
ATOM     25  C   UNL     1       2.347   8.493  17.649  0.00  0.00    +0.000 A 
BRANCH  23  26
ATOM     26  C   UNL     1       0.392  11.389  19.151  0.00  0.00    +0.000 C 
ATOM     27  F   UNL     1      -0.892  11.390  18.695  0.00  0.00    +0.000 F 
ATOM     28  F   UNL     1       0.327  11.808  20.446  0.00  0.00    +0.000 F 
ATOM     29  F   UNL     1       1.029  12.383  18.471  0.00  0.00    +0.000 F 
ENDBRANCH  23  26
ENDBRANCH   1  20
TORSDOF 4
ENDMDL
MODEL 3
REMARK VINA RESULT:      -8.1      4.665      8.860
REMARK  Name = 
REMARK  5 active torsions:
REMARK  status: ('A' for Active; 'I' for Inactive)
REMARK    1  A    between atoms: C_1  and  N_2
REMARK    2  A    between atoms: C_4  and  C_5
REMARK    3  A    between atoms: C_5  and  N_6
REMARK    4  A    between atoms: C_5  and  C_13
REMARK    5  A    between atoms: C_16  and  C_17
REMARK                            x       y       z     vdW  Elec       q    Type
REMARK                         _______ _______ _______ _____ _____    ______ ____
ROOT
ATOM      1  C   UNL     1       0.725  11.593  19.166  0.00  0.00    +0.000 C 
ENDROOT
BRANCH   1   5
ATOM      2  C   UNL     1      -4.050  12.836  20.432  0.00  0.00    +0.000 C 
ATOM      3  N   UNL     1      -2.925  12.262  19.729  0.00  0.00    +0.000 N 
ATOM      4  C   UNL     1      -1.621  12.373  20.132  0.00  0.00    +0.000 A 
ATOM      5  C   UNL     1      -0.803  11.697  19.243  0.00  0.00    +0.000 A 
ATOM      6  C   UNL     1      -1.706  11.095  18.282  0.00  0.00    +0.000 A 
ATOM      7  C   UNL     1      -1.527  10.241  17.170  0.00  0.00    +0.000 A 
ATOM      8  C   UNL     1      -2.621   9.903  16.364  0.00  0.00    +0.000 A 
ATOM      9  C   UNL     1      -3.887  10.411  16.638  0.00  0.00    +0.000 A 
ATOM     10  C   UNL     1      -4.103  11.225  17.752  0.00  0.00    +0.000 A 
ATOM     11  C   UNL     1      -3.002  11.531  18.568  0.00  0.00    +0.000 A 
ENDBRANCH   1   5
BRANCH   1  12
ATOM     12  N   UNL     1       1.422  12.424  20.151  0.00  0.00    +0.000 N 
ATOM     13  C   UNL     1       2.312  13.385  19.656  0.00  0.00    +0.000 A 
ATOM     14  C   UNL     1       3.000  14.177  20.574  0.00  0.00    +0.000 A 
ATOM     15  C   UNL     1       3.851  15.188  20.125  0.00  0.00    +0.000 A 
ATOM     16  C   UNL     1       3.994  15.389  18.762  0.00  0.00    +0.000 A 
ATOM     17  C   UNL     1       3.275  14.571  17.912  0.00  0.00    +0.000 A 
ATOM     18  N   UNL     1       2.440  13.591  18.328  0.00  0.00    +0.000 NA
ATOM     19  H   UNL     1       1.867  11.865  20.866  0.00  0.00    +0.000 HD
ENDBRANCH   1  12
BRANCH   1  20
ATOM     20  C   UNL     1       1.138  10.124  19.331  0.00  0.00    +0.000 A 
ATOM     21  C   UNL     1       1.791   9.467  18.273  0.00  0.00    +0.000 A 
ATOM     22  C   UNL     1       2.221   8.142  18.399  0.00  0.00    +0.000 A 
ATOM     23  C   UNL     1       1.999   7.430  19.585  0.00  0.00    +0.000 A 
ATOM     24  C   UNL     1       1.366   8.079  20.651  0.00  0.00    +0.000 A 
ATOM     25  C   UNL     1       0.977   9.416  20.537  0.00  0.00    +0.000 A 
BRANCH  23  26
ATOM     26  C   UNL     1       2.445   5.998  19.742  0.00  0.00    +0.000 C 
ATOM     27  F   UNL     1       3.797   5.845  19.793  0.00  0.00    +0.000 F 
ATOM     28  F   UNL     1       1.962   5.425  20.880  0.00  0.00    +0.000 F 
ATOM     29  F   UNL     1       2.019   5.206  18.718  0.00  0.00    +0.000 F 
ENDBRANCH  23  26
ENDBRANCH   1  20
TORSDOF 4
ENDMDL
MODEL 4
REMARK VINA RESULT:      -8.0      4.685      8.920
REMARK  Name = 
REMARK  5 active torsions:
REMARK  status: ('A' for Active; 'I' for Inactive)
REMARK    1  A    between atoms: C_1  and  N_2
REMARK    2  A    between atoms: C_4  and  C_5
REMARK    3  A    between atoms: C_5  and  N_6
REMARK    4  A    between atoms: C_5  and  C_13
REMARK    5  A    between atoms: C_16  and  C_17
REMARK                            x       y       z     vdW  Elec       q    Type
REMARK                         _______ _______ _______ _____ _____    ______ ____
ROOT
ATOM      1  C   UNL     1       0.791  11.672  19.134  0.00  0.00    +0.000 C 
ENDROOT
BRANCH   1   5
ATOM      2  C   UNL     1      -3.979  12.816  20.508  0.00  0.00    +0.000 C 
ATOM      3  N   UNL     1      -2.858  12.263  19.781  0.00  0.00    +0.000 N 
ATOM      4  C   UNL     1      -1.548  12.405  20.153  0.00  0.00    +0.000 A 
ATOM      5  C   UNL     1      -0.736  11.742  19.247  0.00  0.00    +0.000 A 
ATOM      6  C   UNL     1      -1.648  11.116  18.310  0.00  0.00    +0.000 A 
ATOM      7  C   UNL     1      -1.477  10.261  17.198  0.00  0.00    +0.000 A 
ATOM      8  C   UNL     1      -2.582   9.895  16.420  0.00  0.00    +0.000 A 
ATOM      9  C   UNL     1      -3.852  10.376  16.722  0.00  0.00    +0.000 A 
ATOM     10  C   UNL     1      -4.060  11.190  17.838  0.00  0.00    +0.000 A 
ATOM     11  C   UNL     1      -2.947  11.525  18.626  0.00  0.00    +0.000 A 
ENDBRANCH   1   5
BRANCH   1  12
ATOM     12  N   UNL     1       1.493  12.512  20.108  0.00  0.00    +0.000 N 
ATOM     13  C   UNL     1       2.358  13.488  19.599  0.00  0.00    +0.000 A 
ATOM     14  C   UNL     1       3.050  14.289  20.508  0.00  0.00    +0.000 A 
ATOM     15  C   UNL     1       3.877  15.314  20.045  0.00  0.00    +0.000 A 
ATOM     16  C   UNL     1       3.991  15.521  18.681  0.00  0.00    +0.000 A 
ATOM     17  C   UNL     1       3.269  14.694  17.842  0.00  0.00    +0.000 A 
ATOM     18  N   UNL     1       2.458  13.700  18.270  0.00  0.00    +0.000 NA
ATOM     19  H   UNL     1       1.960  11.957  20.813  0.00  0.00    +0.000 HD
ENDBRANCH   1  12
BRANCH   1  20
ATOM     20  C   UNL     1       1.240  10.211  19.279  0.00  0.00    +0.000 A 
ATOM     21  C   UNL     1       0.986   9.527  20.480  0.00  0.00    +0.000 A 
ATOM     22  C   UNL     1       1.341   8.182  20.637  0.00  0.00    +0.000 A 
ATOM     23  C   UNL     1       1.972   7.486  19.598  0.00  0.00    +0.000 A 
ATOM     24  C   UNL     1       2.214   8.153  18.391  0.00  0.00    +0.000 A 
ATOM     25  C   UNL     1       1.818   9.482  18.223  0.00  0.00    +0.000 A 
BRANCH  23  26
ATOM     26  C   UNL     1       2.373   6.041  19.746  0.00  0.00    +0.000 C 
ATOM     27  F   UNL     1       1.934   5.242  18.733  0.00  0.00    +0.000 F 
ATOM     28  F   UNL     1       3.725   5.877  19.789  0.00  0.00    +0.000 F 
ATOM     29  F   UNL     1       1.895   5.483  20.894  0.00  0.00    +0.000 F 
ENDBRANCH  23  26
ENDBRANCH   1  20
TORSDOF 4
ENDMDL
MODEL 5
REMARK VINA RESULT:      -7.9      4.464      8.313
REMARK  Name = 
REMARK  5 active torsions:
REMARK  status: ('A' for Active; 'I' for Inactive)
REMARK    1  A    between atoms: C_1  and  N_2
REMARK    2  A    between atoms: C_4  and  C_5
REMARK    3  A    between atoms: C_5  and  N_6
REMARK    4  A    between atoms: C_5  and  C_13
REMARK    5  A    between atoms: C_16  and  C_17
REMARK                            x       y       z     vdW  Elec       q    Type
REMARK                         _______ _______ _______ _____ _____    ______ ____
ROOT
ATOM      1  C   UNL     1       0.201  10.416  18.870  0.00  0.00    +0.000 C 
ENDROOT
BRANCH   1   5
ATOM      2  C   UNL     1       3.605  14.184  18.471  0.00  0.00    +0.000 C 
ATOM      3  N   UNL     1       2.509  13.374  18.953  0.00  0.00    +0.000 N 
ATOM      4  C   UNL     1       2.135  12.175  18.409  0.00  0.00    +0.000 A 
ATOM      5  C   UNL     1       1.061  11.661  19.117  0.00  0.00    +0.000 A 
ATOM      6  C   UNL     1       0.832  12.605  20.194  0.00  0.00    +0.000 A 
ATOM      7  C   UNL     1      -0.060  12.645  21.289  0.00  0.00    +0.000 A 
ATOM      8  C   UNL     1      -0.098  13.772  22.119  0.00  0.00    +0.000 A 
ATOM      9  C   UNL     1       0.726  14.864  21.869  0.00  0.00    +0.000 A 
ATOM     10  C   UNL     1       1.646  14.839  20.819  0.00  0.00    +0.000 A 
ATOM     11  C   UNL     1       1.694  13.690  20.013  0.00  0.00    +0.000 A 
ENDBRANCH   1   5
BRANCH   1  12
ATOM     12  N   UNL     1      -0.464  10.409  17.565  0.00  0.00    +0.000 N 
ATOM     13  C   UNL     1      -1.819  10.761  17.539  0.00  0.00    +0.000 A 
ATOM     14  C   UNL     1      -2.477  10.745  16.309  0.00  0.00    +0.000 A 
ATOM     15  C   UNL     1      -3.811  11.146  16.228  0.00  0.00    +0.000 A 
ATOM     16  C   UNL     1      -4.460  11.560  17.379  0.00  0.00    +0.000 A 
ATOM     17  C   UNL     1      -3.742  11.557  18.560  0.00  0.00    +0.000 A 
ATOM     18  N   UNL     1      -2.447  11.179  18.658  0.00  0.00    +0.000 NA
ATOM     19  H   UNL     1      -0.315   9.539  17.073  0.00  0.00    +0.000 HD
ENDBRANCH   1  12
BRANCH   1  20
ATOM     20  C   UNL     1       1.074   9.163  19.023  0.00  0.00    +0.000 A 
ATOM     21  C   UNL     1       1.151   8.523  20.272  0.00  0.00    +0.000 A 
ATOM     22  C   UNL     1       1.902   7.355  20.443  0.00  0.00    +0.000 A 
ATOM     23  C   UNL     1       2.609   6.799  19.368  0.00  0.00    +0.000 A 
ATOM     24  C   UNL     1       2.525   7.418  18.116  0.00  0.00    +0.000 A 
ATOM     25  C   UNL     1       1.739   8.559  17.939  0.00  0.00    +0.000 A 
BRANCH  23  26
ATOM     26  C   UNL     1       3.432   5.546  19.529  0.00  0.00    +0.000 C 
ATOM     27  F   UNL     1       3.052   4.769  20.581  0.00  0.00    +0.000 F 
ATOM     28  F   UNL     1       3.374   4.741  18.431  0.00  0.00    +0.000 F 
ATOM     29  F   UNL     1       4.755   5.814  19.721  0.00  0.00    +0.000 F 
ENDBRANCH  23  26
ENDBRANCH   1  20
TORSDOF 4
ENDMDL
MODEL 6
REMARK VINA RESULT:      -7.8      4.475      8.293
REMARK  Name = 
REMARK  5 active torsions:
REMARK  status: ('A' for Active; 'I' for Inactive)
REMARK    1  A    between atoms: C_1  and  N_2
REMARK    2  A    between atoms: C_4  and  C_5
REMARK    3  A    between atoms: C_5  and  N_6
REMARK    4  A    between atoms: C_5  and  C_13
REMARK    5  A    between atoms: C_16  and  C_17
REMARK                            x       y       z     vdW  Elec       q    Type
REMARK                         _______ _______ _______ _____ _____    ______ ____
ROOT
ATOM      1  C   UNL     1       0.101  10.487  18.877  0.00  0.00    +0.000 C 
ENDROOT
BRANCH   1   5
ATOM      2  C   UNL     1       3.589  14.183  18.520  0.00  0.00    +0.000 C 
ATOM      3  N   UNL     1       2.477  13.390  18.995  0.00  0.00    +0.000 N 
ATOM      4  C   UNL     1       2.072  12.210  18.433  0.00  0.00    +0.000 A 
ATOM      5  C   UNL     1       0.991  11.707  19.140  0.00  0.00    +0.000 A 
ATOM      6  C   UNL     1       0.791  12.637  20.234  0.00  0.00    +0.000 A 
ATOM      7  C   UNL     1      -0.092  12.678  21.337  0.00  0.00    +0.000 A 
ATOM      8  C   UNL     1      -0.098  13.790  22.187  0.00  0.00    +0.000 A 
ATOM      9  C   UNL     1       0.749  14.868  21.950  0.00  0.00    +0.000 A 
ATOM     10  C   UNL     1       1.661  14.840  20.893  0.00  0.00    +0.000 A 
ATOM     11  C   UNL     1       1.677  13.706  20.067  0.00  0.00    +0.000 A 
ENDBRANCH   1   5
BRANCH   1  12
ATOM     12  N   UNL     1      -0.523  10.488  17.552  0.00  0.00    +0.000 N 
ATOM     13  C   UNL     1      -1.882  10.820  17.489  0.00  0.00    +0.000 A 
ATOM     14  C   UNL     1      -2.503  10.812  16.240  0.00  0.00    +0.000 A 
ATOM     15  C   UNL     1      -3.840  11.194  16.123  0.00  0.00    +0.000 A 
ATOM     16  C   UNL     1      -4.529  11.582  17.259  0.00  0.00    +0.000 A 
ATOM     17  C   UNL     1      -3.847  11.573  18.461  0.00  0.00    +0.000 A 
ATOM     18  N   UNL     1      -2.550  11.213  18.594  0.00  0.00    +0.000 NA
ATOM     19  H   UNL     1      -0.346   9.627  17.053  0.00  0.00    +0.000 HD
ENDBRANCH   1  12
BRANCH   1  20
ATOM     20  C   UNL     1       0.930   9.209  19.067  0.00  0.00    +0.000 A 
ATOM     21  C   UNL     1       1.578   8.636  17.960  0.00  0.00    +0.000 A 
ATOM     22  C   UNL     1       2.377   7.495  18.099  0.00  0.00    +0.000 A 
ATOM     23  C   UNL     1       2.541   6.888  19.351  0.00  0.00    +0.000 A 
ATOM     24  C   UNL     1       1.914   7.461  20.464  0.00  0.00    +0.000 A 
ATOM     25  C   UNL     1       1.153   8.625  20.328  0.00  0.00    +0.000 A 
BRANCH  23  26
ATOM     26  C   UNL     1       3.388   5.654  19.526  0.00  0.00    +0.000 C 
ATOM     27  F   UNL     1       4.716   5.916  19.686  0.00  0.00    +0.000 F 
ATOM     28  F   UNL     1       3.020   4.919  20.612  0.00  0.00    +0.000 F 
ATOM     29  F   UNL     1       3.301   4.808  18.460  0.00  0.00    +0.000 F 
ENDBRANCH  23  26
ENDBRANCH   1  20
TORSDOF 4
ENDMDL
MODEL 7
REMARK VINA RESULT:      -7.7      4.548      8.537
REMARK  Name = 
REMARK  5 active torsions:
REMARK  status: ('A' for Active; 'I' for Inactive)
REMARK    1  A    between atoms: C_1  and  N_2
REMARK    2  A    between atoms: C_4  and  C_5
REMARK    3  A    between atoms: C_5  and  N_6
REMARK    4  A    between atoms: C_5  and  C_13
REMARK    5  A    between atoms: C_16  and  C_17
REMARK                            x       y       z     vdW  Elec       q    Type
REMARK                         _______ _______ _______ _____ _____    ______ ____
ROOT
ATOM      1  C   UNL     1       0.001  11.153  18.779  0.00  0.00    +0.000 C 
ENDROOT
BRANCH   1   5
ATOM      2  C   UNL     1       4.098  14.127  18.208  0.00  0.00    +0.000 C 
ATOM      3  N   UNL     1       2.742  13.699  18.470  0.00  0.00    +0.000 N 
ATOM      4  C   UNL     1       2.326  12.395  18.456  0.00  0.00    +0.000 A 
ATOM      5  C   UNL     1       0.976  12.337  18.762  0.00  0.00    +0.000 A 
ATOM      6  C   UNL     1       0.591  13.709  19.033  0.00  0.00    +0.000 A 
ATOM      7  C   UNL     1      -0.610  14.325  19.452  0.00  0.00    +0.000 A 
ATOM      8  C   UNL     1      -0.688  15.721  19.534  0.00  0.00    +0.000 A 
ATOM      9  C   UNL     1       0.405  16.512  19.194  0.00  0.00    +0.000 A 
ATOM     10  C   UNL     1       1.616  15.932  18.815  0.00  0.00    +0.000 A 
ATOM     11  C   UNL     1       1.689  14.531  18.766  0.00  0.00    +0.000 A 
ENDBRANCH   1   5
BRANCH   1  12
ATOM     12  N   UNL     1      -0.843  11.068  17.585  0.00  0.00    +0.000 N 
ATOM     13  C   UNL     1      -2.215  11.290  17.760  0.00  0.00    +0.000 A 
ATOM     14  C   UNL     1      -3.042  11.198  16.640  0.00  0.00    +0.000 A 
ATOM     15  C   UNL     1      -4.405  11.470  16.756  0.00  0.00    +0.000 A 
ATOM     16  C   UNL     1      -4.915  11.836  17.991  0.00  0.00    +0.000 A 
ATOM     17  C   UNL     1      -4.034  11.914  19.053  0.00  0.00    +0.000 A 
ATOM     18  N   UNL     1      -2.709  11.661  18.960  0.00  0.00    +0.000 NA
ATOM     19  H   UNL     1      -0.686  10.209  17.076  0.00  0.00    +0.000 HD
ENDBRANCH   1  12
BRANCH   1  20
ATOM     20  C   UNL     1       0.796   9.851  18.956  0.00  0.00    +0.000 A 
ATOM     21  C   UNL     1       0.877   9.260  20.229  0.00  0.00    +0.000 A 
ATOM     22  C   UNL     1       1.555   8.052  20.425  0.00  0.00    +0.000 A 
ATOM     23  C   UNL     1       2.183   7.406  19.351  0.00  0.00    +0.000 A 
ATOM     24  C   UNL     1       2.094   7.976  18.077  0.00  0.00    +0.000 A 
ATOM     25  C   UNL     1       1.378   9.160  17.878  0.00  0.00    +0.000 A 
BRANCH  23  26
ATOM     26  C   UNL     1       2.928   6.108  19.538  0.00  0.00    +0.000 C 
ATOM     27  F   UNL     1       4.283   6.245  19.524  0.00  0.00    +0.000 F 
ATOM     28  F   UNL     1       2.627   5.501  20.720  0.00  0.00    +0.000 F 
ATOM     29  F   UNL     1       2.635   5.196  18.568  0.00  0.00    +0.000 F 
ENDBRANCH  23  26
ENDBRANCH   1  20
TORSDOF 4
ENDMDL
MODEL 8
REMARK VINA RESULT:      -7.6      4.499      7.465
REMARK  Name = 
REMARK  5 active torsions:
REMARK  status: ('A' for Active; 'I' for Inactive)
REMARK    1  A    between atoms: C_1  and  N_2
REMARK    2  A    between atoms: C_4  and  C_5
REMARK    3  A    between atoms: C_5  and  N_6
REMARK    4  A    between atoms: C_5  and  C_13
REMARK    5  A    between atoms: C_16  and  C_17
REMARK                            x       y       z     vdW  Elec       q    Type
REMARK                         _______ _______ _______ _____ _____    ______ ____
ROOT
ATOM      1  C   UNL     1      -0.226  11.644  18.556  0.00  0.00    +0.000 C 
ENDROOT
BRANCH   1   5
ATOM      2  C   UNL     1       0.366   9.361  23.071  0.00  0.00    +0.000 C 
ATOM      3  N   UNL     1       0.460   9.643  21.656  0.00  0.00    +0.000 N 
ATOM      4  C   UNL     1      -0.068  10.752  21.051  0.00  0.00    +0.000 A 
ATOM      5  C   UNL     1       0.214  10.717  19.695  0.00  0.00    +0.000 A 
ATOM      6  C   UNL     1       1.020   9.527  19.508  0.00  0.00    +0.000 A 
ATOM      7  C   UNL     1       1.673   8.951  18.395  0.00  0.00    +0.000 A 
ATOM      8  C   UNL     1       2.310   7.710  18.522  0.00  0.00    +0.000 A 
ATOM      9  C   UNL     1       2.296   7.028  19.735  0.00  0.00    +0.000 A 
ATOM     10  C   UNL     1       1.693   7.589  20.862  0.00  0.00    +0.000 A 
ATOM     11  C   UNL     1       1.084   8.847  20.727  0.00  0.00    +0.000 A 
ENDBRANCH   1   5
BRANCH   1  12
ATOM     12  N   UNL     1      -1.654  11.971  18.581  0.00  0.00    +0.000 N 
ATOM     13  C   UNL     1      -2.443  11.453  17.547  0.00  0.00    +0.000 A 
ATOM     14  C   UNL     1      -3.803  11.764  17.540  0.00  0.00    +0.000 A 
ATOM     15  C   UNL     1      -4.638  11.221  16.563  0.00  0.00    +0.000 A 
ATOM     16  C   UNL     1      -4.097  10.371  15.613  0.00  0.00    +0.000 A 
ATOM     17  C   UNL     1      -2.743  10.102  15.687  0.00  0.00    +0.000 A 
ATOM     18  N   UNL     1      -1.919  10.612  16.630  0.00  0.00    +0.000 NA
ATOM     19  H   UNL     1      -1.809  12.965  18.680  0.00  0.00    +0.000 HD
ENDBRANCH   1  12
BRANCH   1  20
ATOM     20  C   UNL     1       0.610  12.931  18.602  0.00  0.00    +0.000 A 
ATOM     21  C   UNL     1       1.982  12.874  18.302  0.00  0.00    +0.000 A 
ATOM     22  C   UNL     1       2.770  14.031  18.292  0.00  0.00    +0.000 A 
ATOM     23  C   UNL     1       2.208  15.278  18.595  0.00  0.00    +0.000 A 
ATOM     24  C   UNL     1       0.839  15.348  18.879  0.00  0.00    +0.000 A 
ATOM     25  C   UNL     1       0.047  14.198  18.844  0.00  0.00    +0.000 A 
BRANCH  23  26
ATOM     26  C   UNL     1       3.037  16.536  18.601  0.00  0.00    +0.000 C 
ATOM     27  F   UNL     1       3.229  17.075  17.364  0.00  0.00    +0.000 F 
ATOM     28  F   UNL     1       2.478  17.525  19.354  0.00  0.00    +0.000 F 
ATOM     29  F   UNL     1       4.282  16.337  19.117  0.00  0.00    +0.000 F 
ENDBRANCH  23  26
ENDBRANCH   1  20
TORSDOF 4
ENDMDL
MODEL 9
REMARK VINA RESULT:      -7.5      4.215      8.525
REMARK  Name = 
REMARK  5 active torsions:
REMARK  status: ('A' for Active; 'I' for Inactive)
REMARK    1  A    between atoms: C_1  and  N_2
REMARK    2  A    between atoms: C_4  and  C_5
REMARK    3  A    between atoms: C_5  and  N_6
REMARK    4  A    between atoms: C_5  and  C_13
REMARK    5  A    between atoms: C_16  and  C_17
REMARK                            x       y       z     vdW  Elec       q    Type
REMARK                         _______ _______ _______ _____ _____    ______ ____
ROOT
ATOM      1  C   UNL     1       0.167  11.535  18.848  0.00  0.00    +0.000 C 
ENDROOT
BRANCH   1   5
ATOM      2  C   UNL     1      -4.434  11.473  16.661  0.00  0.00    +0.000 C 
ATOM      3  N   UNL     1      -3.387  11.636  17.646  0.00  0.00    +0.000 N 
ATOM      4  C   UNL     1      -2.054  11.445  17.397  0.00  0.00    +0.000 A 
ATOM      5  C   UNL     1      -1.328  11.698  18.549  0.00  0.00    +0.000 A 
ATOM      6  C   UNL     1      -2.309  12.127  19.527  0.00  0.00    +0.000 A 
ATOM      7  C   UNL     1      -2.227  12.582  20.862  0.00  0.00    +0.000 A 
ATOM      8  C   UNL     1      -3.398  12.838  21.587  0.00  0.00    +0.000 A 
ATOM      9  C   UNL     1      -4.647  12.635  21.010  0.00  0.00    +0.000 A 
ATOM     10  C   UNL     1      -4.760  12.224  19.680  0.00  0.00    +0.000 A 
ATOM     11  C   UNL     1      -3.578  12.001  18.956  0.00  0.00    +0.000 A 
ENDBRANCH   1   5
BRANCH   1  12
ATOM     12  N   UNL     1       0.834  10.546  17.997  0.00  0.00    +0.000 N 
ATOM     13  C   UNL     1       1.340   9.403  18.628  0.00  0.00    +0.000 A 
ATOM     14  C   UNL     1       1.994   8.455  17.842  0.00  0.00    +0.000 A 
ATOM     15  C   UNL     1       2.461   7.273  18.418  0.00  0.00    +0.000 A 
ATOM     16  C   UNL     1       2.261   7.061  19.772  0.00  0.00    +0.000 A 
ATOM     17  C   UNL     1       1.599   8.041  20.486  0.00  0.00    +0.000 A 
ATOM     18  N   UNL     1       1.132   9.189  19.945  0.00  0.00    +0.000 NA
ATOM     19  H   UNL     1       1.540  10.970  17.413  0.00  0.00    +0.000 HD
ENDBRANCH   1  12
BRANCH   1  20
ATOM     20  C   UNL     1       0.858  12.899  18.710  0.00  0.00    +0.000 A 
ATOM     21  C   UNL     1       2.221  12.950  18.369  0.00  0.00    +0.000 A 
ATOM     22  C   UNL     1       2.878  14.174  18.193  0.00  0.00    +0.000 A 
ATOM     23  C   UNL     1       2.190  15.382  18.366  0.00  0.00    +0.000 A 
ATOM     24  C   UNL     1       0.829  15.343  18.689  0.00  0.00    +0.000 A 
ATOM     25  C   UNL     1       0.167  14.120  18.821  0.00  0.00    +0.000 A 
BRANCH  23  26
ATOM     26  C   UNL     1       2.878  16.713  18.191  0.00  0.00    +0.000 C 
ATOM     27  F   UNL     1       2.520  17.372  17.054  0.00  0.00    +0.000 F 
ATOM     28  F   UNL     1       2.617  17.572  19.216  0.00  0.00    +0.000 F 
ATOM     29  F   UNL     1       4.235  16.595  18.143  0.00  0.00    +0.000 F 
ENDBRANCH  23  26
ENDBRANCH   1  20
TORSDOF 4
ENDMDL
