MODEL 1
REMARK VINA RESULT:      -8.5      0.000      0.000
REMARK  Name = 
REMARK  3 active torsions:
REMARK  status: ('A' for Active; 'I' for Inactive)
REMARK    1  A    between atoms: N_3  and  C_4
REMARK    2  A    between atoms: N_11  and  C_12
REMARK    3  A    between atoms: C_16  and  C_17
REMARK                            x       y       z     vdW  Elec       q    Type
REMARK                         _______ _______ _______ _____ _____    ______ ____
ROOT
ATOM      1  C   UNL     1       7.223   6.192  17.597  0.00  0.00    +0.000 A 
ATOM      2  C   UNL     1       7.537   5.833  16.285  0.00  0.00    +0.000 A 
ATOM      3  C   UNL     1       6.725   4.956  15.574  0.00  0.00    +0.000 A 
ATOM      4  C   UNL     1       5.572   4.444  16.160  0.00  0.00    +0.000 A 
ATOM      5  C   UNL     1       5.200   4.796  17.471  0.00  0.00    +0.000 A 
ATOM      6  C   UNL     1       6.050   5.681  18.174  0.00  0.00    +0.000 A 
ENDROOT
BRANCH   5   7
ATOM      7  C   UNL     1       3.957   4.258  18.076  0.00  0.00    +0.000 A 
ATOM      8  C   UNL     1       2.733   4.278  17.382  0.00  0.00    +0.000 A 
ATOM      9  C   UNL     1       1.548   3.820  17.972  0.00  0.00    +0.000 A 
ATOM     10  C   UNL     1       1.564   3.307  19.267  0.00  0.00    +0.000 A 
ATOM     11 CL   UNL     1       0.068   2.766  19.940  0.00  0.00    +0.000 Cl
ATOM     12  C   UNL     1       2.769   3.252  19.970  0.00  0.00    +0.000 A 
ATOM     13 CL   UNL     1       2.879   2.616  21.573  0.00  0.00    +0.000 Cl
ATOM     14  C   UNL     1       3.946   3.730  19.380  0.00  0.00    +0.000 A 
ENDBRANCH   5   7
BRANCH   1  18
ATOM     15  O   UNL     1       7.468   9.062  17.443  0.00  0.00    +0.000 OA
ATOM     16  C   UNL     1       8.125   8.417  18.250  0.00  0.00    +0.000 C 
ATOM     17  N   UNL     1       9.078   8.971  19.088  0.00  0.00    +0.000 N 
ATOM     18  N   UNL     1       8.040   7.040  18.386  0.00  0.00    +0.000 N 
ATOM     19  H   UNL     1       9.706   8.336  19.554  0.00  0.00    +0.000 HD
ATOM     20  H   UNL     1       8.699   6.590  19.002  0.00  0.00    +0.000 HD
BRANCH  17  21
ATOM     21  C   UNL     1       9.437  10.340  19.096  0.00  0.00    +0.000 A 
ATOM     22  C   UNL     1       9.848  11.032  17.950  0.00  0.00    +0.000 A 
ATOM     23  C   UNL     1      10.308  12.348  18.028  0.00  0.00    +0.000 A 
ATOM     24  C   UNL     1      10.336  12.993  19.258  0.00  0.00    +0.000 A 
ATOM     25 CL   UNL     1      10.956  14.594  19.366  0.00  0.00    +0.000 Cl
ATOM     26  C   UNL     1       9.873  12.343  20.399  0.00  0.00    +0.000 A 
ATOM     27  C   UNL     1       9.414  11.021  20.317  0.00  0.00    +0.000 A 
ENDBRANCH  17  21
ENDBRANCH   1  18
TORSDOF 3
ENDMDL
MODEL 2
REMARK VINA RESULT:      -8.4      1.181      1.492
REMARK  Name = 
REMARK  3 active torsions:
REMARK  status: ('A' for Active; 'I' for Inactive)
REMARK    1  A    between atoms: N_3  and  C_4
REMARK    2  A    between atoms: N_11  and  C_12
REMARK    3  A    between atoms: C_16  and  C_17
REMARK                            x       y       z     vdW  Elec       q    Type
REMARK                         _______ _______ _______ _____ _____    ______ ____
ROOT
ATOM      1  C   UNL     1       7.527   6.620  18.061  0.00  0.00    +0.000 A 
ATOM      2  C   UNL     1       7.620   6.246  16.719  0.00  0.00    +0.000 A 
ATOM      3  C   UNL     1       6.757   5.298  16.182  0.00  0.00    +0.000 A 
ATOM      4  C   UNL     1       5.770   4.725  16.979  0.00  0.00    +0.000 A 
ATOM      5  C   UNL     1       5.620   5.087  18.331  0.00  0.00    +0.000 A 
ATOM      6  C   UNL     1       6.519   6.047  18.851  0.00  0.00    +0.000 A 
ENDROOT
BRANCH   5   7
ATOM      7  C   UNL     1       4.551   4.483  19.163  0.00  0.00    +0.000 A 
ATOM      8  C   UNL     1       4.569   3.117  19.505  0.00  0.00    +0.000 A 
ATOM      9  C   UNL     1       3.533   2.533  20.244  0.00  0.00    +0.000 A 
ATOM     10  C   UNL     1       2.462   3.308  20.681  0.00  0.00    +0.000 A 
ATOM     11 CL   UNL     1       1.213   2.527  21.582  0.00  0.00    +0.000 Cl
ATOM     12  C   UNL     1       2.430   4.670  20.377  0.00  0.00    +0.000 A 
ATOM     13 CL   UNL     1       1.147   5.707  20.895  0.00  0.00    +0.000 Cl
ATOM     14  C   UNL     1       3.461   5.244  19.621  0.00  0.00    +0.000 A 
ENDBRANCH   5   7
BRANCH   1  18
ATOM     15  O   UNL     1       7.609   9.483  17.727  0.00  0.00    +0.000 OA
ATOM     16  C   UNL     1       8.409   8.912  18.456  0.00  0.00    +0.000 C 
ATOM     17  N   UNL     1       9.450   9.550  19.111  0.00  0.00    +0.000 N 
ATOM     18  N   UNL     1       8.411   7.543  18.673  0.00  0.00    +0.000 N 
ATOM     19  H   UNL     1      10.170   8.968  19.508  0.00  0.00    +0.000 HD
ATOM     20  H   UNL     1       9.176   7.155  19.203  0.00  0.00    +0.000 HD
BRANCH  17  21
ATOM     21  C   UNL     1       9.741  10.931  18.995  0.00  0.00    +0.000 A 
ATOM     22  C   UNL     1      10.288  11.505  17.842  0.00  0.00    +0.000 A 
ATOM     23  C   UNL     1      10.670  12.848  17.817  0.00  0.00    +0.000 A 
ATOM     24  C   UNL     1      10.481  13.636  18.945  0.00  0.00    +0.000 A 
ATOM     25 CL   UNL     1      11.004  15.275  18.936  0.00  0.00    +0.000 Cl
ATOM     26  C   UNL     1       9.881  13.099  20.081  0.00  0.00    +0.000 A 
ATOM     27  C   UNL     1       9.501  11.750  20.103  0.00  0.00    +0.000 A 
ENDBRANCH  17  21
ENDBRANCH   1  18
TORSDOF 3
ENDMDL
MODEL 3
REMARK VINA RESULT:      -8.4      0.865      1.321
REMARK  Name = 
REMARK  3 active torsions:
REMARK  status: ('A' for Active; 'I' for Inactive)
REMARK    1  A    between atoms: N_3  and  C_4
REMARK    2  A    between atoms: N_11  and  C_12
REMARK    3  A    between atoms: C_16  and  C_17
REMARK                            x       y       z     vdW  Elec       q    Type
REMARK                         _______ _______ _______ _____ _____    ______ ____
ROOT
ATOM      1  C   UNL     1       7.257   6.256  17.492  0.00  0.00    +0.000 A 
ATOM      2  C   UNL     1       7.578   6.002  16.157  0.00  0.00    +0.000 A 
ATOM      3  C   UNL     1       6.792   5.154  15.385  0.00  0.00    +0.000 A 
ATOM      4  C   UNL     1       5.657   4.565  15.935  0.00  0.00    +0.000 A 
ATOM      5  C   UNL     1       5.278   4.809  17.268  0.00  0.00    +0.000 A 
ATOM      6  C   UNL     1       6.102   5.668  18.031  0.00  0.00    +0.000 A 
ENDROOT
BRANCH   5   7
ATOM      7  C   UNL     1       4.056   4.190  17.833  0.00  0.00    +0.000 A 
ATOM      8  C   UNL     1       3.555   2.968  17.343  0.00  0.00    +0.000 A 
ATOM      9  C   UNL     1       2.372   2.409  17.839  0.00  0.00    +0.000 A 
ATOM     10  C   UNL     1       1.668   3.048  18.857  0.00  0.00    +0.000 A 
ATOM     11 CL   UNL     1       0.211   2.311  19.420  0.00  0.00    +0.000 Cl
ATOM     12  C   UNL     1       2.154   4.248  19.379  0.00  0.00    +0.000 A 
ATOM     13 CL   UNL     1       1.353   5.097  20.655  0.00  0.00    +0.000 Cl
ATOM     14  C   UNL     1       3.329   4.811  18.865  0.00  0.00    +0.000 A 
ENDBRANCH   5   7
BRANCH   1  18
ATOM     15  O   UNL     1       7.460   9.133  17.500  0.00  0.00    +0.000 OA
ATOM     16  C   UNL     1       8.115   8.454  18.281  0.00  0.00    +0.000 C 
ATOM     17  N   UNL     1       9.048   8.974  19.163  0.00  0.00    +0.000 N 
ATOM     18  N   UNL     1       8.049   7.071  18.339  0.00  0.00    +0.000 N 
ATOM     19  H   UNL     1       9.678   8.324  19.603  0.00  0.00    +0.000 HD
ATOM     20  H   UNL     1       8.706   6.596  18.940  0.00  0.00    +0.000 HD
BRANCH  17  21
ATOM     21  C   UNL     1       9.386  10.346  19.252  0.00  0.00    +0.000 A 
ATOM     22  C   UNL     1       9.355  11.068  20.451  0.00  0.00    +0.000 A 
ATOM     23  C   UNL     1       9.580  12.446  20.469  0.00  0.00    +0.000 A 
ATOM     24  C   UNL     1       9.863  13.111  19.283  0.00  0.00    +0.000 A 
ATOM     25 CL   UNL     1      10.082  14.816  19.295  0.00  0.00    +0.000 Cl
ATOM     26  C   UNL     1       9.959  12.400  18.089  0.00  0.00    +0.000 A 
ATOM     27  C   UNL     1       9.731  11.018  18.074  0.00  0.00    +0.000 A 
ENDBRANCH  17  21
ENDBRANCH   1  18
TORSDOF 3
ENDMDL
MODEL 4
REMARK VINA RESULT:      -8.1      7.764      8.833
REMARK  Name = 
REMARK  3 active torsions:
REMARK  status: ('A' for Active; 'I' for Inactive)
REMARK    1  A    between atoms: N_3  and  C_4
REMARK    2  A    between atoms: N_11  and  C_12
REMARK    3  A    between atoms: C_16  and  C_17
REMARK                            x       y       z     vdW  Elec       q    Type
REMARK                         _______ _______ _______ _____ _____    ______ ____
ROOT
ATOM      1  C   UNL     1       1.162   9.342  20.160  0.00  0.00    +0.000 A 
ATOM      2  C   UNL     1       1.284  10.080  18.982  0.00  0.00    +0.000 A 
ATOM      3  C   UNL     1       1.837   9.511  17.840  0.00  0.00    +0.000 A 
ATOM      4  C   UNL     1       2.255   8.184  17.856  0.00  0.00    +0.000 A 
ATOM      5  C   UNL     1       2.130   7.391  19.011  0.00  0.00    +0.000 A 
ATOM      6  C   UNL     1       1.573   8.000  20.161  0.00  0.00    +0.000 A 
ENDROOT
BRANCH   5   7
ATOM      7  C   UNL     1       2.561   5.973  19.008  0.00  0.00    +0.000 A 
ATOM      8  C   UNL     1       3.175   5.394  17.881  0.00  0.00    +0.000 A 
ATOM      9  C   UNL     1       3.534   4.041  17.856  0.00  0.00    +0.000 A 
ATOM     10  C   UNL     1       3.308   3.236  18.970  0.00  0.00    +0.000 A 
ATOM     11 CL   UNL     1       3.765   1.573  18.872  0.00  0.00    +0.000 Cl
ATOM     12  C   UNL     1       2.722   3.789  20.110  0.00  0.00    +0.000 A 
ATOM     13 CL   UNL     1       2.422   2.866  21.540  0.00  0.00    +0.000 Cl
ATOM     14  C   UNL     1       2.349   5.139  20.120  0.00  0.00    +0.000 A 
ENDBRANCH   5   7
BRANCH   1  18
ATOM     15  O   UNL     1      -1.005  11.216  20.487  0.00  0.00    +0.000 OA
ATOM     16  C   UNL     1      -0.384  10.799  21.455  0.00  0.00    +0.000 C 
ATOM     17  N   UNL     1      -0.598  11.229  22.754  0.00  0.00    +0.000 N 
ATOM     18  N   UNL     1       0.655   9.885  21.367  0.00  0.00    +0.000 N 
ATOM     19  H   UNL     1       0.100  10.988  23.440  0.00  0.00    +0.000 HD
ATOM     20  H   UNL     1       1.174   9.685  22.208  0.00  0.00    +0.000 HD
BRANCH  17  21
ATOM     21  C   UNL     1      -1.534  12.225  23.123  0.00  0.00    +0.000 A 
ATOM     22  C   UNL     1      -2.863  11.942  23.460  0.00  0.00    +0.000 A 
ATOM     23  C   UNL     1      -3.780  12.967  23.699  0.00  0.00    +0.000 A 
ATOM     24  C   UNL     1      -3.364  14.291  23.627  0.00  0.00    +0.000 A 
ATOM     25 CL   UNL     1      -4.506  15.555  23.863  0.00  0.00    +0.000 Cl
ATOM     26  C   UNL     1      -2.032  14.591  23.353  0.00  0.00    +0.000 A 
ATOM     27  C   UNL     1      -1.115  13.560  23.112  0.00  0.00    +0.000 A 
ENDBRANCH  17  21
ENDBRANCH   1  18
TORSDOF 3
ENDMDL
MODEL 5
REMARK VINA RESULT:      -8.0      7.960      9.027
REMARK  Name = 
REMARK  3 active torsions:
REMARK  status: ('A' for Active; 'I' for Inactive)
REMARK    1  A    between atoms: N_3  and  C_4
REMARK    2  A    between atoms: N_11  and  C_12
REMARK    3  A    between atoms: C_16  and  C_17
REMARK                            x       y       z     vdW  Elec       q    Type
REMARK                         _______ _______ _______ _____ _____    ______ ____
ROOT
ATOM      1  C   UNL     1       0.978   9.358  20.455  0.00  0.00    +0.000 A 
ATOM      2  C   UNL     1       1.039  10.000  19.217  0.00  0.00    +0.000 A 
ATOM      3  C   UNL     1       1.658   9.393  18.130  0.00  0.00    +0.000 A 
ATOM      4  C   UNL     1       2.205   8.120  18.262  0.00  0.00    +0.000 A 
ATOM      5  C   UNL     1       2.146   7.421  19.482  0.00  0.00    +0.000 A 
ATOM      6  C   UNL     1       1.519   8.068  20.573  0.00  0.00    +0.000 A 
ENDROOT
BRANCH   5   7
ATOM      7  C   UNL     1       2.715   6.057  19.603  0.00  0.00    +0.000 A 
ATOM      8  C   UNL     1       3.834   5.658  18.846  0.00  0.00    +0.000 A 
ATOM      9  C   UNL     1       4.340   4.355  18.919  0.00  0.00    +0.000 A 
ATOM     10  C   UNL     1       3.752   3.421  19.770  0.00  0.00    +0.000 A 
ATOM     11 CL   UNL     1       4.418   1.829  19.806  0.00  0.00    +0.000 Cl
ATOM     12  C   UNL     1       2.656   3.797  20.549  0.00  0.00    +0.000 A 
ATOM     13 CL   UNL     1       1.879   2.707  21.642  0.00  0.00    +0.000 Cl
ATOM     14  C   UNL     1       2.144   5.098  20.457  0.00  0.00    +0.000 A 
ENDBRANCH   5   7
BRANCH   1  18
ATOM     15  O   UNL     1      -1.015  11.439  20.576  0.00  0.00    +0.000 OA
ATOM     16  C   UNL     1      -0.541  10.962  21.599  0.00  0.00    +0.000 C 
ATOM     17  N   UNL     1      -0.844  11.412  22.873  0.00  0.00    +0.000 N 
ATOM     18  N   UNL     1       0.405   9.949  21.608  0.00  0.00    +0.000 N 
ATOM     19  H   UNL     1      -0.247  11.103  23.624  0.00  0.00    +0.000 HD
ATOM     20  H   UNL     1       0.813   9.699  22.496  0.00  0.00    +0.000 HD
BRANCH  17  21
ATOM     21  C   UNL     1      -1.709  12.497  23.154  0.00  0.00    +0.000 A 
ATOM     22  C   UNL     1      -1.272  13.824  23.241  0.00  0.00    +0.000 A 
ATOM     23  C   UNL     1      -2.138  14.844  23.638  0.00  0.00    +0.000 A 
ATOM     24  C   UNL     1      -3.463  14.544  23.929  0.00  0.00    +0.000 A 
ATOM     25 CL   UNL     1      -4.517  15.789  24.475  0.00  0.00    +0.000 Cl
ATOM     26  C   UNL     1      -3.932  13.240  23.789  0.00  0.00    +0.000 A 
ATOM     27  C   UNL     1      -3.059  12.219  23.391  0.00  0.00    +0.000 A 
ENDBRANCH  17  21
ENDBRANCH   1  18
TORSDOF 3
ENDMDL
MODEL 6
REMARK VINA RESULT:      -7.9      1.402      1.901
REMARK  Name = 
REMARK  3 active torsions:
REMARK  status: ('A' for Active; 'I' for Inactive)
REMARK    1  A    between atoms: N_3  and  C_4
REMARK    2  A    between atoms: N_11  and  C_12
REMARK    3  A    between atoms: C_16  and  C_17
REMARK                            x       y       z     vdW  Elec       q    Type
REMARK                         _______ _______ _______ _____ _____    ______ ____
ROOT
ATOM      1  C   UNL     1       6.559   6.301  16.608  0.00  0.00    +0.000 A 
ATOM      2  C   UNL     1       6.985   5.370  15.659  0.00  0.00    +0.000 A 
ATOM      3  C   UNL     1       6.561   4.047  15.718  0.00  0.00    +0.000 A 
ATOM      4  C   UNL     1       5.683   3.643  16.719  0.00  0.00    +0.000 A 
ATOM      5  C   UNL     1       5.206   4.549  17.685  0.00  0.00    +0.000 A 
ATOM      6  C   UNL     1       5.662   5.885  17.604  0.00  0.00    +0.000 A 
ENDROOT
BRANCH   5   7
ATOM      7  C   UNL     1       4.255   4.107  18.734  0.00  0.00    +0.000 A 
ATOM      8  C   UNL     1       4.220   2.772  19.180  0.00  0.00    +0.000 A 
ATOM      9  C   UNL     1       3.287   2.342  20.131  0.00  0.00    +0.000 A 
ATOM     10  C   UNL     1       2.378   3.244  20.679  0.00  0.00    +0.000 A 
ATOM     11 CL   UNL     1       1.249   2.649  21.841  0.00  0.00    +0.000 Cl
ATOM     12  C   UNL     1       2.406   4.580  20.272  0.00  0.00    +0.000 A 
ATOM     13 CL   UNL     1       1.326   5.767  20.914  0.00  0.00    +0.000 Cl
ATOM     14  C   UNL     1       3.330   4.999  19.306  0.00  0.00    +0.000 A 
ENDBRANCH   5   7
BRANCH   1  18
ATOM     15  O   UNL     1       8.291   7.575  18.530  0.00  0.00    +0.000 OA
ATOM     16  C   UNL     1       7.821   8.205  17.592  0.00  0.00    +0.000 C 
ATOM     17  N   UNL     1       8.003   9.566  17.408  0.00  0.00    +0.000 N 
ATOM     18  N   UNL     1       6.999   7.648  16.626  0.00  0.00    +0.000 N 
ATOM     19  H   UNL     1       7.407  10.024  16.737  0.00  0.00    +0.000 HD
ATOM     20  H   UNL     1       6.575   8.272  15.956  0.00  0.00    +0.000 HD
BRANCH  17  21
ATOM     21  C   UNL     1       8.722  10.404  18.294  0.00  0.00    +0.000 A 
ATOM     22  C   UNL     1       9.110  10.008  19.579  0.00  0.00    +0.000 A 
ATOM     23  C   UNL     1       9.712  10.909  20.460  0.00  0.00    +0.000 A 
ATOM     24  C   UNL     1       9.952  12.214  20.050  0.00  0.00    +0.000 A 
ATOM     25 CL   UNL     1      10.639  13.341  21.153  0.00  0.00    +0.000 Cl
ATOM     26  C   UNL     1       9.629  12.610  18.754  0.00  0.00    +0.000 A 
ATOM     27  C   UNL     1       9.025  11.704  17.873  0.00  0.00    +0.000 A 
ENDBRANCH  17  21
ENDBRANCH   1  18
TORSDOF 3
ENDMDL
MODEL 7
REMARK VINA RESULT:      -7.9      0.995      1.260
REMARK  Name = 
REMARK  3 active torsions:
REMARK  status: ('A' for Active; 'I' for Inactive)
REMARK    1  A    between atoms: N_3  and  C_4
REMARK    2  A    between atoms: N_11  and  C_12
REMARK    3  A    between atoms: C_16  and  C_17
REMARK                            x       y       z     vdW  Elec       q    Type
REMARK                         _______ _______ _______ _____ _____    ______ ____
ROOT
ATOM      1  C   UNL     1       7.385   6.701  17.830  0.00  0.00    +0.000 A 
ATOM      2  C   UNL     1       7.538   6.378  16.480  0.00  0.00    +0.000 A 
ATOM      3  C   UNL     1       6.654   5.509  15.852  0.00  0.00    +0.000 A 
ATOM      4  C   UNL     1       5.587   4.967  16.563  0.00  0.00    +0.000 A 
ATOM      5  C   UNL     1       5.376   5.282  17.918  0.00  0.00    +0.000 A 
ATOM      6  C   UNL     1       6.297   6.161  18.533  0.00  0.00    +0.000 A 
ENDROOT
BRANCH   5   7
ATOM      7  C   UNL     1       4.223   4.713  18.657  0.00  0.00    +0.000 A 
ATOM      8  C   UNL     1       3.638   5.393  19.743  0.00  0.00    +0.000 A 
ATOM      9  C   UNL     1       2.585   4.833  20.476  0.00  0.00    +0.000 A 
ATOM     10  C   UNL     1       2.073   3.585  20.126  0.00  0.00    +0.000 A 
ATOM     11 CL   UNL     1       0.780   2.947  21.075  0.00  0.00    +0.000 Cl
ATOM     12  C   UNL     1       2.619   2.899  19.039  0.00  0.00    +0.000 A 
ATOM     13 CL   UNL     1       2.033   1.356  18.528  0.00  0.00    +0.000 Cl
ATOM     14  C   UNL     1       3.685   3.458  18.322  0.00  0.00    +0.000 A 
ENDBRANCH   5   7
BRANCH   1  18
ATOM     15  O   UNL     1       7.609   9.573  17.689  0.00  0.00    +0.000 OA
ATOM     16  C   UNL     1       8.353   8.919  18.408  0.00  0.00    +0.000 C 
ATOM     17  N   UNL     1       9.394   9.464  19.141  0.00  0.00    +0.000 N 
ATOM     18  N   UNL     1       8.285   7.540  18.533  0.00  0.00    +0.000 N 
ATOM     19  H   UNL     1      10.071   8.824  19.525  0.00  0.00    +0.000 HD
ATOM     20  H   UNL     1       9.009   7.083  19.065  0.00  0.00    +0.000 HD
BRANCH  17  21
ATOM     21  C   UNL     1       9.750  10.833  19.128  0.00  0.00    +0.000 A 
ATOM     22  C   UNL     1      10.361  11.456  18.033  0.00  0.00    +0.000 A 
ATOM     23  C   UNL     1      10.803  12.779  18.110  0.00  0.00    +0.000 A 
ATOM     24  C   UNL     1      10.614  13.499  19.283  0.00  0.00    +0.000 A 
ATOM     25 CL   UNL     1      11.210  15.107  19.399  0.00  0.00    +0.000 Cl
ATOM     26  C   UNL     1       9.953  12.916  20.361  0.00  0.00    +0.000 A 
ATOM     27  C   UNL     1       9.512  11.589  20.281  0.00  0.00    +0.000 A 
ENDBRANCH  17  21
ENDBRANCH   1  18
TORSDOF 3
ENDMDL
MODEL 8
REMARK VINA RESULT:      -7.8      7.691      9.765
REMARK  Name = 
REMARK  3 active torsions:
REMARK  status: ('A' for Active; 'I' for Inactive)
REMARK    1  A    between atoms: N_3  and  C_4
REMARK    2  A    between atoms: N_11  and  C_12
REMARK    3  A    between atoms: C_16  and  C_17
REMARK                            x       y       z     vdW  Elec       q    Type
REMARK                         _______ _______ _______ _____ _____    ______ ____
ROOT
ATOM      1  C   UNL     1       0.672  10.544  19.066  0.00  0.00    +0.000 A 
ATOM      2  C   UNL     1       1.380  11.744  18.983  0.00  0.00    +0.000 A 
ATOM      3  C   UNL     1       0.722  12.944  18.739  0.00  0.00    +0.000 A 
ATOM      4  C   UNL     1      -0.662  12.962  18.597  0.00  0.00    +0.000 A 
ATOM      5  C   UNL     1      -1.423  11.783  18.697  0.00  0.00    +0.000 A 
ATOM      6  C   UNL     1      -0.725  10.576  18.936  0.00  0.00    +0.000 A 
ENDROOT
BRANCH   5   7
ATOM      7  C   UNL     1      -2.900  11.821  18.564  0.00  0.00    +0.000 A 
ATOM      8  C   UNL     1      -3.542  11.404  17.382  0.00  0.00    +0.000 A 
ATOM      9  C   UNL     1      -4.932  11.490  17.235  0.00  0.00    +0.000 A 
ATOM     10  C   UNL     1      -5.719  11.974  18.277  0.00  0.00    +0.000 A 
ATOM     11 CL   UNL     1      -7.425  12.061  18.029  0.00  0.00    +0.000 Cl
ATOM     12  C   UNL     1      -5.110  12.372  19.469  0.00  0.00    +0.000 A 
ATOM     13 CL   UNL     1      -6.013  12.967  20.818  0.00  0.00    +0.000 Cl
ATOM     14  C   UNL     1      -3.718  12.301  19.603  0.00  0.00    +0.000 A 
ENDBRANCH   5   7
BRANCH   1  18
ATOM     15  O   UNL     1       2.324   9.077  17.213  0.00  0.00    +0.000 OA
ATOM     16  C   UNL     1       2.067   8.624  18.321  0.00  0.00    +0.000 C 
ATOM     17  N   UNL     1       2.463   7.369  18.753  0.00  0.00    +0.000 N 
ATOM     18  N   UNL     1       1.295   9.287  19.262  0.00  0.00    +0.000 N 
ATOM     19  H   UNL     1       2.024   7.010  19.586  0.00  0.00    +0.000 HD
ATOM     20  H   UNL     1       1.050   8.786  20.102  0.00  0.00    +0.000 HD
BRANCH  17  21
ATOM     21  C   UNL     1       3.183   6.442  17.963  0.00  0.00    +0.000 A 
ATOM     22  C   UNL     1       2.837   5.089  17.862  0.00  0.00    +0.000 A 
ATOM     23  C   UNL     1       3.647   4.188  17.167  0.00  0.00    +0.000 A 
ATOM     24  C   UNL     1       4.802   4.642  16.544  0.00  0.00    +0.000 A 
ATOM     25 CL   UNL     1       5.831   3.524  15.739  0.00  0.00    +0.000 Cl
ATOM     26  C   UNL     1       5.130   5.995  16.582  0.00  0.00    +0.000 A 
ATOM     27  C   UNL     1       4.316   6.896  17.281  0.00  0.00    +0.000 A 
ENDBRANCH  17  21
ENDBRANCH   1  18
TORSDOF 3
ENDMDL
MODEL 9
REMARK VINA RESULT:      -7.8      8.040      9.168
REMARK  Name = 
REMARK  3 active torsions:
REMARK  status: ('A' for Active; 'I' for Inactive)
REMARK    1  A    between atoms: N_3  and  C_4
REMARK    2  A    between atoms: N_11  and  C_12
REMARK    3  A    between atoms: C_16  and  C_17
REMARK                            x       y       z     vdW  Elec       q    Type
REMARK                         _______ _______ _______ _____ _____    ______ ____
ROOT
ATOM      1  C   UNL     1       1.044   9.608  20.284  0.00  0.00    +0.000 A 
ATOM      2  C   UNL     1       1.130  10.328  19.091  0.00  0.00    +0.000 A 
ATOM      3  C   UNL     1       1.677   9.752  17.949  0.00  0.00    +0.000 A 
ATOM      4  C   UNL     1       2.126   8.435  17.981  0.00  0.00    +0.000 A 
ATOM      5  C   UNL     1       2.038   7.660  19.152  0.00  0.00    +0.000 A 
ATOM      6  C   UNL     1       1.486   8.276  20.300  0.00  0.00    +0.000 A 
ENDROOT
BRANCH   5   7
ATOM      7  C   UNL     1       2.502   6.252  19.166  0.00  0.00    +0.000 A 
ATOM      8  C   UNL     1       2.198   5.388  20.235  0.00  0.00    +0.000 A 
ATOM      9  C   UNL     1       2.681   4.074  20.275  0.00  0.00    +0.000 A 
ATOM     10  C   UNL     1       3.463   3.583  19.232  0.00  0.00    +0.000 A 
ATOM     11 CL   UNL     1       4.034   1.957  19.346  0.00  0.00    +0.000 Cl
ATOM     12  C   UNL     1       3.761   4.411  18.148  0.00  0.00    +0.000 A 
ATOM     13 CL   UNL     1       4.710   3.876  16.806  0.00  0.00    +0.000 Cl
ATOM     14  C   UNL     1       3.290   5.730  18.124  0.00  0.00    +0.000 A 
ENDBRANCH   5   7
BRANCH   1  18
ATOM     15  O   UNL     1      -1.247  11.326  20.629  0.00  0.00    +0.000 OA
ATOM     16  C   UNL     1      -0.558  10.996  21.586  0.00  0.00    +0.000 C 
ATOM     17  N   UNL     1      -0.754  11.461  22.876  0.00  0.00    +0.000 N 
ATOM     18  N   UNL     1       0.543  10.160  21.489  0.00  0.00    +0.000 N 
ATOM     19  H   UNL     1      -0.013  11.302  23.540  0.00  0.00    +0.000 HD
ATOM     20  H   UNL     1       1.109  10.034  22.314  0.00  0.00    +0.000 HD
BRANCH  17  21
ATOM     21  C   UNL     1      -1.748  12.398  23.245  0.00  0.00    +0.000 A 
ATOM     22  C   UNL     1      -3.073  12.042  23.522  0.00  0.00    +0.000 A 
ATOM     23  C   UNL     1      -4.046  13.014  23.764  0.00  0.00    +0.000 A 
ATOM     24  C   UNL     1      -3.691  14.357  23.755  0.00  0.00    +0.000 A 
ATOM     25 CL   UNL     1      -4.899  15.558  23.995  0.00  0.00    +0.000 Cl
ATOM     26  C   UNL     1      -2.366  14.729  23.543  0.00  0.00    +0.000 A 
ATOM     27  C   UNL     1      -1.393  13.751  23.299  0.00  0.00    +0.000 A 
ENDBRANCH  17  21
ENDBRANCH   1  18
TORSDOF 3
ENDMDL
