MODEL 1
REMARK VINA RESULT:      -7.2      0.000      0.000
REMARK  Name = 
REMARK  5 active torsions:
REMARK  status: ('A' for Active; 'I' for Inactive)
REMARK    1  A    between atoms: C_1  and  O_2
REMARK    2  A    between atoms: O_2  and  C_3
REMARK    3  A    between atoms: C_6  and  C_7
REMARK    4  A    between atoms: C_7  and  C_8
REMARK    5  A    between atoms: N_15  and  C_16
REMARK                            x       y       z     vdW  Elec       q    Type
REMARK                         _______ _______ _______ _____ _____    ______ ____
ROOT
ATOM      1  C   UNL     1       2.498   7.526  18.698  0.00  0.00    +0.000 A 
ATOM      2  N   UNL     1       2.539   8.139  17.524  0.00  0.00    +0.000 NA
ATOM      3  N   UNL     1       1.839   9.326  17.619  0.00  0.00    +0.000 NA
ATOM      4  C   UNL     1       1.392   9.397  18.843  0.00  0.00    +0.000 A 
ATOM      5  C   UNL     1       0.633  10.422  19.545  0.00  0.00    +0.000 A 
ATOM      6  C   UNL     1       0.094  11.671  19.272  0.00  0.00    +0.000 A 
ATOM      7  N   UNL     1      -0.522  12.175  20.352  0.00  0.00    +0.000 NA
ATOM      8  N   UNL     1      -0.361  11.216  21.302  0.00  0.00    +0.000 N 
ATOM      9  C   UNL     1      -0.936  11.399  22.612  0.00  0.00    +0.000 C 
ATOM     10  C   UNL     1       0.354  10.129  20.862  0.00  0.00    +0.000 A 
ATOM     11  N   UNL     1       0.697   9.015  21.581  0.00  0.00    +0.000 NA
ATOM     12  C   UNL     1       1.391   8.120  20.910  0.00  0.00    +0.000 A 
ATOM     13  N   UNL     1       1.752   8.287  19.564  0.00  0.00    +0.000 N 
ENDROOT
BRANCH   1  14
ATOM     14  C   UNL     1       3.202   6.262  19.049  0.00  0.00    +0.000 C 
BRANCH  14  18
ATOM     15  C   UNL     1       5.867   4.707  16.008  0.00  0.00    +0.000 A 
ATOM     16  C   UNL     1       6.148   5.918  16.641  0.00  0.00    +0.000 A 
ATOM     17  C   UNL     1       5.290   6.425  17.621  0.00  0.00    +0.000 A 
ATOM     18  C   UNL     1       4.116   5.739  17.964  0.00  0.00    +0.000 A 
ATOM     19  C   UNL     1       3.839   4.525  17.320  0.00  0.00    +0.000 A 
ATOM     20  C   UNL     1       4.707   4.014  16.348  0.00  0.00    +0.000 A 
BRANCH  15  22
ATOM     21  C   UNL     1       6.243   3.977  13.785  0.00  0.00    +0.000 C 
ATOM     22  O   UNL     1       6.774   4.324  15.058  0.00  0.00    +0.000 OA
ENDBRANCH  15  22
ENDBRANCH  14  18
ENDBRANCH   1  14
TORSDOF 3
ENDMDL
MODEL 2
REMARK VINA RESULT:      -7.2      0.183      1.038
REMARK  Name = 
REMARK  5 active torsions:
REMARK  status: ('A' for Active; 'I' for Inactive)
REMARK    1  A    between atoms: C_1  and  O_2
REMARK    2  A    between atoms: O_2  and  C_3
REMARK    3  A    between atoms: C_6  and  C_7
REMARK    4  A    between atoms: C_7  and  C_8
REMARK    5  A    between atoms: N_15  and  C_16
REMARK                            x       y       z     vdW  Elec       q    Type
REMARK                         _______ _______ _______ _____ _____    ______ ____
ROOT
ATOM      1  C   UNL     1       2.569   7.424  18.658  0.00  0.00    +0.000 A 
ATOM      2  N   UNL     1       2.602   8.029  17.480  0.00  0.00    +0.000 NA
ATOM      3  N   UNL     1       1.876   9.202  17.562  0.00  0.00    +0.000 NA
ATOM      4  C   UNL     1       1.422   9.272  18.784  0.00  0.00    +0.000 A 
ATOM      5  C   UNL     1       0.638  10.286  19.475  0.00  0.00    +0.000 A 
ATOM      6  C   UNL     1       0.074  11.522  19.190  0.00  0.00    +0.000 A 
ATOM      7  N   UNL     1      -0.557  12.020  20.263  0.00  0.00    +0.000 NA
ATOM      8  N   UNL     1      -0.379  11.072  21.222  0.00  0.00    +0.000 N 
ATOM      9  C   UNL     1      -0.965  11.252  22.528  0.00  0.00    +0.000 C 
ATOM     10  C   UNL     1       0.360   9.997  20.793  0.00  0.00    +0.000 A 
ATOM     11  N   UNL     1       0.724   8.896  21.522  0.00  0.00    +0.000 NA
ATOM     12  C   UNL     1       1.440   8.012  20.861  0.00  0.00    +0.000 A 
ATOM     13  N   UNL     1       1.803   8.176  19.515  0.00  0.00    +0.000 N 
ENDROOT
BRANCH   1  14
ATOM     14  C   UNL     1       3.299   6.178  19.021  0.00  0.00    +0.000 C 
BRANCH  14  18
ATOM     15  C   UNL     1       6.077   4.895  15.956  0.00  0.00    +0.000 A 
ATOM     16  C   UNL     1       4.882   4.205  16.158  0.00  0.00    +0.000 A 
ATOM     17  C   UNL     1       3.983   4.614  17.148  0.00  0.00    +0.000 A 
ATOM     18  C   UNL     1       4.282   5.707  17.974  0.00  0.00    +0.000 A 
ATOM     19  C   UNL     1       5.487   6.392  17.767  0.00  0.00    +0.000 A 
ATOM     20  C   UNL     1       6.379   5.988  16.767  0.00  0.00    +0.000 A 
BRANCH  15  22
ATOM     21  C   UNL     1       6.223   3.990  13.771  0.00  0.00    +0.000 C 
ATOM     22  O   UNL     1       6.878   4.391  14.968  0.00  0.00    +0.000 OA
ENDBRANCH  15  22
ENDBRANCH  14  18
ENDBRANCH   1  14
TORSDOF 3
ENDMDL
MODEL 3
REMARK VINA RESULT:      -7.2      1.832      3.381
REMARK  Name = 
REMARK  5 active torsions:
REMARK  status: ('A' for Active; 'I' for Inactive)
REMARK    1  A    between atoms: C_1  and  O_2
REMARK    2  A    between atoms: O_2  and  C_3
REMARK    3  A    between atoms: C_6  and  C_7
REMARK    4  A    between atoms: C_7  and  C_8
REMARK    5  A    between atoms: N_15  and  C_16
REMARK                            x       y       z     vdW  Elec       q    Type
REMARK                         _______ _______ _______ _____ _____    ______ ____
ROOT
ATOM      1  C   UNL     1       3.094   4.231  19.147  0.00  0.00    +0.000 A 
ATOM      2  N   UNL     1       2.832   3.888  20.399  0.00  0.00    +0.000 NA
ATOM      3  N   UNL     1       2.309   4.983  21.060  0.00  0.00    +0.000 NA
ATOM      4  C   UNL     1       2.272   5.957  20.191  0.00  0.00    +0.000 A 
ATOM      5  C   UNL     1       1.786   7.327  20.284  0.00  0.00    +0.000 A 
ATOM      6  C   UNL     1       1.193   8.146  21.234  0.00  0.00    +0.000 A 
ATOM      7  N   UNL     1       0.950   9.365  20.732  0.00  0.00    +0.000 NA
ATOM      8  N   UNL     1       1.405   9.293  19.452  0.00  0.00    +0.000 N 
ATOM      9  C   UNL     1       1.340  10.455  18.600  0.00  0.00    +0.000 C 
ATOM     10  C   UNL     1       1.912   8.060  19.125  0.00  0.00    +0.000 A 
ATOM     11  N   UNL     1       2.426   7.668  17.917  0.00  0.00    +0.000 NA
ATOM     12  C   UNL     1       2.843   6.421  17.876  0.00  0.00    +0.000 A 
ATOM     13  N   UNL     1       2.771   5.556  18.979  0.00  0.00    +0.000 N 
ENDROOT
BRANCH   1  14
ATOM     14  C   UNL     1       3.584   3.320  18.075  0.00  0.00    +0.000 C 
BRANCH  14  18
ATOM     15  C   UNL     1       6.829   5.016  15.761  0.00  0.00    +0.000 A 
ATOM     16  C   UNL     1       5.660   4.590  15.130  0.00  0.00    +0.000 A 
ATOM     17  C   UNL     1       4.611   4.040  15.873  0.00  0.00    +0.000 A 
ATOM     18  C   UNL     1       4.728   3.880  17.261  0.00  0.00    +0.000 A 
ATOM     19  C   UNL     1       5.908   4.306  17.886  0.00  0.00    +0.000 A 
ATOM     20  C   UNL     1       6.951   4.868  17.142  0.00  0.00    +0.000 A 
BRANCH  15  22
ATOM     21  C   UNL     1       7.676   5.169  13.553  0.00  0.00    +0.000 C 
ATOM     22  O   UNL     1       7.787   5.523  14.926  0.00  0.00    +0.000 OA
ENDBRANCH  15  22
ENDBRANCH  14  18
ENDBRANCH   1  14
TORSDOF 3
ENDMDL
MODEL 4
REMARK VINA RESULT:      -7.1      3.773      7.958
REMARK  Name = 
REMARK  5 active torsions:
REMARK  status: ('A' for Active; 'I' for Inactive)
REMARK    1  A    between atoms: C_1  and  O_2
REMARK    2  A    between atoms: O_2  and  C_3
REMARK    3  A    between atoms: C_6  and  C_7
REMARK    4  A    between atoms: C_7  and  C_8
REMARK    5  A    between atoms: N_15  and  C_16
REMARK                            x       y       z     vdW  Elec       q    Type
REMARK                         _______ _______ _______ _____ _____    ______ ____
ROOT
ATOM      1  C   UNL     1       0.787   9.562  19.820  0.00  0.00    +0.000 A 
ATOM      2  N   UNL     1       0.567   8.960  20.979  0.00  0.00    +0.000 NA
ATOM      3  N   UNL     1       1.275   7.774  21.006  0.00  0.00    +0.000 NA
ATOM      4  C   UNL     1       1.900   7.690  19.863  0.00  0.00    +0.000 A 
ATOM      5  C   UNL     1       2.826   6.701  19.330  0.00  0.00    +0.000 A 
ATOM      6  C   UNL     1       3.418   5.516  19.745  0.00  0.00    +0.000 A 
ATOM      7  N   UNL     1       4.225   5.023  18.794  0.00  0.00    +0.000 NA
ATOM      8  N   UNL     1       4.123   5.920  17.776  0.00  0.00    +0.000 N 
ATOM      9  C   UNL     1       4.840   5.693  16.545  0.00  0.00    +0.000 C 
ATOM     10  C   UNL     1       3.290   6.974  18.062  0.00  0.00    +0.000 A 
ATOM     11  N   UNL     1       2.997   8.042  17.256  0.00  0.00    +0.000 NA
ATOM     12  C   UNL     1       2.166   8.915  17.782  0.00  0.00    +0.000 A 
ATOM     13  N   UNL     1       1.617   8.770  19.066  0.00  0.00    +0.000 N 
ENDROOT
BRANCH   1  14
ATOM     14  C   UNL     1       0.284  10.906  19.424  0.00  0.00    +0.000 C 
BRANCH  14  18
ATOM     15  C   UNL     1      -3.594  10.928  17.494  0.00  0.00    +0.000 A 
ATOM     16  C   UNL     1      -3.349  11.750  18.594  0.00  0.00    +0.000 A 
ATOM     17  C   UNL     1      -2.100  11.744  19.222  0.00  0.00    +0.000 A 
ATOM     18  C   UNL     1      -1.081  10.891  18.774  0.00  0.00    +0.000 A 
ATOM     19  C   UNL     1      -1.338  10.066  17.670  0.00  0.00    +0.000 A 
ATOM     20  C   UNL     1      -2.585  10.082  17.036  0.00  0.00    +0.000 A 
BRANCH  15  22
ATOM     21  C   UNL     1      -5.596  12.183  17.308  0.00  0.00    +0.000 C 
ATOM     22  O   UNL     1      -4.858  11.013  16.976  0.00  0.00    +0.000 OA
ENDBRANCH  15  22
ENDBRANCH  14  18
ENDBRANCH   1  14
TORSDOF 3
ENDMDL
MODEL 5
REMARK VINA RESULT:      -7.1      1.864      3.025
REMARK  Name = 
REMARK  5 active torsions:
REMARK  status: ('A' for Active; 'I' for Inactive)
REMARK    1  A    between atoms: C_1  and  O_2
REMARK    2  A    between atoms: O_2  and  C_3
REMARK    3  A    between atoms: C_6  and  C_7
REMARK    4  A    between atoms: C_7  and  C_8
REMARK    5  A    between atoms: N_15  and  C_16
REMARK                            x       y       z     vdW  Elec       q    Type
REMARK                         _______ _______ _______ _____ _____    ______ ____
ROOT
ATOM      1  C   UNL     1       1.695   8.414  19.475  0.00  0.00    +0.000 A 
ATOM      2  N   UNL     1       1.938   7.702  20.566  0.00  0.00    +0.000 NA
ATOM      3  N   UNL     1       1.249   8.262  21.624  0.00  0.00    +0.000 NA
ATOM      4  C   UNL     1       0.613   9.296  21.147  0.00  0.00    +0.000 A 
ATOM      5  C   UNL     1      -0.303  10.246  21.763  0.00  0.00    +0.000 A 
ATOM      6  C   UNL     1      -0.871  10.467  23.010  0.00  0.00    +0.000 A 
ATOM      7  N   UNL     1      -1.680  11.536  22.986  0.00  0.00    +0.000 NA
ATOM      8  N   UNL     1      -1.604  11.980  21.703  0.00  0.00    +0.000 N 
ATOM      9  C   UNL     1      -2.332  13.162  21.308  0.00  0.00    +0.000 C 
ATOM     10  C   UNL     1      -0.786  11.214  20.910  0.00  0.00    +0.000 A 
ATOM     11  N   UNL     1      -0.519  11.390  19.578  0.00  0.00    +0.000 NA
ATOM     12  C   UNL     1       0.304  10.503  19.061  0.00  0.00    +0.000 A 
ATOM     13  N   UNL     1       0.869   9.459  19.809  0.00  0.00    +0.000 N 
ENDROOT
BRANCH   1  14
ATOM     14  C   UNL     1       2.172   8.097  18.100  0.00  0.00    +0.000 C 
BRANCH  14  18
ATOM     15  C   UNL     1       3.736   4.097  17.544  0.00  0.00    +0.000 A 
ATOM     16  C   UNL     1       2.376   4.296  17.784  0.00  0.00    +0.000 A 
ATOM     17  C   UNL     1       1.867   5.585  17.966  0.00  0.00    +0.000 A 
ATOM     18  C   UNL     1       2.720   6.697  17.941  0.00  0.00    +0.000 A 
ATOM     19  C   UNL     1       4.086   6.488  17.704  0.00  0.00    +0.000 A 
ATOM     20  C   UNL     1       4.590   5.197  17.509  0.00  0.00    +0.000 A 
BRANCH  15  22
ATOM     21  C   UNL     1       3.442   1.844  18.219  0.00  0.00    +0.000 C 
ATOM     22  O   UNL     1       4.114   2.790  17.396  0.00  0.00    +0.000 OA
ENDBRANCH  15  22
ENDBRANCH  14  18
ENDBRANCH   1  14
TORSDOF 3
ENDMDL
MODEL 6
REMARK VINA RESULT:      -7.1      3.788      5.387
REMARK  Name = 
REMARK  5 active torsions:
REMARK  status: ('A' for Active; 'I' for Inactive)
REMARK    1  A    between atoms: C_1  and  O_2
REMARK    2  A    between atoms: O_2  and  C_3
REMARK    3  A    between atoms: C_6  and  C_7
REMARK    4  A    between atoms: C_7  and  C_8
REMARK    5  A    between atoms: N_15  and  C_16
REMARK                            x       y       z     vdW  Elec       q    Type
REMARK                         _______ _______ _______ _____ _____    ______ ____
ROOT
ATOM      1  C   UNL     1       5.552   5.993  16.893  0.00  0.00    +0.000 A 
ATOM      2  N   UNL     1       4.851   7.099  16.695  0.00  0.00    +0.000 NA
ATOM      3  N   UNL     1       3.767   7.098  17.552  0.00  0.00    +0.000 NA
ATOM      4  C   UNL     1       3.840   5.991  18.241  0.00  0.00    +0.000 A 
ATOM      5  C   UNL     1       3.016   5.457  19.316  0.00  0.00    +0.000 A 
ATOM      6  C   UNL     1       1.893   5.836  20.037  0.00  0.00    +0.000 A 
ATOM      7  N   UNL     1       1.573   4.907  20.950  0.00  0.00    +0.000 NA
ATOM      8  N   UNL     1       2.514   3.940  20.783  0.00  0.00    +0.000 N 
ATOM      9  C   UNL     1       2.464   2.743  21.586  0.00  0.00    +0.000 C 
ATOM     10  C   UNL     1       3.431   4.237  19.804  0.00  0.00    +0.000 A 
ATOM     11  N   UNL     1       4.503   3.479  19.414  0.00  0.00    +0.000 NA
ATOM     12  C   UNL     1       5.225   4.006  18.448  0.00  0.00    +0.000 A 
ATOM     13  N   UNL     1       4.925   5.244  17.859  0.00  0.00    +0.000 N 
ENDROOT
BRANCH   1  14
ATOM     14  C   UNL     1       6.843   5.647  16.237  0.00  0.00    +0.000 C 
BRANCH  14  18
ATOM     15  C   UNL     1       6.370   3.678  12.409  0.00  0.00    +0.000 A 
ATOM     16  C   UNL     1       5.472   3.429  13.446  0.00  0.00    +0.000 A 
ATOM     17  C   UNL     1       5.622   4.060  14.684  0.00  0.00    +0.000 A 
ATOM     18  C   UNL     1       6.695   4.932  14.913  0.00  0.00    +0.000 A 
ATOM     19  C   UNL     1       7.596   5.174  13.867  0.00  0.00    +0.000 A 
ATOM     20  C   UNL     1       7.436   4.550  12.624  0.00  0.00    +0.000 A 
BRANCH  15  22
ATOM     21  C   UNL     1       5.833   1.606  11.392  0.00  0.00    +0.000 C 
ATOM     22  O   UNL     1       6.126   2.991  11.251  0.00  0.00    +0.000 OA
ENDBRANCH  15  22
ENDBRANCH  14  18
ENDBRANCH   1  14
TORSDOF 3
ENDMDL
MODEL 7
REMARK VINA RESULT:      -7.1      3.764      7.693
REMARK  Name = 
REMARK  5 active torsions:
REMARK  status: ('A' for Active; 'I' for Inactive)
REMARK    1  A    between atoms: C_1  and  O_2
REMARK    2  A    between atoms: O_2  and  C_3
REMARK    3  A    between atoms: C_6  and  C_7
REMARK    4  A    between atoms: C_7  and  C_8
REMARK    5  A    between atoms: N_15  and  C_16
REMARK                            x       y       z     vdW  Elec       q    Type
REMARK                         _______ _______ _______ _____ _____    ______ ____
ROOT
ATOM      1  C   UNL     1       1.470   9.384  18.840  0.00  0.00    +0.000 A 
ATOM      2  N   UNL     1       2.047   9.629  17.672  0.00  0.00    +0.000 NA
ATOM      3  N   UNL     1       2.756   8.509  17.283  0.00  0.00    +0.000 NA
ATOM      4  C   UNL     1       2.592   7.621  18.225  0.00  0.00    +0.000 A 
ATOM      5  C   UNL     1       3.054   6.246  18.358  0.00  0.00    +0.000 A 
ATOM      6  C   UNL     1       3.798   5.335  17.622  0.00  0.00    +0.000 A 
ATOM      7  N   UNL     1       3.899   4.164  18.268  0.00  0.00    +0.000 NA
ATOM      8  N   UNL     1       3.207   4.362  19.423  0.00  0.00    +0.000 N 
ATOM      9  C   UNL     1       3.129   3.307  20.403  0.00  0.00    +0.000 C 
ATOM     10  C   UNL     1       2.657   5.617  19.517  0.00  0.00    +0.000 A 
ATOM     11  N   UNL     1       1.893   6.113  20.541  0.00  0.00    +0.000 NA
ATOM     12  C   UNL     1       1.490   7.354  20.373  0.00  0.00    +0.000 A 
ATOM     13  N   UNL     1       1.813   8.115  19.240  0.00  0.00    +0.000 N 
ENDROOT
BRANCH   1  14
ATOM     14  C   UNL     1       0.542  10.295  19.565  0.00  0.00    +0.000 C 
BRANCH  14  18
ATOM     15  C   UNL     1      -3.173  11.104  17.491  0.00  0.00    +0.000 A 
ATOM     16  C   UNL     1      -2.291  10.139  17.006  0.00  0.00    +0.000 A 
ATOM     17  C   UNL     1      -1.089   9.876  17.671  0.00  0.00    +0.000 A 
ATOM     18  C   UNL     1      -0.738  10.599  18.820  0.00  0.00    +0.000 A 
ATOM     19  C   UNL     1      -1.629  11.570  19.297  0.00  0.00    +0.000 A 
ATOM     20  C   UNL     1      -2.836  11.823  18.636  0.00  0.00    +0.000 A 
BRANCH  15  22
ATOM     21  C   UNL     1      -5.445  11.779  17.439  0.00  0.00    +0.000 C 
ATOM     22  O   UNL     1      -4.308  11.279  16.746  0.00  0.00    +0.000 OA
ENDBRANCH  15  22
ENDBRANCH  14  18
ENDBRANCH   1  14
TORSDOF 3
ENDMDL
MODEL 8
REMARK VINA RESULT:      -7.1      3.728      7.970
REMARK  Name = 
REMARK  5 active torsions:
REMARK  status: ('A' for Active; 'I' for Inactive)
REMARK    1  A    between atoms: C_1  and  O_2
REMARK    2  A    between atoms: O_2  and  C_3
REMARK    3  A    between atoms: C_6  and  C_7
REMARK    4  A    between atoms: C_7  and  C_8
REMARK    5  A    between atoms: N_15  and  C_16
REMARK                            x       y       z     vdW  Elec       q    Type
REMARK                         _______ _______ _______ _____ _____    ______ ____
ROOT
ATOM      1  C   UNL     1       1.067   9.416  19.738  0.00  0.00    +0.000 A 
ATOM      2  N   UNL     1       0.788   8.888  20.921  0.00  0.00    +0.000 NA
ATOM      3  N   UNL     1       1.404   7.655  21.014  0.00  0.00    +0.000 NA
ATOM      4  C   UNL     1       2.036   7.470  19.886  0.00  0.00    +0.000 A 
ATOM      5  C   UNL     1       2.891   6.390  19.414  0.00  0.00    +0.000 A 
ATOM      6  C   UNL     1       3.387   5.186  19.894  0.00  0.00    +0.000 A 
ATOM      7  N   UNL     1       4.166   4.590  18.980  0.00  0.00    +0.000 NA
ATOM      8  N   UNL     1       4.145   5.442  17.920  0.00  0.00    +0.000 N 
ATOM      9  C   UNL     1       4.859   5.104  16.713  0.00  0.00    +0.000 C 
ATOM     10  C   UNL     1       3.391   6.567  18.143  0.00  0.00    +0.000 A 
ATOM     11  N   UNL     1       3.189   7.615  17.284  0.00  0.00    +0.000 NA
ATOM     12  C   UNL     1       2.419   8.572  17.755  0.00  0.00    +0.000 A 
ATOM     13  N   UNL     1       1.845   8.529  19.035  0.00  0.00    +0.000 N 
ENDROOT
BRANCH   1  14
ATOM     14  C   UNL     1       0.672  10.774  19.272  0.00  0.00    +0.000 C 
BRANCH  14  18
ATOM     15  C   UNL     1      -3.416  10.967  17.855  0.00  0.00    +0.000 A 
ATOM     16  C   UNL     1      -2.510  10.080  17.274  0.00  0.00    +0.000 A 
ATOM     17  C   UNL     1      -1.189  10.016  17.726  0.00  0.00    +0.000 A 
ATOM     18  C   UNL     1      -0.745  10.863  18.752  0.00  0.00    +0.000 A 
ATOM     19  C   UNL     1      -1.662  11.754  19.326  0.00  0.00    +0.000 A 
ATOM     20  C   UNL     1      -2.987  11.807  18.880  0.00  0.00    +0.000 A 
BRANCH  15  22
ATOM     21  C   UNL     1      -5.755  10.982  18.241  0.00  0.00    +0.000 C 
ATOM     22  O   UNL     1      -4.674  10.946  17.316  0.00  0.00    +0.000 OA
ENDBRANCH  15  22
ENDBRANCH  14  18
ENDBRANCH   1  14
TORSDOF 3
ENDMDL
MODEL 9
REMARK VINA RESULT:      -7.0      3.832      7.579
REMARK  Name = 
REMARK  5 active torsions:
REMARK  status: ('A' for Active; 'I' for Inactive)
REMARK    1  A    between atoms: C_1  and  O_2
REMARK    2  A    between atoms: O_2  and  C_3
REMARK    3  A    between atoms: C_6  and  C_7
REMARK    4  A    between atoms: C_7  and  C_8
REMARK    5  A    between atoms: N_15  and  C_16
REMARK                            x       y       z     vdW  Elec       q    Type
REMARK                         _______ _______ _______ _____ _____    ______ ____
ROOT
ATOM      1  C   UNL     1       1.409   9.732  18.708  0.00  0.00    +0.000 A 
ATOM      2  N   UNL     1       2.063   9.709  17.556  0.00  0.00    +0.000 NA
ATOM      3  N   UNL     1       2.668   8.475  17.413  0.00  0.00    +0.000 NA
ATOM      4  C   UNL     1       2.367   7.789  18.482  0.00  0.00    +0.000 A 
ATOM      5  C   UNL     1       2.674   6.423  18.881  0.00  0.00    +0.000 A 
ATOM      6  C   UNL     1       3.352   5.328  18.364  0.00  0.00    +0.000 A 
ATOM      7  N   UNL     1       3.298   4.287  19.209  0.00  0.00    +0.000 NA
ATOM      8  N   UNL     1       2.577   4.754  20.263  0.00  0.00    +0.000 N 
ATOM      9  C   UNL     1       2.343   3.904  21.405  0.00  0.00    +0.000 C 
ATOM     10  C   UNL     1       2.159   6.052  20.103  0.00  0.00    +0.000 A 
ATOM     11  N   UNL     1       1.404   6.794  20.974  0.00  0.00    +0.000 NA
ATOM     12  C   UNL     1       1.142   8.017  20.568  0.00  0.00    +0.000 A 
ATOM     13  N   UNL     1       1.598   8.529  19.343  0.00  0.00    +0.000 N 
ENDROOT
BRANCH   1  14
ATOM     14  C   UNL     1       0.549  10.843  19.202  0.00  0.00    +0.000 C 
BRANCH  14  18
ATOM     15  C   UNL     1      -3.464  10.847  17.572  0.00  0.00    +0.000 A 
ATOM     16  C   UNL     1      -3.111  11.744  18.580  0.00  0.00    +0.000 A 
ATOM     17  C   UNL     1      -1.818  11.744  19.112  0.00  0.00    +0.000 A 
ATOM     18  C   UNL     1      -0.862  10.824  18.660  0.00  0.00    +0.000 A 
ATOM     19  C   UNL     1      -1.226   9.924  17.649  0.00  0.00    +0.000 A 
ATOM     20  C   UNL     1      -2.518   9.934  17.110  0.00  0.00    +0.000 A 
BRANCH  15  22
ATOM     21  C   UNL     1      -5.639  11.708  17.954  0.00  0.00    +0.000 C 
ATOM     22  O   UNL     1      -4.761  10.935  17.144  0.00  0.00    +0.000 OA
ENDBRANCH  15  22
ENDBRANCH  14  18
ENDBRANCH   1  14
TORSDOF 3
ENDMDL
