MODEL 1
REMARK VINA RESULT:      -7.7      0.000      0.000
REMARK  Name = 
REMARK  8 active torsions:
REMARK  status: ('A' for Active; 'I' for Inactive)
REMARK    1  A    between atoms: C_1  and  C_2
REMARK    2  A    between atoms: C_2  and  C_4
REMARK    3  A    between atoms: C_8  and  N_9
REMARK    4  A    between atoms: N_9  and  C_10
REMARK    5  A    between atoms: C_10  and  C_11
REMARK    6  A    between atoms: C_11  and  C_13
REMARK    7  A    between atoms: C_16  and  C_17
REMARK    8  A    between atoms: C_18  and  N_19
REMARK                            x       y       z     vdW  Elec       q    Type
REMARK                         _______ _______ _______ _____ _____    ______ ____
ROOT
ATOM      1  C   UNL     1       3.191   3.968  18.979  0.00  0.00    +0.000 C 
ENDROOT
BRANCH   1   2
ATOM      2  N   UNL     1       4.612   3.687  19.159  0.00  0.00    +0.000 N 
ATOM      3  H   UNL     1       4.822   2.700  19.308  0.00  0.00    +0.000 HD
BRANCH   2   8
ATOM      4  C   UNL     1       6.676   5.121  16.394  0.00  0.00    +0.000 A 
ATOM      5  C   UNL     1       7.371   6.111  17.093  0.00  0.00    +0.000 A 
ATOM      6  C   UNL     1       7.162   6.263  18.465  0.00  0.00    +0.000 A 
ATOM      7  C   UNL     1       6.267   5.425  19.134  0.00  0.00    +0.000 A 
ATOM      8  C   UNL     1       5.571   4.413  18.462  0.00  0.00    +0.000 A 
ATOM      9  C   UNL     1       5.776   4.292  17.081  0.00  0.00    +0.000 A 
BRANCH   4  11
ATOM     10  C   UNL     1       5.887   4.003  14.206  0.00  0.00    +0.000 C 
ATOM     11  C   UNL     1       6.846   4.916  14.924  0.00  0.00    +0.000 C 
ATOM     12  O   UNL     1       7.750   5.491  14.323  0.00  0.00    +0.000 OA
ENDBRANCH   4  11
ENDBRANCH   2   8
ENDBRANCH   1   2
BRANCH   1  13
ATOM     13  C   UNL     1       2.661   4.880  20.081  0.00  0.00    +0.000 C 
ATOM     14  O   UNL     1       2.487   4.499  21.238  0.00  0.00    +0.000 OA
BRANCH  13  15
ATOM     15  C   UNL     1       2.309   6.288  19.709  0.00  0.00    +0.000 A 
ATOM     16  C   UNL     1       2.629   6.741  18.429  0.00  0.00    +0.000 A 
ATOM     17  C   UNL     1       2.336   8.053  18.047  0.00  0.00    +0.000 A 
ATOM     18  C   UNL     1       1.716   8.955  18.932  0.00  0.00    +0.000 A 
ATOM     19  C   UNL     1       1.441  10.345  18.428  0.00  0.00    +0.000 C 
ATOM     20  C   UNL     1       1.395   8.495  20.230  0.00  0.00    +0.000 A 
ATOM     21  C   UNL     1       1.689   7.165  20.606  0.00  0.00    +0.000 A 
BRANCH  20  22
ATOM     22  N   UNL     1       0.760   9.358  21.254  0.00  0.00    +0.000 N 
ATOM     23  O   UNL     1       1.473   9.929  22.085  0.00  0.00    +0.000 OA
ATOM     24  O   UNL     1      -0.477   9.455  21.221  0.00  0.00    +0.000 OA
ENDBRANCH  20  22
ENDBRANCH  13  15
ENDBRANCH   1  13
TORSDOF 6
ENDMDL
MODEL 2
REMARK VINA RESULT:      -7.7      3.787      5.275
REMARK  Name = 
REMARK  8 active torsions:
REMARK  status: ('A' for Active; 'I' for Inactive)
REMARK    1  A    between atoms: C_1  and  C_2
REMARK    2  A    between atoms: C_2  and  C_4
REMARK    3  A    between atoms: C_8  and  N_9
REMARK    4  A    between atoms: N_9  and  C_10
REMARK    5  A    between atoms: C_10  and  C_11
REMARK    6  A    between atoms: C_11  and  C_13
REMARK    7  A    between atoms: C_16  and  C_17
REMARK    8  A    between atoms: C_18  and  N_19
REMARK                            x       y       z     vdW  Elec       q    Type
REMARK                         _______ _______ _______ _____ _____    ______ ____
ROOT
ATOM      1  C   UNL     1       5.874   5.393  16.336  0.00  0.00    +0.000 C 
ENDROOT
BRANCH   1   2
ATOM      2  N   UNL     1       7.150   5.205  15.654  0.00  0.00    +0.000 N 
ATOM      3  H   UNL     1       7.867   4.767  16.233  0.00  0.00    +0.000 HD
BRANCH   2   8
ATOM      4  C   UNL     1       6.326   3.758  12.309  0.00  0.00    +0.000 A 
ATOM      5  C   UNL     1       7.180   4.510  11.498  0.00  0.00    +0.000 A 
ATOM      6  C   UNL     1       8.025   5.457  12.078  0.00  0.00    +0.000 A 
ATOM      7  C   UNL     1       8.022   5.645  13.462  0.00  0.00    +0.000 A 
ATOM      8  C   UNL     1       7.191   4.893  14.300  0.00  0.00    +0.000 A 
ATOM      9  C   UNL     1       6.331   3.964  13.697  0.00  0.00    +0.000 A 
BRANCH   4  11
ATOM     10  C   UNL     1       4.000   3.172  11.357  0.00  0.00    +0.000 C 
ATOM     11  C   UNL     1       5.389   2.739  11.749  0.00  0.00    +0.000 C 
ATOM     12  O   UNL     1       5.757   1.575  11.608  0.00  0.00    +0.000 OA
ENDBRANCH   4  11
ENDBRANCH   2   8
ENDBRANCH   1   2
BRANCH   1  13
ATOM     13  C   UNL     1       5.822   4.612  17.645  0.00  0.00    +0.000 C 
ATOM     14  O   UNL     1       6.808   4.442  18.362  0.00  0.00    +0.000 OA
BRANCH  13  15
ATOM     15  C   UNL     1       4.513   4.002  18.040  0.00  0.00    +0.000 A 
ATOM     16  C   UNL     1       3.626   3.614  17.034  0.00  0.00    +0.000 A 
ATOM     17  C   UNL     1       2.384   3.059  17.359  0.00  0.00    +0.000 A 
ATOM     18  C   UNL     1       1.990   2.874  18.697  0.00  0.00    +0.000 A 
ATOM     19  C   UNL     1       0.636   2.267  18.944  0.00  0.00    +0.000 C 
ATOM     20  C   UNL     1       2.888   3.269  19.714  0.00  0.00    +0.000 A 
ATOM     21  C   UNL     1       4.143   3.824  19.378  0.00  0.00    +0.000 A 
BRANCH  20  22
ATOM     22  N   UNL     1       2.575   3.143  21.157  0.00  0.00    +0.000 N 
ATOM     23  O   UNL     1       3.146   2.273  21.821  0.00  0.00    +0.000 OA
ATOM     24  O   UNL     1       1.736   3.929  21.624  0.00  0.00    +0.000 OA
ENDBRANCH  20  22
ENDBRANCH  13  15
ENDBRANCH   1  13
TORSDOF 6
ENDMDL
MODEL 3
REMARK VINA RESULT:      -7.6      2.743      6.011
REMARK  Name = 
REMARK  8 active torsions:
REMARK  status: ('A' for Active; 'I' for Inactive)
REMARK    1  A    between atoms: C_1  and  C_2
REMARK    2  A    between atoms: C_2  and  C_4
REMARK    3  A    between atoms: C_8  and  N_9
REMARK    4  A    between atoms: N_9  and  C_10
REMARK    5  A    between atoms: C_10  and  C_11
REMARK    6  A    between atoms: C_11  and  C_13
REMARK    7  A    between atoms: C_16  and  C_17
REMARK    8  A    between atoms: C_18  and  N_19
REMARK                            x       y       z     vdW  Elec       q    Type
REMARK                         _______ _______ _______ _____ _____    ______ ____
ROOT
ATOM      1  C   UNL     1       2.238   2.656  17.615  0.00  0.00    +0.000 C 
ENDROOT
BRANCH   1   2
ATOM      2  N   UNL     1       1.371   3.310  18.589  0.00  0.00    +0.000 N 
ATOM      3  H   UNL     1       0.939   2.669  19.254  0.00  0.00    +0.000 HD
BRANCH   2   8
ATOM      4  C   UNL     1       2.284   6.928  18.781  0.00  0.00    +0.000 A 
ATOM      5  C   UNL     1       2.051   7.170  20.137  0.00  0.00    +0.000 A 
ATOM      6  C   UNL     1       1.624   6.127  20.960  0.00  0.00    +0.000 A 
ATOM      7  C   UNL     1       1.438   4.848  20.430  0.00  0.00    +0.000 A 
ATOM      8  C   UNL     1       1.683   4.573  19.080  0.00  0.00    +0.000 A 
ATOM      9  C   UNL     1       2.087   5.639  18.264  0.00  0.00    +0.000 A 
BRANCH   4  11
ATOM     10  C   UNL     1       2.060   9.351  17.922  0.00  0.00    +0.000 C 
ATOM     11  C   UNL     1       2.730   8.004  17.846  0.00  0.00    +0.000 C 
ATOM     12  O   UNL     1       3.632   7.786  17.040  0.00  0.00    +0.000 OA
ENDBRANCH   4  11
ENDBRANCH   2   8
ENDBRANCH   1   2
BRANCH   1  13
ATOM     13  C   UNL     1       3.628   2.403  18.190  0.00  0.00    +0.000 C 
ATOM     14  O   UNL     1       3.938   1.352  18.751  0.00  0.00    +0.000 OA
BRANCH  13  15
ATOM     15  C   UNL     1       4.635   3.506  18.089  0.00  0.00    +0.000 A 
ATOM     16  C   UNL     1       5.130   4.069  19.266  0.00  0.00    +0.000 A 
ATOM     17  C   UNL     1       6.057   5.115  19.217  0.00  0.00    +0.000 A 
ATOM     18  C   UNL     1       6.517   5.631  17.991  0.00  0.00    +0.000 A 
ATOM     19  C   UNL     1       7.515   6.756  18.043  0.00  0.00    +0.000 C 
ATOM     20  C   UNL     1       6.013   5.062  16.800  0.00  0.00    +0.000 A 
ATOM     21  C   UNL     1       5.081   4.002  16.858  0.00  0.00    +0.000 A 
BRANCH  20  22
ATOM     22  N   UNL     1       6.408   5.536  15.453  0.00  0.00    +0.000 N 
ATOM     23  O   UNL     1       5.617   6.224  14.802  0.00  0.00    +0.000 OA
ATOM     24  O   UNL     1       7.532   5.203  15.045  0.00  0.00    +0.000 OA
ENDBRANCH  20  22
ENDBRANCH  13  15
ENDBRANCH   1  13
TORSDOF 6
ENDMDL
MODEL 4
REMARK VINA RESULT:      -7.6      3.465      5.315
REMARK  Name = 
REMARK  8 active torsions:
REMARK  status: ('A' for Active; 'I' for Inactive)
REMARK    1  A    between atoms: C_1  and  C_2
REMARK    2  A    between atoms: C_2  and  C_4
REMARK    3  A    between atoms: C_8  and  N_9
REMARK    4  A    between atoms: N_9  and  C_10
REMARK    5  A    between atoms: C_10  and  C_11
REMARK    6  A    between atoms: C_11  and  C_13
REMARK    7  A    between atoms: C_16  and  C_17
REMARK    8  A    between atoms: C_18  and  N_19
REMARK                            x       y       z     vdW  Elec       q    Type
REMARK                         _______ _______ _______ _____ _____    ______ ____
ROOT
ATOM      1  C   UNL     1       6.803   5.928  16.578  0.00  0.00    +0.000 C 
ENDROOT
BRANCH   1   2
ATOM      2  N   UNL     1       7.146   4.662  15.941  0.00  0.00    +0.000 N 
ATOM      3  H   UNL     1       6.812   3.841  16.446  0.00  0.00    +0.000 HD
BRANCH   2   8
ATOM      4  C   UNL     1       6.310   3.694  12.430  0.00  0.00    +0.000 A 
ATOM      5  C   UNL     1       7.133   4.579  11.728  0.00  0.00    +0.000 A 
ATOM      6  C   UNL     1       7.962   5.454  12.430  0.00  0.00    +0.000 A 
ATOM      7  C   UNL     1       7.975   5.439  13.827  0.00  0.00    +0.000 A 
ATOM      8  C   UNL     1       7.175   4.551  14.555  0.00  0.00    +0.000 A 
ATOM      9  C   UNL     1       6.331   3.697  13.833  0.00  0.00    +0.000 A 
BRANCH   4  11
ATOM     10  C   UNL     1       5.919   1.389  11.338  0.00  0.00    +0.000 C 
ATOM     11  C   UNL     1       5.391   2.742  11.738  0.00  0.00    +0.000 C 
ATOM     12  O   UNL     1       4.228   3.064  11.509  0.00  0.00    +0.000 OA
ENDBRANCH   4  11
ENDBRANCH   2   8
ENDBRANCH   1   2
BRANCH   1  13
ATOM     13  C   UNL     1       5.332   6.277  16.367  0.00  0.00    +0.000 C 
ATOM     14  O   UNL     1       4.940   6.988  15.442  0.00  0.00    +0.000 OA
BRANCH  13  15
ATOM     15  C   UNL     1       4.343   5.750  17.359  0.00  0.00    +0.000 A 
ATOM     16  C   UNL     1       3.387   6.624  17.879  0.00  0.00    +0.000 A 
ATOM     17  C   UNL     1       2.457   6.179  18.823  0.00  0.00    +0.000 A 
ATOM     18  C   UNL     1       2.452   4.847  19.278  0.00  0.00    +0.000 A 
ATOM     19  C   UNL     1       1.411   4.464  20.294  0.00  0.00    +0.000 C 
ATOM     20  C   UNL     1       3.423   3.963  18.754  0.00  0.00    +0.000 A 
ATOM     21  C   UNL     1       4.356   4.420  17.796  0.00  0.00    +0.000 A 
BRANCH  20  22
ATOM     22  N   UNL     1       3.529   2.546  19.172  0.00  0.00    +0.000 N 
ATOM     23  O   UNL     1       2.968   1.677  18.498  0.00  0.00    +0.000 OA
ATOM     24  O   UNL     1       4.184   2.308  20.199  0.00  0.00    +0.000 OA
ENDBRANCH  20  22
ENDBRANCH  13  15
ENDBRANCH   1  13
TORSDOF 6
ENDMDL
MODEL 5
REMARK VINA RESULT:      -7.6      1.962      2.525
REMARK  Name = 
REMARK  8 active torsions:
REMARK  status: ('A' for Active; 'I' for Inactive)
REMARK    1  A    between atoms: C_1  and  C_2
REMARK    2  A    between atoms: C_2  and  C_4
REMARK    3  A    between atoms: C_8  and  N_9
REMARK    4  A    between atoms: N_9  and  C_10
REMARK    5  A    between atoms: C_10  and  C_11
REMARK    6  A    between atoms: C_11  and  C_13
REMARK    7  A    between atoms: C_16  and  C_17
REMARK    8  A    between atoms: C_18  and  N_19
REMARK                            x       y       z     vdW  Elec       q    Type
REMARK                         _______ _______ _______ _____ _____    ______ ____
ROOT
ATOM      1  C   UNL     1       4.136   2.565  18.540  0.00  0.00    +0.000 C 
ENDROOT
BRANCH   1   2
ATOM      2  N   UNL     1       5.047   3.499  19.193  0.00  0.00    +0.000 N 
ATOM      3  H   UNL     1       5.455   3.142  20.057  0.00  0.00    +0.000 HD
BRANCH   2   8
ATOM      4  C   UNL     1       6.792   5.122  16.315  0.00  0.00    +0.000 A 
ATOM      5  C   UNL     1       7.331   6.242  16.953  0.00  0.00    +0.000 A 
ATOM      6  C   UNL     1       7.128   6.420  18.322  0.00  0.00    +0.000 A 
ATOM      7  C   UNL     1       6.396   5.479  19.050  0.00  0.00    +0.000 A 
ATOM      8  C   UNL     1       5.861   4.338  18.440  0.00  0.00    +0.000 A 
ATOM      9  C   UNL     1       6.055   4.190  17.060  0.00  0.00    +0.000 A 
BRANCH   4  11
ATOM     10  C   UNL     1       6.024   3.927  14.161  0.00  0.00    +0.000 C 
ATOM     11  C   UNL     1       6.964   4.881  14.851  0.00  0.00    +0.000 C 
ATOM     12  O   UNL     1       7.853   5.460  14.231  0.00  0.00    +0.000 OA
ENDBRANCH   4  11
ENDBRANCH   2   8
ENDBRANCH   1   2
BRANCH   1  13
ATOM     13  C   UNL     1       2.809   3.234  18.194  0.00  0.00    +0.000 C 
ATOM     14  O   UNL     1       2.021   2.769  17.370  0.00  0.00    +0.000 OA
BRANCH  13  15
ATOM     15  C   UNL     1       2.486   4.531  18.869  0.00  0.00    +0.000 A 
ATOM     16  C   UNL     1       2.090   4.506  20.208  0.00  0.00    +0.000 A 
ATOM     17  C   UNL     1       1.760   5.692  20.871  0.00  0.00    +0.000 A 
ATOM     18  C   UNL     1       1.815   6.938  20.219  0.00  0.00    +0.000 A 
ATOM     19  C   UNL     1       1.442   8.157  21.019  0.00  0.00    +0.000 C 
ATOM     20  C   UNL     1       2.213   6.961  18.863  0.00  0.00    +0.000 A 
ATOM     21  C   UNL     1       2.550   5.759  18.201  0.00  0.00    +0.000 A 
BRANCH  20  22
ATOM     22  N   UNL     1       2.287   8.209  18.068  0.00  0.00    +0.000 N 
ATOM     23  O   UNL     1       1.245   8.813  17.800  0.00  0.00    +0.000 OA
ATOM     24  O   UNL     1       3.414   8.581  17.706  0.00  0.00    +0.000 OA
ENDBRANCH  20  22
ENDBRANCH  13  15
ENDBRANCH   1  13
TORSDOF 6
ENDMDL
MODEL 6
REMARK VINA RESULT:      -7.5      2.066      2.608
REMARK  Name = 
REMARK  8 active torsions:
REMARK  status: ('A' for Active; 'I' for Inactive)
REMARK    1  A    between atoms: C_1  and  C_2
REMARK    2  A    between atoms: C_2  and  C_4
REMARK    3  A    between atoms: C_8  and  N_9
REMARK    4  A    between atoms: N_9  and  C_10
REMARK    5  A    between atoms: C_10  and  C_11
REMARK    6  A    between atoms: C_11  and  C_13
REMARK    7  A    between atoms: C_16  and  C_17
REMARK    8  A    between atoms: C_18  and  N_19
REMARK                            x       y       z     vdW  Elec       q    Type
REMARK                         _______ _______ _______ _____ _____    ______ ____
ROOT
ATOM      1  C   UNL     1       3.068   2.590  17.459  0.00  0.00    +0.000 C 
ENDROOT
BRANCH   1   2
ATOM      2  N   UNL     1       4.363   2.759  18.110  0.00  0.00    +0.000 N 
ATOM      3  H   UNL     1       4.764   1.890  18.464  0.00  0.00    +0.000 HD
BRANCH   2   8
ATOM      4  C   UNL     1       6.521   4.807  15.851  0.00  0.00    +0.000 A 
ATOM      5  C   UNL     1       6.932   5.804  16.740  0.00  0.00    +0.000 A 
ATOM      6  C   UNL     1       6.509   5.761  18.068  0.00  0.00    +0.000 A 
ATOM      7  C   UNL     1       5.685   4.722  18.508  0.00  0.00    +0.000 A 
ATOM      8  C   UNL     1       5.273   3.700  17.644  0.00  0.00    +0.000 A 
ATOM      9  C   UNL     1       5.689   3.775  16.308  0.00  0.00    +0.000 A 
BRANCH   4  11
ATOM     10  C   UNL     1       6.220   3.876  13.463  0.00  0.00    +0.000 C 
ATOM     11  C   UNL     1       6.930   4.804  14.414  0.00  0.00    +0.000 C 
ATOM     12  O   UNL     1       7.823   5.553  14.026  0.00  0.00    +0.000 OA
ENDBRANCH   4  11
ENDBRANCH   2   8
ENDBRANCH   1   2
BRANCH   1  13
ATOM     13  C   UNL     1       1.921   2.930  18.406  0.00  0.00    +0.000 C 
ATOM     14  O   UNL     1       1.019   2.137  18.674  0.00  0.00    +0.000 OA
BRANCH  13  15
ATOM     15  C   UNL     1       1.890   4.306  18.996  0.00  0.00    +0.000 A 
ATOM     16  C   UNL     1       1.503   4.453  20.329  0.00  0.00    +0.000 A 
ATOM     17  C   UNL     1       1.442   5.721  20.914  0.00  0.00    +0.000 A 
ATOM     18  C   UNL     1       1.764   6.882  20.186  0.00  0.00    +0.000 A 
ATOM     19  C   UNL     1       1.668   8.200  20.904  0.00  0.00    +0.000 C 
ATOM     20  C   UNL     1       2.152   6.732  18.835  0.00  0.00    +0.000 A 
ATOM     21  C   UNL     1       2.218   5.446  18.253  0.00  0.00    +0.000 A 
BRANCH  20  22
ATOM     22  N   UNL     1       2.495   7.881  17.965  0.00  0.00    +0.000 N 
ATOM     23  O   UNL     1       3.646   7.984  17.531  0.00  0.00    +0.000 OA
ATOM     24  O   UNL     1       1.589   8.693  17.720  0.00  0.00    +0.000 OA
ENDBRANCH  20  22
ENDBRANCH  13  15
ENDBRANCH   1  13
TORSDOF 6
ENDMDL
MODEL 7
REMARK VINA RESULT:      -7.4      3.321      5.015
REMARK  Name = 
REMARK  8 active torsions:
REMARK  status: ('A' for Active; 'I' for Inactive)
REMARK    1  A    between atoms: C_1  and  C_2
REMARK    2  A    between atoms: C_2  and  C_4
REMARK    3  A    between atoms: C_8  and  N_9
REMARK    4  A    between atoms: N_9  and  C_10
REMARK    5  A    between atoms: C_10  and  C_11
REMARK    6  A    between atoms: C_11  and  C_13
REMARK    7  A    between atoms: C_16  and  C_17
REMARK    8  A    between atoms: C_18  and  N_19
REMARK                            x       y       z     vdW  Elec       q    Type
REMARK                         _______ _______ _______ _____ _____    ______ ____
ROOT
ATOM      1  C   UNL     1       6.794   4.366  16.764  0.00  0.00    +0.000 C 
ENDROOT
BRANCH   1   2
ATOM      2  N   UNL     1       6.608   5.307  15.664  0.00  0.00    +0.000 N 
ATOM      3  H   UNL     1       6.865   6.267  15.894  0.00  0.00    +0.000 HD
BRANCH   2   8
ATOM      4  C   UNL     1       6.245   3.686  12.317  0.00  0.00    +0.000 A 
ATOM      5  C   UNL     1       7.231   4.371  11.603  0.00  0.00    +0.000 A 
ATOM      6  C   UNL     1       8.010   5.331  12.251  0.00  0.00    +0.000 A 
ATOM      7  C   UNL     1       7.808   5.600  13.606  0.00  0.00    +0.000 A 
ATOM      8  C   UNL     1       6.839   4.916  14.350  0.00  0.00    +0.000 A 
ATOM      9  C   UNL     1       6.051   3.973  13.677  0.00  0.00    +0.000 A 
BRANCH   4  11
ATOM     10  C   UNL     1       5.957   1.306  11.363  0.00  0.00    +0.000 C 
ATOM     11  C   UNL     1       5.370   2.657  11.679  0.00  0.00    +0.000 C 
ATOM     12  O   UNL     1       4.195   2.916  11.429  0.00  0.00    +0.000 OA
ENDBRANCH   4  11
ENDBRANCH   2   8
ENDBRANCH   1   2
BRANCH   1  13
ATOM     13  C   UNL     1       6.052   4.822  18.017  0.00  0.00    +0.000 C 
ATOM     14  O   UNL     1       6.519   5.639  18.810  0.00  0.00    +0.000 OA
BRANCH  13  15
ATOM     15  C   UNL     1       4.714   4.210  18.295  0.00  0.00    +0.000 A 
ATOM     16  C   UNL     1       4.155   3.363  17.336  0.00  0.00    +0.000 A 
ATOM     17  C   UNL     1       2.899   2.786  17.547  0.00  0.00    +0.000 A 
ATOM     18  C   UNL     1       2.163   3.036  18.720  0.00  0.00    +0.000 A 
ATOM     19  C   UNL     1       0.822   2.368  18.854  0.00  0.00    +0.000 C 
ATOM     20  C   UNL     1       2.729   3.896  19.688  0.00  0.00    +0.000 A 
ATOM     21  C   UNL     1       4.001   4.471  19.470  0.00  0.00    +0.000 A 
BRANCH  20  22
ATOM     22  N   UNL     1       2.040   4.250  20.951  0.00  0.00    +0.000 N 
ATOM     23  O   UNL     1       1.372   5.287  21.001  0.00  0.00    +0.000 OA
ATOM     24  O   UNL     1       2.179   3.471  21.907  0.00  0.00    +0.000 OA
ENDBRANCH  20  22
ENDBRANCH  13  15
ENDBRANCH   1  13
TORSDOF 6
ENDMDL
MODEL 8
REMARK VINA RESULT:      -7.4      2.554      7.322
REMARK  Name = 
REMARK  8 active torsions:
REMARK  status: ('A' for Active; 'I' for Inactive)
REMARK    1  A    between atoms: C_1  and  C_2
REMARK    2  A    between atoms: C_2  and  C_4
REMARK    3  A    between atoms: C_8  and  N_9
REMARK    4  A    between atoms: N_9  and  C_10
REMARK    5  A    between atoms: C_10  and  C_11
REMARK    6  A    between atoms: C_11  and  C_13
REMARK    7  A    between atoms: C_16  and  C_17
REMARK    8  A    between atoms: C_18  and  N_19
REMARK                            x       y       z     vdW  Elec       q    Type
REMARK                         _______ _______ _______ _____ _____    ______ ____
ROOT
ATOM      1  C   UNL     1       1.896   5.341  19.876  0.00  0.00    +0.000 C 
ENDROOT
BRANCH   1   2
ATOM      2  N   UNL     1       2.420   6.574  20.454  0.00  0.00    +0.000 N 
ATOM      3  H   UNL     1       3.424   6.697  20.323  0.00  0.00    +0.000 HD
BRANCH   2   8
ATOM      4  C   UNL     1       0.444   9.540  21.575  0.00  0.00    +0.000 A 
ATOM      5  C   UNL     1       0.343  10.239  20.369  0.00  0.00    +0.000 A 
ATOM      6  C   UNL     1       0.906   9.701  19.211  0.00  0.00    +0.000 A 
ATOM      7  C   UNL     1       1.560   8.468  19.257  0.00  0.00    +0.000 A 
ATOM      8  C   UNL     1       1.660   7.738  20.448  0.00  0.00    +0.000 A 
ATOM      9  C   UNL     1       1.110   8.306  21.605  0.00  0.00    +0.000 A 
BRANCH   4  11
ATOM     10  C   UNL     1      -1.221  11.099  22.781  0.00  0.00    +0.000 C 
ATOM     11  C   UNL     1      -0.125  10.068  22.851  0.00  0.00    +0.000 C 
ATOM     12  O   UNL     1       0.295   9.656  23.930  0.00  0.00    +0.000 OA
ENDBRANCH   4  11
ENDBRANCH   2   8
ENDBRANCH   1   2
BRANCH   1  13
ATOM     13  C   UNL     1       2.511   5.063  18.507  0.00  0.00    +0.000 C 
ATOM     14  O   UNL     1       1.965   4.356  17.661  0.00  0.00    +0.000 OA
BRANCH  13  15
ATOM     15  C   UNL     1       3.854   5.657  18.214  0.00  0.00    +0.000 A 
ATOM     16  C   UNL     1       3.930   6.733  17.329  0.00  0.00    +0.000 A 
ATOM     17  C   UNL     1       5.166   7.305  17.012  0.00  0.00    +0.000 A 
ATOM     18  C   UNL     1       6.364   6.820  17.569  0.00  0.00    +0.000 A 
ATOM     19  C   UNL     1       7.642   7.503  17.167  0.00  0.00    +0.000 C 
ATOM     20  C   UNL     1       6.286   5.729  18.464  0.00  0.00    +0.000 A 
ATOM     21  C   UNL     1       5.032   5.160  18.783  0.00  0.00    +0.000 A 
BRANCH  20  22
ATOM     22  N   UNL     1       7.480   5.121  19.095  0.00  0.00    +0.000 N 
ATOM     23  O   UNL     1       7.722   5.365  20.281  0.00  0.00    +0.000 OA
ATOM     24  O   UNL     1       8.185   4.389  18.383  0.00  0.00    +0.000 OA
ENDBRANCH  20  22
ENDBRANCH  13  15
ENDBRANCH   1  13
TORSDOF 6
ENDMDL
MODEL 9
REMARK VINA RESULT:      -7.3      2.638      4.481
REMARK  Name = 
REMARK  8 active torsions:
REMARK  status: ('A' for Active; 'I' for Inactive)
REMARK    1  A    between atoms: C_1  and  C_2
REMARK    2  A    between atoms: C_2  and  C_4
REMARK    3  A    between atoms: C_8  and  N_9
REMARK    4  A    between atoms: N_9  and  C_10
REMARK    5  A    between atoms: C_10  and  C_11
REMARK    6  A    between atoms: C_11  and  C_13
REMARK    7  A    between atoms: C_16  and  C_17
REMARK    8  A    between atoms: C_18  and  N_19
REMARK                            x       y       z     vdW  Elec       q    Type
REMARK                         _______ _______ _______ _____ _____    ______ ____
ROOT
ATOM      1  C   UNL     1       7.059   5.369  16.863  0.00  0.00    +0.000 C 
ENDROOT
BRANCH   1   2
ATOM      2  N   UNL     1       6.230   4.532  16.002  0.00  0.00    +0.000 N 
ATOM      3  H   UNL     1       5.237   4.562  16.231  0.00  0.00    +0.000 HD
BRANCH   2   8
ATOM      4  C   UNL     1       6.073   3.517  12.410  0.00  0.00    +0.000 A 
ATOM      5  C   UNL     1       7.089   4.318  11.883  0.00  0.00    +0.000 A 
ATOM      6  C   UNL     1       7.819   5.153  12.730  0.00  0.00    +0.000 A 
ATOM      7  C   UNL     1       7.539   5.181  14.098  0.00  0.00    +0.000 A 
ATOM      8  C   UNL     1       6.539   4.376  14.656  0.00  0.00    +0.000 A 
ATOM      9  C   UNL     1       5.800   3.563  13.785  0.00  0.00    +0.000 A 
BRANCH   4  11
ATOM     10  C   UNL     1       3.932   3.121  11.024  0.00  0.00    +0.000 C 
ATOM     11  C   UNL     1       5.247   2.613  11.555  0.00  0.00    +0.000 C 
ATOM     12  O   UNL     1       5.646   1.481  11.290  0.00  0.00    +0.000 OA
ENDBRANCH   4  11
ENDBRANCH   2   8
ENDBRANCH   1   2
BRANCH   1  13
ATOM     13  C   UNL     1       6.829   5.052  18.337  0.00  0.00    +0.000 C 
ATOM     14  O   UNL     1       7.749   4.842  19.127  0.00  0.00    +0.000 OA
BRANCH  13  15
ATOM     15  C   UNL     1       5.413   4.962  18.816  0.00  0.00    +0.000 A 
ATOM     16  C   UNL     1       4.936   3.728  19.262  0.00  0.00    +0.000 A 
ATOM     17  C   UNL     1       3.615   3.594  19.700  0.00  0.00    +0.000 A 
ATOM     18  C   UNL     1       2.729   4.688  19.705  0.00  0.00    +0.000 A 
ATOM     19  C   UNL     1       1.328   4.444  20.195  0.00  0.00    +0.000 C 
ATOM     20  C   UNL     1       3.213   5.936  19.250  0.00  0.00    +0.000 A 
ATOM     21  C   UNL     1       4.551   6.064  18.815  0.00  0.00    +0.000 A 
BRANCH  20  22
ATOM     22  N   UNL     1       2.368   7.152  19.190  0.00  0.00    +0.000 N 
ATOM     23  O   UNL     1       2.012   7.688  20.244  0.00  0.00    +0.000 OA
ATOM     24  O   UNL     1       2.056   7.568  18.064  0.00  0.00    +0.000 OA
ENDBRANCH  20  22
ENDBRANCH  13  15
ENDBRANCH   1  13
TORSDOF 6
ENDMDL
