MODEL 1
REMARK VINA RESULT:      -7.6      0.000      0.000
REMARK  Name = 
REMARK  6 active torsions:
REMARK  status: ('A' for Active; 'I' for Inactive)
REMARK    1  A    between atoms: C_1  and  C_2
REMARK    2  A    between atoms: C_5  and  N_6
REMARK    3  A    between atoms: C_7  and  C_9
REMARK    4  A    between atoms: C_10  and  C_11
REMARK    5  A    between atoms: C_14  and  N_15
REMARK    6  A    between atoms: C_19  and  C_20
REMARK                            x       y       z     vdW  Elec       q    Type
REMARK                         _______ _______ _______ _____ _____    ______ ____
ROOT
ATOM      1  N   UNL     1       6.399   7.519  17.133  0.00  0.00    +0.000 N 
ATOM      2  C   UNL     1       7.550   7.654  17.886  0.00  0.00    +0.000 C 
ATOM      3  O   UNL     1       8.031   6.835  18.660  0.00  0.00    +0.000 OA
ATOM      4  H   UNL     1       6.155   8.283  16.526  0.00  0.00    +0.000 HD
ENDROOT
BRANCH   1   9
ATOM      5  C   UNL     1       2.763   3.046  17.150  0.00  0.00    +0.000 C 
ATOM      6  C   UNL     1       3.712   4.205  17.143  0.00  0.00    +0.000 A 
ATOM      7  C   UNL     1       3.485   5.308  17.954  0.00  0.00    +0.000 A 
ATOM      8  C   UNL     1       4.372   6.385  17.946  0.00  0.00    +0.000 A 
ATOM      9  C   UNL     1       5.514   6.404  17.132  0.00  0.00    +0.000 A 
ATOM     10  C   UNL     1       5.757   5.287  16.304  0.00  0.00    +0.000 A 
ATOM     11  C   UNL     1       6.925   5.137  15.365  0.00  0.00    +0.000 C 
ATOM     12  C   UNL     1       4.846   4.202  16.323  0.00  0.00    +0.000 A 
ENDBRANCH   1   9
BRANCH   2  13
ATOM     13  C   UNL     1       8.232   8.966  17.689  0.00  0.00    +0.000 C 
ATOM     14  C   UNL     1       8.853   9.509  18.750  0.00  0.00    +0.000 C 
BRANCH  14  15
ATOM     15  C   UNL     1       9.519  10.767  18.710  0.00  0.00    +0.000 A 
ATOM     16  C   UNL     1      10.705  11.194  19.285  0.00  0.00    +0.000 A 
ATOM     17  C   UNL     1      11.022  12.553  18.977  0.00  0.00    +0.000 A 
ATOM     18  C   UNL     1      10.063  13.122  18.173  0.00  0.00    +0.000 A 
ATOM     19  S   UNL     1       8.805  12.052  17.798  0.00  0.00    +0.000 S 
BRANCH  18  20
ATOM     20  N   UNL     1      10.057  14.471  17.667  0.00  0.00    +0.000 N 
ATOM     21  O   UNL     1      11.011  14.787  16.943  0.00  0.00    +0.000 OA
ATOM     22  O   UNL     1       9.119  15.216  17.980  0.00  0.00    +0.000 OA
ENDBRANCH  18  20
ENDBRANCH  14  15
ENDBRANCH   2  13
TORSDOF 4
ENDMDL
MODEL 2
REMARK VINA RESULT:      -7.5      1.392      1.598
REMARK  Name = 
REMARK  6 active torsions:
REMARK  status: ('A' for Active; 'I' for Inactive)
REMARK    1  A    between atoms: C_1  and  C_2
REMARK    2  A    between atoms: C_5  and  N_6
REMARK    3  A    between atoms: C_7  and  C_9
REMARK    4  A    between atoms: C_10  and  C_11
REMARK    5  A    between atoms: C_14  and  N_15
REMARK    6  A    between atoms: C_19  and  C_20
REMARK                            x       y       z     vdW  Elec       q    Type
REMARK                         _______ _______ _______ _____ _____    ______ ____
ROOT
ATOM      1  N   UNL     1       6.443   7.413  17.143  0.00  0.00    +0.000 N 
ATOM      2  C   UNL     1       7.590   7.536  17.904  0.00  0.00    +0.000 C 
ATOM      3  O   UNL     1       8.046   6.719  18.696  0.00  0.00    +0.000 OA
ATOM      4  H   UNL     1       6.221   8.173  16.521  0.00  0.00    +0.000 HD
ENDROOT
BRANCH   1   9
ATOM      5  C   UNL     1       2.709   3.021  17.198  0.00  0.00    +0.000 C 
ATOM      6  C   UNL     1       3.684   4.158  17.181  0.00  0.00    +0.000 A 
ATOM      7  C   UNL     1       3.472   5.282  17.969  0.00  0.00    +0.000 A 
ATOM      8  C   UNL     1       4.382   6.339  17.952  0.00  0.00    +0.000 A 
ATOM      9  C   UNL     1       5.534   6.318  17.152  0.00  0.00    +0.000 A 
ATOM     10  C   UNL     1       5.762   5.180  16.347  0.00  0.00    +0.000 A 
ATOM     11  C   UNL     1       6.938   4.987  15.426  0.00  0.00    +0.000 C 
ATOM     12  C   UNL     1       4.828   4.116  16.376  0.00  0.00    +0.000 A 
ENDBRANCH   1   9
BRANCH   2  13
ATOM     13  C   UNL     1       8.302   8.829  17.693  0.00  0.00    +0.000 C 
ATOM     14  C   UNL     1       8.798   9.450  18.776  0.00  0.00    +0.000 C 
BRANCH  14  15
ATOM     15  C   UNL     1       9.475  10.701  18.722  0.00  0.00    +0.000 A 
ATOM     16  C   UNL     1       9.881  11.477  17.649  0.00  0.00    +0.000 A 
ATOM     17  C   UNL     1      10.525  12.690  18.044  0.00  0.00    +0.000 A 
ATOM     18  C   UNL     1      10.592  12.801  19.413  0.00  0.00    +0.000 A 
ATOM     19  S   UNL     1       9.899  11.477  20.210  0.00  0.00    +0.000 S 
BRANCH  18  20
ATOM     20  N   UNL     1      11.171  13.888  20.159  0.00  0.00    +0.000 N 
ATOM     21  O   UNL     1      10.580  14.214  21.198  0.00  0.00    +0.000 OA
ATOM     22  O   UNL     1      12.202  14.420  19.727  0.00  0.00    +0.000 OA
ENDBRANCH  18  20
ENDBRANCH  14  15
ENDBRANCH   2  13
TORSDOF 4
ENDMDL
MODEL 3
REMARK VINA RESULT:      -7.4      6.005      8.156
REMARK  Name = 
REMARK  6 active torsions:
REMARK  status: ('A' for Active; 'I' for Inactive)
REMARK    1  A    between atoms: C_1  and  C_2
REMARK    2  A    between atoms: C_5  and  N_6
REMARK    3  A    between atoms: C_7  and  C_9
REMARK    4  A    between atoms: C_10  and  C_11
REMARK    5  A    between atoms: C_14  and  N_15
REMARK    6  A    between atoms: C_19  and  C_20
REMARK                            x       y       z     vdW  Elec       q    Type
REMARK                         _______ _______ _______ _____ _____    ______ ____
ROOT
ATOM      1  N   UNL     1       1.990   8.013  19.503  0.00  0.00    +0.000 N 
ATOM      2  C   UNL     1       2.288   6.670  19.632  0.00  0.00    +0.000 C 
ATOM      3  O   UNL     1       1.883   5.900  20.496  0.00  0.00    +0.000 OA
ATOM      4  H   UNL     1       2.391   8.499  18.718  0.00  0.00    +0.000 HD
ENDROOT
BRANCH   1   9
ATOM      5  C   UNL     1      -1.269  11.141  23.085  0.00  0.00    +0.000 C 
ATOM      6  C   UNL     1      -0.426  10.330  22.149  0.00  0.00    +0.000 A 
ATOM      7  C   UNL     1       0.462   9.382  22.641  0.00  0.00    +0.000 A 
ATOM      8  C   UNL     1       1.245   8.628  21.767  0.00  0.00    +0.000 A 
ATOM      9  C   UNL     1       1.174   8.787  20.375  0.00  0.00    +0.000 A 
ATOM     10  C   UNL     1       0.274   9.747  19.863  0.00  0.00    +0.000 A 
ATOM     11  C   UNL     1       0.069  10.057  18.403  0.00  0.00    +0.000 C 
ATOM     12  C   UNL     1      -0.513  10.506  20.764  0.00  0.00    +0.000 A 
ENDBRANCH   1   9
BRANCH   2  13
ATOM     13  C   UNL     1       3.210   6.166  18.574  0.00  0.00    +0.000 C 
ATOM     14  C   UNL     1       4.485   5.924  18.924  0.00  0.00    +0.000 C 
BRANCH  14  15
ATOM     15  C   UNL     1       5.476   5.467  18.010  0.00  0.00    +0.000 A 
ATOM     16  C   UNL     1       6.701   4.855  18.218  0.00  0.00    +0.000 A 
ATOM     17  C   UNL     1       7.387   4.542  17.004  0.00  0.00    +0.000 A 
ATOM     18  C   UNL     1       6.661   4.930  15.903  0.00  0.00    +0.000 A 
ATOM     19  S   UNL     1       5.188   5.656  16.314  0.00  0.00    +0.000 S 
BRANCH  18  20
ATOM     20  N   UNL     1       7.043   4.771  14.523  0.00  0.00    +0.000 N 
ATOM     21  O   UNL     1       7.930   5.533  14.111  0.00  0.00    +0.000 OA
ATOM     22  O   UNL     1       6.477   3.902  13.848  0.00  0.00    +0.000 OA
ENDBRANCH  18  20
ENDBRANCH  14  15
ENDBRANCH   2  13
TORSDOF 4
ENDMDL
MODEL 4
REMARK VINA RESULT:      -7.3      6.300      8.401
REMARK  Name = 
REMARK  6 active torsions:
REMARK  status: ('A' for Active; 'I' for Inactive)
REMARK    1  A    between atoms: C_1  and  C_2
REMARK    2  A    between atoms: C_5  and  N_6
REMARK    3  A    between atoms: C_7  and  C_9
REMARK    4  A    between atoms: C_10  and  C_11
REMARK    5  A    between atoms: C_14  and  N_15
REMARK    6  A    between atoms: C_19  and  C_20
REMARK                            x       y       z     vdW  Elec       q    Type
REMARK                         _______ _______ _______ _____ _____    ______ ____
ROOT
ATOM      1  N   UNL     1       2.248   7.555  19.882  0.00  0.00    +0.000 N 
ATOM      2  C   UNL     1       2.219   6.188  20.082  0.00  0.00    +0.000 C 
ATOM      3  O   UNL     1       1.466   5.562  20.819  0.00  0.00    +0.000 OA
ATOM      4  H   UNL     1       2.919   7.908  19.220  0.00  0.00    +0.000 HD
ENDROOT
BRANCH   1   9
ATOM      5  C   UNL     1      -1.049  11.466  22.542  0.00  0.00    +0.000 C 
ATOM      6  C   UNL     1      -0.194  10.451  21.845  0.00  0.00    +0.000 A 
ATOM      7  C   UNL     1       0.451   9.457  22.567  0.00  0.00    +0.000 A 
ATOM      8  C   UNL     1       1.245   8.512  21.915  0.00  0.00    +0.000 A 
ATOM      9  C   UNL     1       1.426   8.523  20.524  0.00  0.00    +0.000 A 
ATOM     10  C   UNL     1       0.773   9.529  19.778  0.00  0.00    +0.000 A 
ATOM     11  C   UNL     1       0.856   9.697  18.284  0.00  0.00    +0.000 C 
ATOM     12  C   UNL     1      -0.028  10.480  20.456  0.00  0.00    +0.000 A 
ENDBRANCH   1   9
BRANCH   2  13
ATOM     13  C   UNL     1       3.244   5.454  19.285  0.00  0.00    +0.000 C 
ATOM     14  C   UNL     1       3.351   5.757  17.980  0.00  0.00    +0.000 C 
BRANCH  14  15
ATOM     15  C   UNL     1       4.267   5.115  17.099  0.00  0.00    +0.000 A 
ATOM     16  C   UNL     1       4.556   3.776  16.894  0.00  0.00    +0.000 A 
ATOM     17  C   UNL     1       5.547   3.562  15.888  0.00  0.00    +0.000 A 
ATOM     18  C   UNL     1       5.987   4.751  15.355  0.00  0.00    +0.000 A 
ATOM     19  S   UNL     1       5.230   6.098  16.048  0.00  0.00    +0.000 S 
BRANCH  18  20
ATOM     20  N   UNL     1       6.978   4.914  14.322  0.00  0.00    +0.000 N 
ATOM     21  O   UNL     1       6.780   4.288  13.271  0.00  0.00    +0.000 OA
ATOM     22  O   UNL     1       7.946   5.654  14.542  0.00  0.00    +0.000 OA
ENDBRANCH  18  20
ENDBRANCH  14  15
ENDBRANCH   2  13
TORSDOF 4
ENDMDL
MODEL 5
REMARK VINA RESULT:      -7.2      6.084      8.736
REMARK  Name = 
REMARK  6 active torsions:
REMARK  status: ('A' for Active; 'I' for Inactive)
REMARK    1  A    between atoms: C_1  and  C_2
REMARK    2  A    between atoms: C_5  and  N_6
REMARK    3  A    between atoms: C_7  and  C_9
REMARK    4  A    between atoms: C_10  and  C_11
REMARK    5  A    between atoms: C_14  and  N_15
REMARK    6  A    between atoms: C_19  and  C_20
REMARK                            x       y       z     vdW  Elec       q    Type
REMARK                         _______ _______ _______ _____ _____    ______ ____
ROOT
ATOM      1  N   UNL     1       1.836   8.126  20.528  0.00  0.00    +0.000 N 
ATOM      2  C   UNL     1       1.757   6.746  20.513  0.00  0.00    +0.000 C 
ATOM      3  O   UNL     1       0.873   6.048  20.997  0.00  0.00    +0.000 OA
ATOM      4  H   UNL     1       2.623   8.546  20.062  0.00  0.00    +0.000 HD
ENDROOT
BRANCH   1   9
ATOM      5  C   UNL     1      -1.858  11.742  23.080  0.00  0.00    +0.000 C 
ATOM      6  C   UNL     1      -0.901  10.804  22.411  0.00  0.00    +0.000 A 
ATOM      7  C   UNL     1      -0.190   9.872  23.155  0.00  0.00    +0.000 A 
ATOM      8  C   UNL     1       0.700   8.999  22.529  0.00  0.00    +0.000 A 
ATOM      9  C   UNL     1       0.915   9.020  21.143  0.00  0.00    +0.000 A 
ATOM     10  C   UNL     1       0.197   9.962  20.375  0.00  0.00    +0.000 A 
ATOM     11  C   UNL     1       0.304  10.132  18.883  0.00  0.00    +0.000 C 
ATOM     12  C   UNL     1      -0.702  10.842  21.026  0.00  0.00    +0.000 A 
ENDBRANCH   1   9
BRANCH   2  13
ATOM     13  C   UNL     1       2.907   6.098  19.820  0.00  0.00    +0.000 C 
ATOM     14  C   UNL     1       2.780   5.847  18.506  0.00  0.00    +0.000 C 
BRANCH  14  15
ATOM     15  C   UNL     1       3.788   5.209  17.728  0.00  0.00    +0.000 A 
ATOM     16  C   UNL     1       3.759   4.060  16.955  0.00  0.00    +0.000 A 
ATOM     17  C   UNL     1       5.006   3.778  16.318  0.00  0.00    +0.000 A 
ATOM     18  C   UNL     1       5.954   4.725  16.629  0.00  0.00    +0.000 A 
ATOM     19  S   UNL     1       5.362   5.926  17.665  0.00  0.00    +0.000 S 
BRANCH  18  20
ATOM     20  N   UNL     1       7.318   4.758  16.166  0.00  0.00    +0.000 N 
ATOM     21  O   UNL     1       7.514   5.337  15.088  0.00  0.00    +0.000 OA
ATOM     22  O   UNL     1       8.191   4.220  16.859  0.00  0.00    +0.000 OA
ENDBRANCH  18  20
ENDBRANCH  14  15
ENDBRANCH   2  13
TORSDOF 4
ENDMDL
MODEL 6
REMARK VINA RESULT:      -7.2      6.277      8.167
REMARK  Name = 
REMARK  6 active torsions:
REMARK  status: ('A' for Active; 'I' for Inactive)
REMARK    1  A    between atoms: C_1  and  C_2
REMARK    2  A    between atoms: C_5  and  N_6
REMARK    3  A    between atoms: C_7  and  C_9
REMARK    4  A    between atoms: C_10  and  C_11
REMARK    5  A    between atoms: C_14  and  N_15
REMARK    6  A    between atoms: C_19  and  C_20
REMARK                            x       y       z     vdW  Elec       q    Type
REMARK                         _______ _______ _______ _____ _____    ______ ____
ROOT
ATOM      1  N   UNL     1       3.194   6.494  18.639  0.00  0.00    +0.000 N 
ATOM      2  C   UNL     1       2.445   7.653  18.554  0.00  0.00    +0.000 C 
ATOM      3  O   UNL     1       2.254   8.342  17.559  0.00  0.00    +0.000 OA
ATOM      4  H   UNL     1       3.230   6.035  19.533  0.00  0.00    +0.000 HD
ENDROOT
BRANCH   1   9
ATOM      5  C   UNL     1       6.218   4.069  14.372  0.00  0.00    +0.000 C 
ATOM      6  C   UNL     1       5.428   4.694  15.481  0.00  0.00    +0.000 A 
ATOM      7  C   UNL     1       5.480   6.064  15.699  0.00  0.00    +0.000 A 
ATOM      8  C   UNL     1       4.743   6.643  16.732  0.00  0.00    +0.000 A 
ATOM      9  C   UNL     1       3.929   5.883  17.585  0.00  0.00    +0.000 A 
ATOM     10  C   UNL     1       3.867   4.488  17.372  0.00  0.00    +0.000 A 
ATOM     11  C   UNL     1       3.054   3.519  18.189  0.00  0.00    +0.000 C 
ATOM     12  C   UNL     1       4.622   3.916  16.320  0.00  0.00    +0.000 A 
ENDBRANCH   1   9
BRANCH   2  13
ATOM     13  C   UNL     1       1.832   8.054  19.853  0.00  0.00    +0.000 C 
ATOM     14  C   UNL     1       1.035   9.136  19.856  0.00  0.00    +0.000 C 
BRANCH  14  15
ATOM     15  C   UNL     1       0.408   9.645  21.029  0.00  0.00    +0.000 A 
ATOM     16  C   UNL     1       0.252   9.102  22.293  0.00  0.00    +0.000 A 
ATOM     17  C   UNL     1      -0.439   9.967  23.197  0.00  0.00    +0.000 A 
ATOM     18  C   UNL     1      -0.792  11.149  22.589  0.00  0.00    +0.000 A 
ATOM     19  S   UNL     1      -0.308  11.220  20.967  0.00  0.00    +0.000 S 
BRANCH  18  20
ATOM     20  N   UNL     1      -1.496  12.249  23.195  0.00  0.00    +0.000 N 
ATOM     21  O   UNL     1      -2.717  12.101  23.342  0.00  0.00    +0.000 OA
ATOM     22  O   UNL     1      -0.852  13.253  23.527  0.00  0.00    +0.000 OA
ENDBRANCH  18  20
ENDBRANCH  14  15
ENDBRANCH   2  13
TORSDOF 4
ENDMDL
MODEL 7
REMARK VINA RESULT:      -7.1      1.513      2.230
REMARK  Name = 
REMARK  6 active torsions:
REMARK  status: ('A' for Active; 'I' for Inactive)
REMARK    1  A    between atoms: C_1  and  C_2
REMARK    2  A    between atoms: C_5  and  N_6
REMARK    3  A    between atoms: C_7  and  C_9
REMARK    4  A    between atoms: C_10  and  C_11
REMARK    5  A    between atoms: C_14  and  N_15
REMARK    6  A    between atoms: C_19  and  C_20
REMARK                            x       y       z     vdW  Elec       q    Type
REMARK                         _______ _______ _______ _____ _____    ______ ____
ROOT
ATOM      1  N   UNL     1       6.185   7.267  17.281  0.00  0.00    +0.000 N 
ATOM      2  C   UNL     1       7.405   7.336  17.928  0.00  0.00    +0.000 C 
ATOM      3  O   UNL     1       7.939   6.461  18.599  0.00  0.00    +0.000 OA
ATOM      4  H   UNL     1       5.902   8.073  16.750  0.00  0.00    +0.000 HD
ENDROOT
BRANCH   1   9
ATOM      5  C   UNL     1       2.576   2.772  17.341  0.00  0.00    +0.000 C 
ATOM      6  C   UNL     1       3.509   3.944  17.326  0.00  0.00    +0.000 A 
ATOM      7  C   UNL     1       4.844   3.779  16.982  0.00  0.00    +0.000 A 
ATOM      8  C   UNL     1       5.710   4.873  16.968  0.00  0.00    +0.000 A 
ATOM      9  C   UNL     1       5.281   6.168  17.293  0.00  0.00    +0.000 A 
ATOM     10  C   UNL     1       3.925   6.349  17.642  0.00  0.00    +0.000 A 
ATOM     11  C   UNL     1       3.292   7.661  18.024  0.00  0.00    +0.000 C 
ATOM     12  C   UNL     1       3.059   5.228  17.654  0.00  0.00    +0.000 A 
ENDBRANCH   1   9
BRANCH   2  13
ATOM     13  C   UNL     1       8.092   8.647  17.752  0.00  0.00    +0.000 C 
ATOM     14  C   UNL     1       8.701   9.179  18.825  0.00  0.00    +0.000 C 
BRANCH  14  15
ATOM     15  C   UNL     1       9.370  10.436  18.805  0.00  0.00    +0.000 A 
ATOM     16  C   UNL     1       9.908  11.171  17.761  0.00  0.00    +0.000 A 
ATOM     17  C   UNL     1      10.486  12.407  18.183  0.00  0.00    +0.000 A 
ATOM     18  C   UNL     1      10.373  12.577  19.542  0.00  0.00    +0.000 A 
ATOM     19  S   UNL     1       9.591  11.280  20.300  0.00  0.00    +0.000 S 
BRANCH  18  20
ATOM     20  N   UNL     1      10.841  13.703  20.309  0.00  0.00    +0.000 N 
ATOM     21  O   UNL     1      10.287  13.888  21.402  0.00  0.00    +0.000 OA
ATOM     22  O   UNL     1      11.750  14.401  19.840  0.00  0.00    +0.000 OA
ENDBRANCH  18  20
ENDBRANCH  14  15
ENDBRANCH   2  13
TORSDOF 4
ENDMDL
MODEL 8
REMARK VINA RESULT:      -7.1      1.660      1.742
REMARK  Name = 
REMARK  6 active torsions:
REMARK  status: ('A' for Active; 'I' for Inactive)
REMARK    1  A    between atoms: C_1  and  C_2
REMARK    2  A    between atoms: C_5  and  N_6
REMARK    3  A    between atoms: C_7  and  C_9
REMARK    4  A    between atoms: C_10  and  C_11
REMARK    5  A    between atoms: C_14  and  N_15
REMARK    6  A    between atoms: C_19  and  C_20
REMARK                            x       y       z     vdW  Elec       q    Type
REMARK                         _______ _______ _______ _____ _____    ______ ____
ROOT
ATOM      1  N   UNL     1       5.941   7.142  17.554  0.00  0.00    +0.000 N 
ATOM      2  C   UNL     1       7.306   7.246  17.741  0.00  0.00    +0.000 C 
ATOM      3  O   UNL     1       8.099   6.332  17.941  0.00  0.00    +0.000 OA
ATOM      4  H   UNL     1       5.436   7.995  17.377  0.00  0.00    +0.000 HD
ENDROOT
BRANCH   1   9
ATOM      5  C   UNL     1       2.775   2.328  17.751  0.00  0.00    +0.000 C 
ATOM      6  C   UNL     1       3.601   3.578  17.694  0.00  0.00    +0.000 A 
ATOM      7  C   UNL     1       3.731   4.388  18.813  0.00  0.00    +0.000 A 
ATOM      8  C   UNL     1       4.501   5.550  18.758  0.00  0.00    +0.000 A 
ATOM      9  C   UNL     1       5.169   5.947  17.590  0.00  0.00    +0.000 A 
ATOM     10  C   UNL     1       5.045   5.130  16.445  0.00  0.00    +0.000 A 
ATOM     11  C   UNL     1       5.684   5.401  15.108  0.00  0.00    +0.000 C 
ATOM     12  C   UNL     1       4.258   3.954  16.518  0.00  0.00    +0.000 A 
ENDBRANCH   1   9
BRANCH   2  13
ATOM     13  C   UNL     1       7.804   8.650  17.685  0.00  0.00    +0.000 C 
ATOM     14  C   UNL     1       8.607   9.065  18.680  0.00  0.00    +0.000 C 
BRANCH  14  15
ATOM     15  C   UNL     1       9.132  10.385  18.766  0.00  0.00    +0.000 A 
ATOM     16  C   UNL     1       9.315  11.363  17.801  0.00  0.00    +0.000 A 
ATOM     17  C   UNL     1       9.867  12.573  18.324  0.00  0.00    +0.000 A 
ATOM     18  C   UNL     1      10.091  12.479  19.677  0.00  0.00    +0.000 A 
ATOM     19  S   UNL     1       9.651  10.971  20.310  0.00  0.00    +0.000 S 
BRANCH  18  20
ATOM     20  N   UNL     1      10.636  13.504  20.530  0.00  0.00    +0.000 N 
ATOM     21  O   UNL     1      11.615  14.120  20.085  0.00  0.00    +0.000 OA
ATOM     22  O   UNL     1      10.105  13.703  21.630  0.00  0.00    +0.000 OA
ENDBRANCH  18  20
ENDBRANCH  14  15
ENDBRANCH   2  13
TORSDOF 4
ENDMDL
MODEL 9
REMARK VINA RESULT:      -7.1      5.927      8.677
REMARK  Name = 
REMARK  6 active torsions:
REMARK  status: ('A' for Active; 'I' for Inactive)
REMARK    1  A    between atoms: C_1  and  C_2
REMARK    2  A    between atoms: C_5  and  N_6
REMARK    3  A    between atoms: C_7  and  C_9
REMARK    4  A    between atoms: C_10  and  C_11
REMARK    5  A    between atoms: C_14  and  N_15
REMARK    6  A    between atoms: C_19  and  C_20
REMARK                            x       y       z     vdW  Elec       q    Type
REMARK                         _______ _______ _______ _____ _____    ______ ____
ROOT
ATOM      1  N   UNL     1       0.555   9.745  17.650  0.00  0.00    +0.000 N 
ATOM      2  C   UNL     1       1.368   9.090  18.556  0.00  0.00    +0.000 C 
ATOM      3  O   UNL     1       1.134   8.870  19.738  0.00  0.00    +0.000 OA
ATOM      4  H   UNL     1       0.891   9.822  16.704  0.00  0.00    +0.000 HD
ENDROOT
BRANCH   1   9
ATOM      5  C   UNL     1      -4.615  12.053  18.735  0.00  0.00    +0.000 C 
ATOM      6  C   UNL     1      -3.268  11.459  18.454  0.00  0.00    +0.000 A 
ATOM      7  C   UNL     1      -3.154  10.287  17.719  0.00  0.00    +0.000 A 
ATOM      8  C   UNL     1      -1.898   9.737  17.458  0.00  0.00    +0.000 A 
ATOM      9  C   UNL     1      -0.714  10.330  17.919  0.00  0.00    +0.000 A 
ATOM     10  C   UNL     1      -0.817  11.523  18.667  0.00  0.00    +0.000 A 
ATOM     11  C   UNL     1       0.342  12.293  19.244  0.00  0.00    +0.000 C 
ATOM     12  C   UNL     1      -2.099  12.068  18.924  0.00  0.00    +0.000 A 
ENDBRANCH   1   9
BRANCH   2  13
ATOM     13  C   UNL     1       2.658   8.631  17.965  0.00  0.00    +0.000 C 
ATOM     14  C   UNL     1       2.941   7.319  18.035  0.00  0.00    +0.000 C 
BRANCH  14  15
ATOM     15  C   UNL     1       4.147   6.749  17.537  0.00  0.00    +0.000 A 
ATOM     16  C   UNL     1       4.728   6.789  16.280  0.00  0.00    +0.000 A 
ATOM     17  C   UNL     1       5.969   6.084  16.211  0.00  0.00    +0.000 A 
ATOM     18  C   UNL     1       6.296   5.523  17.424  0.00  0.00    +0.000 A 
ATOM     19  S   UNL     1       5.138   5.832  18.620  0.00  0.00    +0.000 S 
BRANCH  18  20
ATOM     20  N   UNL     1       7.471   4.745  17.720  0.00  0.00    +0.000 N 
ATOM     21  O   UNL     1       8.013   4.185  16.757  0.00  0.00    +0.000 OA
ATOM     22  O   UNL     1       7.860   4.685  18.894  0.00  0.00    +0.000 OA
ENDBRANCH  18  20
ENDBRANCH  14  15
ENDBRANCH   2  13
TORSDOF 4
ENDMDL
