MODEL 1
REMARK VINA RESULT:      -8.4      0.000      0.000
REMARK  Name = 
REMARK  8 active torsions:
REMARK  status: ('A' for Active; 'I' for Inactive)
REMARK    1  A    between atoms: C_2  and  O_13
REMARK    2  A    between atoms: N_3  and  C_4
REMARK    3  A    between atoms: C_7  and  N_8
REMARK    4  A    between atoms: O_13  and  C_14
REMARK    5  A    between atoms: C_18  and  O_19
REMARK    6  A    between atoms: O_19  and  C_20
REMARK    7  A    between atoms: N_22  and  C_23
REMARK    8  A    between atoms: C_26  and  N_27
REMARK                            x       y       z     vdW  Elec       q    Type
REMARK                         _______ _______ _______ _____ _____    ______ ____
ROOT
ATOM      1  C   UNL     1       6.961   6.666  18.007  0.00  0.00    +0.000 C 
ATOM      2  C   UNL     1       6.786   6.365  16.514  0.00  0.00    +0.000 C 
ATOM      3  O   UNL     1       6.535   4.962  16.324  0.00  0.00    +0.000 OA
ATOM      4  C   UNL     1       6.387   4.354  17.598  0.00  0.00    +0.000 C 
ATOM      5  C   UNL     1       4.971   3.885  17.928  0.00  0.00    +0.000 C 
ATOM      6  C   UNL     1       4.886   4.173  19.420  0.00  0.00    +0.000 C 
ATOM      7  O   UNL     1       5.709   5.327  19.673  0.00  0.00    +0.000 OA
ATOM      8  C   UNL     1       6.772   5.324  18.703  0.00  0.00    +0.000 C 
ENDROOT
BRANCH   1   9
ATOM      9  O   UNL     1       8.210   7.344  18.343  0.00  0.00    +0.000 OA
BRANCH   9  11
ATOM     10  O   UNL     1       7.454   9.354  17.625  0.00  0.00    +0.000 OA
ATOM     11  C   UNL     1       8.227   8.700  18.313  0.00  0.00    +0.000 C 
ATOM     12  N   UNL     1       9.240   9.181  19.105  0.00  0.00    +0.000 N 
ATOM     13  H   UNL     1       9.860   8.483  19.485  0.00  0.00    +0.000 HD
BRANCH  12  14
ATOM     14  C   UNL     1       9.533  10.551  19.334  0.00  0.00    +0.000 A 
ATOM     15  C   UNL     1       9.301  11.170  20.569  0.00  0.00    +0.000 A 
ATOM     16  C   UNL     1       9.579  12.525  20.765  0.00  0.00    +0.000 A 
ATOM     17  C   UNL     1      10.104  13.280  19.716  0.00  0.00    +0.000 A 
ATOM     18  C   UNL     1      10.357  12.679  18.477  0.00  0.00    +0.000 A 
ATOM     19  C   UNL     1      10.084  11.314  18.293  0.00  0.00    +0.000 A 
BRANCH  17  20
ATOM     20  N   UNL     1      10.393  14.705  19.928  0.00  0.00    +0.000 N 
ATOM     21  O   UNL     1      10.044  15.211  21.003  0.00  0.00    +0.000 OA
ATOM     22  O   UNL     1      10.975  15.314  19.020  0.00  0.00    +0.000 OA
ENDBRANCH  17  20
ENDBRANCH  12  14
ENDBRANCH   9  11
ENDBRANCH   1   9
BRANCH   5  23
ATOM     23  O   UNL     1       3.862   4.383  17.129  0.00  0.00    +0.000 OA
BRANCH  23  24
ATOM     24  C   UNL     1       2.826   5.085  17.651  0.00  0.00    +0.000 C 
ATOM     25  O   UNL     1       1.679   4.673  17.721  0.00  0.00    +0.000 OA
ATOM     26  N   UNL     1       3.250   6.345  18.007  0.00  0.00    +0.000 N 
ATOM     27  H   UNL     1       4.179   6.577  17.677  0.00  0.00    +0.000 HD
BRANCH  26  28
ATOM     28  C   UNL     1       2.458   7.373  18.572  0.00  0.00    +0.000 A 
ATOM     29  C   UNL     1       2.005   8.469  17.828  0.00  0.00    +0.000 A 
ATOM     30  C   UNL     1       1.301   9.516  18.438  0.00  0.00    +0.000 A 
ATOM     31  C   UNL     1       1.049   9.473  19.812  0.00  0.00    +0.000 A 
ATOM     32  C   UNL     1       1.435   8.354  20.561  0.00  0.00    +0.000 A 
ATOM     33  C   UNL     1       2.121   7.301  19.934  0.00  0.00    +0.000 A 
BRANCH  31  34
ATOM     34  N   UNL     1       0.409  10.620  20.470  0.00  0.00    +0.000 N 
ATOM     35  O   UNL     1      -0.318  10.392  21.449  0.00  0.00    +0.000 OA
ATOM     36  O   UNL     1       0.622  11.747  20.002  0.00  0.00    +0.000 OA
ENDBRANCH  31  34
ENDBRANCH  26  28
ENDBRANCH  23  24
ENDBRANCH   5  23
TORSDOF 8
ENDMDL
MODEL 2
REMARK VINA RESULT:      -8.2      0.441      1.188
REMARK  Name = 
REMARK  8 active torsions:
REMARK  status: ('A' for Active; 'I' for Inactive)
REMARK    1  A    between atoms: C_2  and  O_13
REMARK    2  A    between atoms: N_3  and  C_4
REMARK    3  A    between atoms: C_7  and  N_8
REMARK    4  A    between atoms: O_13  and  C_14
REMARK    5  A    between atoms: C_18  and  O_19
REMARK    6  A    between atoms: O_19  and  C_20
REMARK    7  A    between atoms: N_22  and  C_23
REMARK    8  A    between atoms: C_26  and  N_27
REMARK                            x       y       z     vdW  Elec       q    Type
REMARK                         _______ _______ _______ _____ _____    ______ ____
ROOT
ATOM      1  C   UNL     1       7.229   6.727  18.154  0.00  0.00    +0.000 C 
ATOM      2  C   UNL     1       7.075   6.590  16.635  0.00  0.00    +0.000 C 
ATOM      3  O   UNL     1       6.897   5.208  16.283  0.00  0.00    +0.000 OA
ATOM      4  C   UNL     1       6.777   4.451  17.479  0.00  0.00    +0.000 C 
ATOM      5  C   UNL     1       5.387   3.874  17.740  0.00  0.00    +0.000 C 
ATOM      6  C   UNL     1       5.283   3.985  19.254  0.00  0.00    +0.000 C 
ATOM      7  O   UNL     1       6.044   5.143  19.646  0.00  0.00    +0.000 OA
ATOM      8  C   UNL     1       7.109   5.306  18.691  0.00  0.00    +0.000 C 
ENDROOT
BRANCH   1   9
ATOM      9  O   UNL     1       8.441   7.425  18.576  0.00  0.00    +0.000 OA
BRANCH   9  11
ATOM     10  O   UNL     1       7.752   9.409  17.729  0.00  0.00    +0.000 OA
ATOM     11  C   UNL     1       8.450   8.780  18.515  0.00  0.00    +0.000 C 
ATOM     12  N   UNL     1       9.364   9.292  19.402  0.00  0.00    +0.000 N 
ATOM     13  H   UNL     1       9.944   8.610  19.866  0.00  0.00    +0.000 HD
BRANCH  12  14
ATOM     14  C   UNL     1       9.618  10.669  19.628  0.00  0.00    +0.000 A 
ATOM     15  C   UNL     1       9.191  11.330  20.787  0.00  0.00    +0.000 A 
ATOM     16  C   UNL     1       9.436  12.691  20.979  0.00  0.00    +0.000 A 
ATOM     17  C   UNL     1      10.123  13.413  20.002  0.00  0.00    +0.000 A 
ATOM     18  C   UNL     1      10.571  12.771  18.841  0.00  0.00    +0.000 A 
ATOM     19  C   UNL     1      10.330  11.399  18.663  0.00  0.00    +0.000 A 
BRANCH  17  20
ATOM     20  N   UNL     1      10.376  14.845  20.210  0.00  0.00    +0.000 N 
ATOM     21  O   UNL     1      11.304  15.364  19.576  0.00  0.00    +0.000 OA
ATOM     22  O   UNL     1       9.642  15.449  21.004  0.00  0.00    +0.000 OA
ENDBRANCH  17  20
ENDBRANCH  12  14
ENDBRANCH   9  11
ENDBRANCH   1   9
BRANCH   5  23
ATOM     23  O   UNL     1       4.256   4.404  16.994  0.00  0.00    +0.000 OA
BRANCH  23  24
ATOM     24  C   UNL     1       3.221   5.057  17.577  0.00  0.00    +0.000 C 
ATOM     25  O   UNL     1       2.108   4.581  17.740  0.00  0.00    +0.000 OA
ATOM     26  N   UNL     1       3.594   6.348  17.877  0.00  0.00    +0.000 N 
ATOM     27  H   UNL     1       4.482   6.625  17.474  0.00  0.00    +0.000 HD
BRANCH  26  28
ATOM     28  C   UNL     1       2.787   7.341  18.478  0.00  0.00    +0.000 A 
ATOM     29  C   UNL     1       2.382   7.274  19.817  0.00  0.00    +0.000 A 
ATOM     30  C   UNL     1       1.507   8.225  20.358  0.00  0.00    +0.000 A 
ATOM     31  C   UNL     1       1.022   9.258  19.550  0.00  0.00    +0.000 A 
ATOM     32  C   UNL     1       1.468   9.382  18.228  0.00  0.00    +0.000 A 
ATOM     33  C   UNL     1       2.362   8.434  17.704  0.00  0.00    +0.000 A 
BRANCH  31  34
ATOM     34  N   UNL     1       0.021  10.190  20.084  0.00  0.00    +0.000 N 
ATOM     35  O   UNL     1      -0.181  11.242  19.459  0.00  0.00    +0.000 OA
ATOM     36  O   UNL     1      -0.555   9.879  21.136  0.00  0.00    +0.000 OA
ENDBRANCH  31  34
ENDBRANCH  26  28
ENDBRANCH  23  24
ENDBRANCH   5  23
TORSDOF 8
ENDMDL
MODEL 3
REMARK VINA RESULT:      -8.2      0.324      1.121
REMARK  Name = 
REMARK  8 active torsions:
REMARK  status: ('A' for Active; 'I' for Inactive)
REMARK    1  A    between atoms: C_2  and  O_13
REMARK    2  A    between atoms: N_3  and  C_4
REMARK    3  A    between atoms: C_7  and  N_8
REMARK    4  A    between atoms: O_13  and  C_14
REMARK    5  A    between atoms: C_18  and  O_19
REMARK    6  A    between atoms: O_19  and  C_20
REMARK    7  A    between atoms: N_22  and  C_23
REMARK    8  A    between atoms: C_26  and  N_27
REMARK                            x       y       z     vdW  Elec       q    Type
REMARK                         _______ _______ _______ _____ _____    ______ ____
ROOT
ATOM      1  C   UNL     1       7.104   6.831  18.098  0.00  0.00    +0.000 C 
ATOM      2  C   UNL     1       6.948   6.522  16.605  0.00  0.00    +0.000 C 
ATOM      3  O   UNL     1       6.713   5.117  16.417  0.00  0.00    +0.000 OA
ATOM      4  C   UNL     1       6.558   4.512  17.693  0.00  0.00    +0.000 C 
ATOM      5  C   UNL     1       5.145   4.029  18.010  0.00  0.00    +0.000 C 
ATOM      6  C   UNL     1       5.041   4.321  19.500  0.00  0.00    +0.000 C 
ATOM      7  O   UNL     1       5.849   5.485  19.757  0.00  0.00    +0.000 OA
ATOM      8  C   UNL     1       6.922   5.489  18.798  0.00  0.00    +0.000 C 
ENDROOT
BRANCH   1   9
ATOM      9  O   UNL     1       8.343   7.523  18.445  0.00  0.00    +0.000 OA
BRANCH   9  11
ATOM     10  O   UNL     1       7.668   9.499  17.566  0.00  0.00    +0.000 OA
ATOM     11  C   UNL     1       8.361   8.877  18.363  0.00  0.00    +0.000 C 
ATOM     12  N   UNL     1       9.277   9.396  19.244  0.00  0.00    +0.000 N 
ATOM     13  H   UNL     1       9.851   8.717  19.719  0.00  0.00    +0.000 HD
BRANCH  12  14
ATOM     14  C   UNL     1       9.539  10.775  19.450  0.00  0.00    +0.000 A 
ATOM     15  C   UNL     1       9.549  11.701  18.399  0.00  0.00    +0.000 A 
ATOM     16  C   UNL     1       9.829  13.051  18.622  0.00  0.00    +0.000 A 
ATOM     17  C   UNL     1      10.100  13.493  19.918  0.00  0.00    +0.000 A 
ATOM     18  C   UNL     1      10.081  12.589  20.987  0.00  0.00    +0.000 A 
ATOM     19  C   UNL     1       9.788  11.235  20.752  0.00  0.00    +0.000 A 
BRANCH  17  20
ATOM     20  N   UNL     1      10.394  14.914  20.147  0.00  0.00    +0.000 N 
ATOM     21  O   UNL     1      11.369  15.404  19.560  0.00  0.00    +0.000 OA
ATOM     22  O   UNL     1       9.645  15.540  20.911  0.00  0.00    +0.000 OA
ENDBRANCH  17  20
ENDBRANCH  12  14
ENDBRANCH   9  11
ENDBRANCH   1   9
BRANCH   5  23
ATOM     23  O   UNL     1       4.038   4.513  17.198  0.00  0.00    +0.000 OA
BRANCH  23  24
ATOM     24  C   UNL     1       2.968   5.167  17.714  0.00  0.00    +0.000 C 
ATOM     25  O   UNL     1       1.856   4.679  17.837  0.00  0.00    +0.000 OA
ATOM     26  N   UNL     1       3.310   6.470  17.994  0.00  0.00    +0.000 N 
ATOM     27  H   UNL     1       4.212   6.749  17.626  0.00  0.00    +0.000 HD
BRANCH  26  28
ATOM     28  C   UNL     1       2.461   7.468  18.529  0.00  0.00    +0.000 A 
ATOM     29  C   UNL     1       1.972   8.532  17.760  0.00  0.00    +0.000 A 
ATOM     30  C   UNL     1       1.210   9.553  18.341  0.00  0.00    +0.000 A 
ATOM     31  C   UNL     1       0.934   9.519  19.710  0.00  0.00    +0.000 A 
ATOM     32  C   UNL     1       1.356   8.429  20.483  0.00  0.00    +0.000 A 
ATOM     33  C   UNL     1       2.102   7.400  19.885  0.00  0.00    +0.000 A 
BRANCH  31  34
ATOM     34  N   UNL     1       0.229  10.644  20.340  0.00  0.00    +0.000 N 
ATOM     35  O   UNL     1       0.415  11.777  19.870  0.00  0.00    +0.000 OA
ATOM     36  O   UNL     1      -0.500  10.398  21.311  0.00  0.00    +0.000 OA
ENDBRANCH  31  34
ENDBRANCH  26  28
ENDBRANCH  23  24
ENDBRANCH   5  23
TORSDOF 8
ENDMDL
MODEL 4
REMARK VINA RESULT:      -8.0      0.791      1.047
REMARK  Name = 
REMARK  8 active torsions:
REMARK  status: ('A' for Active; 'I' for Inactive)
REMARK    1  A    between atoms: C_2  and  O_13
REMARK    2  A    between atoms: N_3  and  C_4
REMARK    3  A    between atoms: C_7  and  N_8
REMARK    4  A    between atoms: O_13  and  C_14
REMARK    5  A    between atoms: C_18  and  O_19
REMARK    6  A    between atoms: O_19  and  C_20
REMARK    7  A    between atoms: N_22  and  C_23
REMARK    8  A    between atoms: C_26  and  N_27
REMARK                            x       y       z     vdW  Elec       q    Type
REMARK                         _______ _______ _______ _____ _____    ______ ____
ROOT
ATOM      1  C   UNL     1       6.585   6.201  18.130  0.00  0.00    +0.000 C 
ATOM      2  C   UNL     1       6.221   6.286  16.643  0.00  0.00    +0.000 C 
ATOM      3  O   UNL     1       5.914   4.975  16.139  0.00  0.00    +0.000 OA
ATOM      4  C   UNL     1       5.909   4.063  17.228  0.00  0.00    +0.000 C 
ATOM      5  C   UNL     1       4.535   3.514  17.604  0.00  0.00    +0.000 C 
ATOM      6  C   UNL     1       4.641   3.415  19.119  0.00  0.00    +0.000 C 
ATOM      7  O   UNL     1       5.517   4.474  19.550  0.00  0.00    +0.000 OA
ATOM      8  C   UNL     1       6.451   4.725  18.484  0.00  0.00    +0.000 C 
ENDROOT
BRANCH   1   9
ATOM      9  O   UNL     1       7.882   6.782  18.467  0.00  0.00    +0.000 OA
BRANCH   9  11
ATOM     10  O   UNL     1       7.822   8.491  16.982  0.00  0.00    +0.000 OA
ATOM     11  C   UNL     1       8.125   8.062  18.088  0.00  0.00    +0.000 C 
ATOM     12  N   UNL     1       8.780   8.738  19.087  0.00  0.00    +0.000 N 
ATOM     13  H   UNL     1       9.066   8.176  19.873  0.00  0.00    +0.000 HD
BRANCH  12  14
ATOM     14  C   UNL     1       9.164  10.104  19.049  0.00  0.00    +0.000 A 
ATOM     15  C   UNL     1       8.725  10.978  18.046  0.00  0.00    +0.000 A 
ATOM     16  C   UNL     1       9.132  12.314  18.018  0.00  0.00    +0.000 A 
ATOM     17  C   UNL     1       9.988  12.795  19.009  0.00  0.00    +0.000 A 
ATOM     18  C   UNL     1      10.429  11.943  20.030  0.00  0.00    +0.000 A 
ATOM     19  C   UNL     1      10.005  10.604  20.055  0.00  0.00    +0.000 A 
BRANCH  17  20
ATOM     20  N   UNL     1      10.413  14.200  18.974  0.00  0.00    +0.000 N 
ATOM     21  O   UNL     1      10.953  14.666  19.986  0.00  0.00    +0.000 OA
ATOM     22  O   UNL     1      10.210  14.836  17.930  0.00  0.00    +0.000 OA
ENDBRANCH  17  20
ENDBRANCH  12  14
ENDBRANCH   9  11
ENDBRANCH   1   9
BRANCH   5  23
ATOM     23  O   UNL     1       3.347   4.190  17.102  0.00  0.00    +0.000 OA
BRANCH  23  24
ATOM     24  C   UNL     1       2.518   4.918  17.890  0.00  0.00    +0.000 C 
ATOM     25  O   UNL     1       1.542   4.466  18.468  0.00  0.00    +0.000 OA
ATOM     26  N   UNL     1       2.897   6.241  17.867  0.00  0.00    +0.000 N 
ATOM     27  H   UNL     1       3.594   6.459  17.165  0.00  0.00    +0.000 HD
BRANCH  26  28
ATOM     28  C   UNL     1       2.270   7.310  18.550  0.00  0.00    +0.000 A 
ATOM     29  C   UNL     1       1.829   8.467  17.895  0.00  0.00    +0.000 A 
ATOM     30  C   UNL     1       1.296   9.546  18.612  0.00  0.00    +0.000 A 
ATOM     31  C   UNL     1       1.205   9.474  20.004  0.00  0.00    +0.000 A 
ATOM     32  C   UNL     1       1.576   8.300  20.672  0.00  0.00    +0.000 A 
ATOM     33  C   UNL     1       2.090   7.217  19.940  0.00  0.00    +0.000 A 
BRANCH  31  34
ATOM     34  N   UNL     1       0.749  10.645  20.765  0.00  0.00    +0.000 N 
ATOM     35  O   UNL     1       0.683  10.543  21.999  0.00  0.00    +0.000 OA
ATOM     36  O   UNL     1       0.444  11.664  20.129  0.00  0.00    +0.000 OA
ENDBRANCH  31  34
ENDBRANCH  26  28
ENDBRANCH  23  24
ENDBRANCH   5  23
TORSDOF 8
ENDMDL
MODEL 5
REMARK VINA RESULT:      -7.8      1.195      1.776
REMARK  Name = 
REMARK  8 active torsions:
REMARK  status: ('A' for Active; 'I' for Inactive)
REMARK    1  A    between atoms: C_2  and  O_13
REMARK    2  A    between atoms: N_3  and  C_4
REMARK    3  A    between atoms: C_7  and  N_8
REMARK    4  A    between atoms: O_13  and  C_14
REMARK    5  A    between atoms: C_18  and  O_19
REMARK    6  A    between atoms: O_19  and  C_20
REMARK    7  A    between atoms: N_22  and  C_23
REMARK    8  A    between atoms: C_26  and  N_27
REMARK                            x       y       z     vdW  Elec       q    Type
REMARK                         _______ _______ _______ _____ _____    ______ ____
ROOT
ATOM      1  C   UNL     1       6.213   6.632  17.397  0.00  0.00    +0.000 C 
ATOM      2  C   UNL     1       5.116   6.588  16.327  0.00  0.00    +0.000 C 
ATOM      3  O   UNL     1       4.733   5.225  16.075  0.00  0.00    +0.000 OA
ATOM      4  C   UNL     1       5.398   4.390  17.011  0.00  0.00    +0.000 C 
ATOM      5  C   UNL     1       4.492   3.751  18.062  0.00  0.00    +0.000 C 
ATOM      6  C   UNL     1       5.388   3.761  19.293  0.00  0.00    +0.000 C 
ATOM      7  O   UNL     1       6.239   4.917  19.185  0.00  0.00    +0.000 OA
ATOM      8  C   UNL     1       6.444   5.176  17.784  0.00  0.00    +0.000 C 
ENDROOT
BRANCH   1   9
ATOM      9  O   UNL     1       7.423   7.342  16.992  0.00  0.00    +0.000 OA
BRANCH   9  11
ATOM     10  O   UNL     1       8.505   7.604  18.965  0.00  0.00    +0.000 OA
ATOM     11  C   UNL     1       8.069   8.085  17.925  0.00  0.00    +0.000 C 
ATOM     12  N   UNL     1       8.103   9.404  17.546  0.00  0.00    +0.000 N 
ATOM     13  H   UNL     1       7.569   9.629  16.721  0.00  0.00    +0.000 HD
BRANCH  12  14
ATOM     14  C   UNL     1       8.725  10.457  18.265  0.00  0.00    +0.000 A 
ATOM     15  C   UNL     1       8.854  11.749  17.740  0.00  0.00    +0.000 A 
ATOM     16  C   UNL     1       9.488  12.765  18.459  0.00  0.00    +0.000 A 
ATOM     17  C   UNL     1      10.000  12.495  19.728  0.00  0.00    +0.000 A 
ATOM     18  C   UNL     1       9.870  11.215  20.280  0.00  0.00    +0.000 A 
ATOM     19  C   UNL     1       9.221  10.203  19.553  0.00  0.00    +0.000 A 
BRANCH  17  20
ATOM     20  N   UNL     1      10.666  13.568  20.479  0.00  0.00    +0.000 N 
ATOM     21  O   UNL     1      10.245  13.824  21.616  0.00  0.00    +0.000 OA
ATOM     22  O   UNL     1      11.613  14.150  19.932  0.00  0.00    +0.000 OA
ENDBRANCH  17  20
ENDBRANCH  12  14
ENDBRANCH   9  11
ENDBRANCH   1   9
BRANCH   5  23
ATOM     23  O   UNL     1       3.154   4.289  18.257  0.00  0.00    +0.000 OA
BRANCH  23  24
ATOM     24  C   UNL     1       2.891   5.366  19.037  0.00  0.00    +0.000 C 
ATOM     25  O   UNL     1       2.956   5.366  20.256  0.00  0.00    +0.000 OA
ATOM     26  N   UNL     1       2.468   6.416  18.255  0.00  0.00    +0.000 N 
ATOM     27  H   UNL     1       2.274   6.163  17.293  0.00  0.00    +0.000 HD
BRANCH  26  28
ATOM     28  C   UNL     1       2.088   7.702  18.704  0.00  0.00    +0.000 A 
ATOM     29  C   UNL     1       1.637   7.941  20.009  0.00  0.00    +0.000 A 
ATOM     30  C   UNL     1       1.180   9.208  20.395  0.00  0.00    +0.000 A 
ATOM     31  C   UNL     1       1.168  10.253  19.467  0.00  0.00    +0.000 A 
ATOM     32  C   UNL     1       1.678  10.052  18.178  0.00  0.00    +0.000 A 
ATOM     33  C   UNL     1       2.153   8.782  17.809  0.00  0.00    +0.000 A 
BRANCH  31  34
ATOM     34  N   UNL     1       0.588  11.550  19.840  0.00  0.00    +0.000 N 
ATOM     35  O   UNL     1       1.306  12.556  19.734  0.00  0.00    +0.000 OA
ATOM     36  O   UNL     1      -0.581  11.563  20.251  0.00  0.00    +0.000 OA
ENDBRANCH  31  34
ENDBRANCH  26  28
ENDBRANCH  23  24
ENDBRANCH   5  23
TORSDOF 8
ENDMDL
MODEL 6
REMARK VINA RESULT:      -7.7      0.915      1.331
REMARK  Name = 
REMARK  8 active torsions:
REMARK  status: ('A' for Active; 'I' for Inactive)
REMARK    1  A    between atoms: C_2  and  O_13
REMARK    2  A    between atoms: N_3  and  C_4
REMARK    3  A    between atoms: C_7  and  N_8
REMARK    4  A    between atoms: O_13  and  C_14
REMARK    5  A    between atoms: C_18  and  O_19
REMARK    6  A    between atoms: O_19  and  C_20
REMARK    7  A    between atoms: N_22  and  C_23
REMARK    8  A    between atoms: C_26  and  N_27
REMARK                            x       y       z     vdW  Elec       q    Type
REMARK                         _______ _______ _______ _____ _____    ______ ____
ROOT
ATOM      1  C   UNL     1       6.513   6.353  18.113  0.00  0.00    +0.000 C 
ATOM      2  C   UNL     1       5.737   6.610  16.816  0.00  0.00    +0.000 C 
ATOM      3  O   UNL     1       5.284   5.363  16.262  0.00  0.00    +0.000 OA
ATOM      4  C   UNL     1       5.583   4.325  17.184  0.00  0.00    +0.000 C 
ATOM      5  C   UNL     1       4.369   3.699  17.867  0.00  0.00    +0.000 C 
ATOM      6  C   UNL     1       4.906   3.418  19.263  0.00  0.00    +0.000 C 
ATOM      7  O   UNL     1       5.880   4.438  19.552  0.00  0.00    +0.000 OA
ATOM      8  C   UNL     1       6.471   4.841  18.304  0.00  0.00    +0.000 C 
ENDROOT
BRANCH   1   9
ATOM      9  O   UNL     1       7.859   6.920  18.132  0.00  0.00    +0.000 OA
BRANCH   9  11
ATOM     10  O   UNL     1       7.386   8.925  17.188  0.00  0.00    +0.000 OA
ATOM     11  C   UNL     1       7.984   8.268  18.032  0.00  0.00    +0.000 C 
ATOM     12  N   UNL     1       8.886   8.733  18.956  0.00  0.00    +0.000 N 
ATOM     13  H   UNL     1       9.380   8.022  19.473  0.00  0.00    +0.000 HD
BRANCH  12  14
ATOM     14  C   UNL     1       9.240  10.092  19.157  0.00  0.00    +0.000 A 
ATOM     15  C   UNL     1       9.374  10.651  20.435  0.00  0.00    +0.000 A 
ATOM     16  C   UNL     1       9.704  11.997  20.608  0.00  0.00    +0.000 A 
ATOM     17  C   UNL     1       9.911  12.805  19.489  0.00  0.00    +0.000 A 
ATOM     18  C   UNL     1       9.797  12.266  18.202  0.00  0.00    +0.000 A 
ATOM     19  C   UNL     1       9.474  10.908  18.040  0.00  0.00    +0.000 A 
BRANCH  17  20
ATOM     20  N   UNL     1      10.258  14.220  19.678  0.00  0.00    +0.000 N 
ATOM     21  O   UNL     1       9.588  15.065  19.068  0.00  0.00    +0.000 OA
ATOM     22  O   UNL     1      11.198  14.485  20.440  0.00  0.00    +0.000 OA
ENDBRANCH  17  20
ENDBRANCH  12  14
ENDBRANCH   9  11
ENDBRANCH   1   9
BRANCH   5  23
ATOM     23  O   UNL     1       3.095   4.401  17.816  0.00  0.00    +0.000 OA
BRANCH  23  24
ATOM     24  C   UNL     1       2.705   5.303  18.750  0.00  0.00    +0.000 C 
ATOM     25  O   UNL     1       2.523   5.041  19.928  0.00  0.00    +0.000 OA
ATOM     26  N   UNL     1       2.471   6.521  18.152  0.00  0.00    +0.000 N 
ATOM     27  H   UNL     1       2.468   6.490  17.139  0.00  0.00    +0.000 HD
BRANCH  26  28
ATOM     28  C   UNL     1       2.037   7.705  18.793  0.00  0.00    +0.000 A 
ATOM     29  C   UNL     1       1.746   7.757  20.162  0.00  0.00    +0.000 A 
ATOM     30  C   UNL     1       1.230   8.921  20.748  0.00  0.00    +0.000 A 
ATOM     31  C   UNL     1       0.995  10.049  19.957  0.00  0.00    +0.000 A 
ATOM     32  C   UNL     1       1.343  10.039  18.600  0.00  0.00    +0.000 A 
ATOM     33  C   UNL     1       1.880   8.873  18.029  0.00  0.00    +0.000 A 
BRANCH  31  34
ATOM     34  N   UNL     1       0.353  11.231  20.548  0.00  0.00    +0.000 N 
ATOM     35  O   UNL     1      -0.268  11.990  19.789  0.00  0.00    +0.000 OA
ATOM     36  O   UNL     1       0.479  11.407  21.768  0.00  0.00    +0.000 OA
ENDBRANCH  31  34
ENDBRANCH  26  28
ENDBRANCH  23  24
ENDBRANCH   5  23
TORSDOF 8
ENDMDL
MODEL 7
REMARK VINA RESULT:      -7.6      1.211      1.425
REMARK  Name = 
REMARK  8 active torsions:
REMARK  status: ('A' for Active; 'I' for Inactive)
REMARK    1  A    between atoms: C_2  and  O_13
REMARK    2  A    between atoms: N_3  and  C_4
REMARK    3  A    between atoms: C_7  and  N_8
REMARK    4  A    between atoms: O_13  and  C_14
REMARK    5  A    between atoms: C_18  and  O_19
REMARK    6  A    between atoms: O_19  and  C_20
REMARK    7  A    between atoms: N_22  and  C_23
REMARK    8  A    between atoms: C_26  and  N_27
REMARK                            x       y       z     vdW  Elec       q    Type
REMARK                         _______ _______ _______ _____ _____    ______ ____
ROOT
ATOM      1  C   UNL     1       6.179   6.677  17.323  0.00  0.00    +0.000 C 
ATOM      2  C   UNL     1       5.101   6.589  16.236  0.00  0.00    +0.000 C 
ATOM      3  O   UNL     1       4.747   5.215  16.008  0.00  0.00    +0.000 OA
ATOM      4  C   UNL     1       5.411   4.412  16.974  0.00  0.00    +0.000 C 
ATOM      5  C   UNL     1       4.500   3.781  18.024  0.00  0.00    +0.000 C 
ATOM      6  C   UNL     1       5.374   3.835  19.269  0.00  0.00    +0.000 C 
ATOM      7  O   UNL     1       6.207   5.003  19.149  0.00  0.00    +0.000 OA
ATOM      8  C   UNL     1       6.429   5.235  17.746  0.00  0.00    +0.000 C 
ENDROOT
BRANCH   1   9
ATOM      9  O   UNL     1       7.383   7.400  16.920  0.00  0.00    +0.000 OA
BRANCH   9  11
ATOM     10  O   UNL     1       8.544   7.557  18.859  0.00  0.00    +0.000 OA
ATOM     11  C   UNL     1       8.057   8.094  17.871  0.00  0.00    +0.000 C 
ATOM     12  N   UNL     1       8.054   9.435  17.575  0.00  0.00    +0.000 N 
ATOM     13  H   UNL     1       7.482   9.702  16.789  0.00  0.00    +0.000 HD
BRANCH  12  14
ATOM     14  C   UNL     1       8.689  10.452  18.333  0.00  0.00    +0.000 A 
ATOM     15  C   UNL     1       9.220  10.216  19.608  0.00  0.00    +0.000 A 
ATOM     16  C   UNL     1       9.824  11.237  20.344  0.00  0.00    +0.000 A 
ATOM     17  C   UNL     1       9.909  12.520  19.802  0.00  0.00    +0.000 A 
ATOM     18  C   UNL     1       9.399  12.777  18.523  0.00  0.00    +0.000 A 
ATOM     19  C   UNL     1       8.802  11.740  17.787  0.00  0.00    +0.000 A 
BRANCH  17  20
ATOM     20  N   UNL     1      10.545  13.591  20.581  0.00  0.00    +0.000 N 
ATOM     21  O   UNL     1      10.112  13.812  21.720  0.00  0.00    +0.000 OA
ATOM     22  O   UNL     1      11.482  14.207  20.052  0.00  0.00    +0.000 OA
ENDBRANCH  17  20
ENDBRANCH  12  14
ENDBRANCH   9  11
ENDBRANCH   1   9
BRANCH   5  23
ATOM     23  O   UNL     1       3.149   4.298  18.185  0.00  0.00    +0.000 OA
BRANCH  23  24
ATOM     24  C   UNL     1       2.848   5.361  18.972  0.00  0.00    +0.000 C 
ATOM     25  O   UNL     1       2.912   5.356  20.191  0.00  0.00    +0.000 OA
ATOM     26  N   UNL     1       2.390   6.400  18.195  0.00  0.00    +0.000 N 
ATOM     27  H   UNL     1       2.205   6.146  17.232  0.00  0.00    +0.000 HD
BRANCH  26  28
ATOM     28  C   UNL     1       1.964   7.670  18.652  0.00  0.00    +0.000 A 
ATOM     29  C   UNL     1       1.921   8.794  17.817  0.00  0.00    +0.000 A 
ATOM     30  C   UNL     1       1.584  10.057  18.322  0.00  0.00    +0.000 A 
ATOM     31  C   UNL     1       1.289  10.204  19.680  0.00  0.00    +0.000 A 
ATOM     32  C   UNL     1       1.261   9.081  20.517  0.00  0.00    +0.000 A 
ATOM     33  C   UNL     1       1.580   7.817  19.995  0.00  0.00    +0.000 A 
BRANCH  31  34
ATOM     34  N   UNL     1       1.043  11.544  20.230  0.00  0.00    +0.000 N 
ATOM     35  O   UNL     1       1.508  12.515  19.615  0.00  0.00    +0.000 OA
ATOM     36  O   UNL     1       0.396  11.625  21.284  0.00  0.00    +0.000 OA
ENDBRANCH  31  34
ENDBRANCH  26  28
ENDBRANCH  23  24
ENDBRANCH   5  23
TORSDOF 8
ENDMDL
MODEL 8
REMARK VINA RESULT:      -7.6      3.914      7.479
REMARK  Name = 
REMARK  8 active torsions:
REMARK  status: ('A' for Active; 'I' for Inactive)
REMARK    1  A    between atoms: C_2  and  O_13
REMARK    2  A    between atoms: N_3  and  C_4
REMARK    3  A    between atoms: C_7  and  N_8
REMARK    4  A    between atoms: O_13  and  C_14
REMARK    5  A    between atoms: C_18  and  O_19
REMARK    6  A    between atoms: O_19  and  C_20
REMARK    7  A    between atoms: N_22  and  C_23
REMARK    8  A    between atoms: C_26  and  N_27
REMARK                            x       y       z     vdW  Elec       q    Type
REMARK                         _______ _______ _______ _____ _____    ______ ____
ROOT
ATOM      1  C   UNL     1       1.979   5.049  20.584  0.00  0.00    +0.000 C 
ATOM      2  C   UNL     1       2.418   3.990  21.603  0.00  0.00    +0.000 C 
ATOM      3  O   UNL     1       1.879   2.708  21.240  0.00  0.00    +0.000 OA
ATOM      4  C   UNL     1       1.243   2.829  19.976  0.00  0.00    +0.000 C 
ATOM      5  C   UNL     1       1.951   2.114  18.827  0.00  0.00    +0.000 C 
ATOM      6  C   UNL     1       1.703   3.067  17.666  0.00  0.00    +0.000 C 
ATOM      7  O   UNL     1       1.646   4.396  18.218  0.00  0.00    +0.000 OA
ATOM      8  C   UNL     1       1.144   4.288  19.562  0.00  0.00    +0.000 C 
ENDROOT
BRANCH   1   9
ATOM      9  O   UNL     1       1.302   6.203  21.169  0.00  0.00    +0.000 OA
BRANCH   9  11
ATOM     10  O   UNL     1       2.313   7.620  19.718  0.00  0.00    +0.000 OA
ATOM     11  C   UNL     1       1.440   7.403  20.550  0.00  0.00    +0.000 C 
ATOM     12  N   UNL     1       0.516   8.297  21.032  0.00  0.00    +0.000 N 
ATOM     13  H   UNL     1      -0.029   7.974  21.816  0.00  0.00    +0.000 HD
BRANCH  12  14
ATOM     14  C   UNL     1       0.351   9.636  20.591  0.00  0.00    +0.000 A 
ATOM     15  C   UNL     1      -0.416   9.965  19.466  0.00  0.00    +0.000 A 
ATOM     16  C   UNL     1      -0.549  11.288  19.040  0.00  0.00    +0.000 A 
ATOM     17  C   UNL     1       0.088  12.308  19.748  0.00  0.00    +0.000 A 
ATOM     18  C   UNL     1       0.848  12.005  20.884  0.00  0.00    +0.000 A 
ATOM     19  C   UNL     1       0.966  10.672  21.311  0.00  0.00    +0.000 A 
BRANCH  17  20
ATOM     20  N   UNL     1      -0.055  13.698  19.294  0.00  0.00    +0.000 N 
ATOM     21  O   UNL     1       0.877  14.191  18.644  0.00  0.00    +0.000 OA
ATOM     22  O   UNL     1      -1.102  14.292  19.585  0.00  0.00    +0.000 OA
ENDBRANCH  17  20
ENDBRANCH  12  14
ENDBRANCH   9  11
ENDBRANCH   1   9
BRANCH   5  23
ATOM     23  O   UNL     1       3.332   1.693  19.006  0.00  0.00    +0.000 OA
BRANCH  23  24
ATOM     24  C   UNL     1       4.354   2.560  19.212  0.00  0.00    +0.000 C 
ATOM     25  O   UNL     1       5.059   2.572  20.209  0.00  0.00    +0.000 OA
ATOM     26  N   UNL     1       4.415   3.462  18.174  0.00  0.00    +0.000 N 
ATOM     27  H   UNL     1       3.618   3.428  17.549  0.00  0.00    +0.000 HD
BRANCH  26  28
ATOM     28  C   UNL     1       5.336   4.527  18.036  0.00  0.00    +0.000 A 
ATOM     29  C   UNL     1       6.666   4.434  18.465  0.00  0.00    +0.000 A 
ATOM     30  C   UNL     1       7.527   5.537  18.398  0.00  0.00    +0.000 A 
ATOM     31  C   UNL     1       7.055   6.755  17.901  0.00  0.00    +0.000 A 
ATOM     32  C   UNL     1       5.748   6.850  17.404  0.00  0.00    +0.000 A 
ATOM     33  C   UNL     1       4.901   5.731  17.457  0.00  0.00    +0.000 A 
BRANCH  31  34
ATOM     34  N   UNL     1       7.923   7.939  17.933  0.00  0.00    +0.000 N 
ATOM     35  O   UNL     1       7.748   8.807  17.065  0.00  0.00    +0.000 OA
ATOM     36  O   UNL     1       8.789   7.997  18.818  0.00  0.00    +0.000 OA
ENDBRANCH  31  34
ENDBRANCH  26  28
ENDBRANCH  23  24
ENDBRANCH   5  23
TORSDOF 8
ENDMDL
MODEL 9
REMARK VINA RESULT:      -7.5      4.074      7.441
REMARK  Name = 
REMARK  8 active torsions:
REMARK  status: ('A' for Active; 'I' for Inactive)
REMARK    1  A    between atoms: C_2  and  O_13
REMARK    2  A    between atoms: N_3  and  C_4
REMARK    3  A    between atoms: C_7  and  N_8
REMARK    4  A    between atoms: O_13  and  C_14
REMARK    5  A    between atoms: C_18  and  O_19
REMARK    6  A    between atoms: O_19  and  C_20
REMARK    7  A    between atoms: N_22  and  C_23
REMARK    8  A    between atoms: C_26  and  N_27
REMARK                            x       y       z     vdW  Elec       q    Type
REMARK                         _______ _______ _______ _____ _____    ______ ____
ROOT
ATOM      1  C   UNL     1       2.022   4.780  20.628  0.00  0.00    +0.000 C 
ATOM      2  C   UNL     1       2.388   3.684  21.636  0.00  0.00    +0.000 C 
ATOM      3  O   UNL     1       1.759   2.447  21.262  0.00  0.00    +0.000 OA
ATOM      4  C   UNL     1       1.129   2.624  20.002  0.00  0.00    +0.000 C 
ATOM      5  C   UNL     1       1.782   1.872  18.844  0.00  0.00    +0.000 C 
ATOM      6  C   UNL     1       1.599   2.851  17.693  0.00  0.00    +0.000 C 
ATOM      7  O   UNL     1       1.637   4.175  18.257  0.00  0.00    +0.000 OA
ATOM      8  C   UNL     1       1.132   4.090  19.602  0.00  0.00    +0.000 C 
ENDROOT
BRANCH   1   9
ATOM      9  O   UNL     1       1.430   5.975  21.225  0.00  0.00    +0.000 OA
BRANCH   9  11
ATOM     10  O   UNL     1       2.495   7.336  19.762  0.00  0.00    +0.000 OA
ATOM     11  C   UNL     1       1.612   7.161  20.593  0.00  0.00    +0.000 C 
ATOM     12  N   UNL     1       0.718   8.093  21.059  0.00  0.00    +0.000 N 
ATOM     13  H   UNL     1       0.159   7.799  21.845  0.00  0.00    +0.000 HD
BRANCH  12  14
ATOM     14  C   UNL     1       0.601   9.431  20.601  0.00  0.00    +0.000 A 
ATOM     15  C   UNL     1       0.933  10.529  21.405  0.00  0.00    +0.000 A 
ATOM     16  C   UNL     1       0.791  11.838  20.939  0.00  0.00    +0.000 A 
ATOM     17  C   UNL     1       0.316  12.063  19.646  0.00  0.00    +0.000 A 
ATOM     18  C   UNL     1      -0.008  10.980  18.820  0.00  0.00    +0.000 A 
ATOM     19  C   UNL     1       0.148   9.667  19.294  0.00  0.00    +0.000 A 
BRANCH  17  20
ATOM     20  N   UNL     1       0.169  13.442  19.162  0.00  0.00    +0.000 N 
ATOM     21  O   UNL     1       0.728  14.341  19.804  0.00  0.00    +0.000 OA
ATOM     22  O   UNL     1      -0.504  13.622  18.137  0.00  0.00    +0.000 OA
ENDBRANCH  17  20
ENDBRANCH  12  14
ENDBRANCH   9  11
ENDBRANCH   1   9
BRANCH   5  23
ATOM     23  O   UNL     1       3.131   1.352  19.015  0.00  0.00    +0.000 OA
BRANCH  23  24
ATOM     24  C   UNL     1       4.201   2.138  19.289  0.00  0.00    +0.000 C 
ATOM     25  O   UNL     1       4.921   2.006  20.266  0.00  0.00    +0.000 OA
ATOM     26  N   UNL     1       4.296   3.140  18.351  0.00  0.00    +0.000 N 
ATOM     27  H   UNL     1       3.489   3.215  17.743  0.00  0.00    +0.000 HD
BRANCH  26  28
ATOM     28  C   UNL     1       5.271   4.164  18.306  0.00  0.00    +0.000 A 
ATOM     29  C   UNL     1       5.479   5.052  19.368  0.00  0.00    +0.000 A 
ATOM     30  C   UNL     1       6.388   6.113  19.257  0.00  0.00    +0.000 A 
ATOM     31  C   UNL     1       7.097   6.295  18.067  0.00  0.00    +0.000 A 
ATOM     32  C   UNL     1       6.954   5.378  17.018  0.00  0.00    +0.000 A 
ATOM     33  C   UNL     1       6.055   4.307  17.149  0.00  0.00    +0.000 A 
BRANCH  31  34
ATOM     34  N   UNL     1       7.967   7.469  17.911  0.00  0.00    +0.000 N 
ATOM     35  O   UNL     1       7.927   8.078  16.831  0.00  0.00    +0.000 OA
ATOM     36  O   UNL     1       8.700   7.775  18.862  0.00  0.00    +0.000 OA
ENDBRANCH  31  34
ENDBRANCH  26  28
ENDBRANCH  23  24
ENDBRANCH   5  23
TORSDOF 8
ENDMDL
