MODEL 1
REMARK VINA RESULT:      -7.1      0.000      0.000
REMARK  Name = 
REMARK  6 active torsions:
REMARK  status: ('A' for Active; 'I' for Inactive)
REMARK    1  A    between atoms: N_1  and  C_2
REMARK    2  A    between atoms: C_2  and  N_4
REMARK    3  A    between atoms: N_4  and  N_5
REMARK    4  A    between atoms: C_6  and  C_8
REMARK    5  A    between atoms: C_13  and  C_14
REMARK    6  A    between atoms: C_14  and  O_16
REMARK                            x       y       z     vdW  Elec       q    Type
REMARK                         _______ _______ _______ _____ _____    ______ ____
ROOT
ATOM      1  N   UNL     1       5.977   3.935  18.562  0.00  0.00    +0.000 N 
ATOM      2  C   UNL     1       4.960   3.975  17.638  0.00  0.00    +0.000 C 
ATOM      3  O   UNL     1       5.136   4.300  16.465  0.00  0.00    +0.000 OA
ATOM      4  H   UNL     1       5.826   3.709  19.546  0.00  0.00    +0.000 HD
ENDROOT
BRANCH   2   5
ATOM      5  C   UNL     1       3.606   3.520  18.071  0.00  0.00    +0.000 A 
ATOM      6  C   UNL     1       2.543   4.319  17.602  0.00  0.00    +0.000 A 
ATOM      7  C   UNL     1       1.219   4.041  17.945  0.00  0.00    +0.000 A 
ATOM      8  C   UNL     1       0.931   2.955  18.760  0.00  0.00    +0.000 A 
ATOM      9  C   UNL     1       1.965   2.149  19.234  0.00  0.00    +0.000 A 
ATOM     10  C   UNL     1       3.309   2.433  18.915  0.00  0.00    +0.000 A 
BRANCH  10  11
ATOM     11  C   UNL     1       4.340   1.527  19.477  0.00  0.00    +0.000 C 
ATOM     12  O   UNL     1       4.984   1.781  20.482  0.00  0.00    +0.000 OA
BRANCH  11  13
ATOM     13  O   UNL     1       4.541   0.401  18.761  0.00  0.00    +0.000 OA
ATOM     14  H   UNL     1       3.747  -0.028  18.388  0.00  0.00    +0.000 HD
ENDBRANCH  11  13
ENDBRANCH  10  11
ENDBRANCH   2   5
BRANCH   1  15
ATOM     15  N   UNL     1       7.225   4.453  18.220  0.00  0.00    +0.000 N 
ATOM     16  H   UNL     1       7.742   3.978  17.483  0.00  0.00    +0.000 HD
BRANCH  15  17
ATOM     17  C   UNL     1       7.693   5.624  18.736  0.00  0.00    +0.000 C 
ATOM     18  S   UNL     1       7.641   7.044  17.878  0.00  0.00    +0.000 S 
BRANCH  17  19
ATOM     19  N   UNL     1       8.239   5.582  19.975  0.00  0.00    +0.000 N 
ATOM     20  H   UNL     1       7.948   6.281  20.647  0.00  0.00    +0.000 HD
ATOM     21  H   UNL     1       8.582   4.707  20.364  0.00  0.00    +0.000 HD
ENDBRANCH  17  19
ENDBRANCH  15  17
ENDBRANCH   1  15
TORSDOF 6
ENDMDL
MODEL 2
REMARK VINA RESULT:      -7.1      2.296      2.370
REMARK  Name = 
REMARK  6 active torsions:
REMARK  status: ('A' for Active; 'I' for Inactive)
REMARK    1  A    between atoms: N_1  and  C_2
REMARK    2  A    between atoms: C_2  and  N_4
REMARK    3  A    between atoms: N_4  and  N_5
REMARK    4  A    between atoms: C_6  and  C_8
REMARK    5  A    between atoms: C_13  and  C_14
REMARK    6  A    between atoms: C_14  and  O_16
REMARK                            x       y       z     vdW  Elec       q    Type
REMARK                         _______ _______ _______ _____ _____    ______ ____
ROOT
ATOM      1  N   UNL     1       5.501   3.907  17.769  0.00  0.00    +0.000 N 
ATOM      2  C   UNL     1       5.205   4.557  18.944  0.00  0.00    +0.000 C 
ATOM      3  O   UNL     1       5.906   5.456  19.405  0.00  0.00    +0.000 OA
ATOM      4  H   UNL     1       4.946   3.130  17.407  0.00  0.00    +0.000 HD
ENDROOT
BRANCH   2   5
ATOM      5  C   UNL     1       3.930   4.201  19.635  0.00  0.00    +0.000 A 
ATOM      6  C   UNL     1       2.978   5.241  19.677  0.00  0.00    +0.000 A 
ATOM      7  C   UNL     1       1.748   5.074  20.314  0.00  0.00    +0.000 A 
ATOM      8  C   UNL     1       1.442   3.862  20.916  0.00  0.00    +0.000 A 
ATOM      9  C   UNL     1       2.366   2.818  20.885  0.00  0.00    +0.000 A 
ATOM     10  C   UNL     1       3.623   2.981  20.267  0.00  0.00    +0.000 A 
BRANCH  10  11
ATOM     11  C   UNL     1       4.544   1.819  20.296  0.00  0.00    +0.000 C 
ATOM     12  O   UNL     1       5.227   1.526  21.263  0.00  0.00    +0.000 OA
BRANCH  11  13
ATOM     13  O   UNL     1       4.597   1.122  19.142  0.00  0.00    +0.000 OA
ATOM     14  H   UNL     1       3.787   1.117  18.595  0.00  0.00    +0.000 HD
ENDBRANCH  11  13
ENDBRANCH  10  11
ENDBRANCH   2   5
BRANCH   1  15
ATOM     15  N   UNL     1       6.733   4.138  17.158  0.00  0.00    +0.000 N 
ATOM     16  H   UNL     1       7.547   3.679  17.561  0.00  0.00    +0.000 HD
BRANCH  15  17
ATOM     17  C   UNL     1       6.847   4.832  15.992  0.00  0.00    +0.000 C 
ATOM     18  S   UNL     1       6.337   4.202  14.543  0.00  0.00    +0.000 S 
BRANCH  17  19
ATOM     19  N   UNL     1       7.430   6.053  16.050  0.00  0.00    +0.000 N 
ATOM     20  H   UNL     1       7.572   6.469  16.962  0.00  0.00    +0.000 HD
ATOM     21  H   UNL     1       8.060   6.367  15.316  0.00  0.00    +0.000 HD
ENDBRANCH  17  19
ENDBRANCH  15  17
ENDBRANCH   1  15
TORSDOF 6
ENDMDL
MODEL 3
REMARK VINA RESULT:      -7.0      2.168      2.380
REMARK  Name = 
REMARK  6 active torsions:
REMARK  status: ('A' for Active; 'I' for Inactive)
REMARK    1  A    between atoms: N_1  and  C_2
REMARK    2  A    between atoms: C_2  and  N_4
REMARK    3  A    between atoms: N_4  and  N_5
REMARK    4  A    between atoms: C_6  and  C_8
REMARK    5  A    between atoms: C_13  and  C_14
REMARK    6  A    between atoms: C_14  and  O_16
REMARK                            x       y       z     vdW  Elec       q    Type
REMARK                         _______ _______ _______ _____ _____    ______ ____
ROOT
ATOM      1  N   UNL     1       4.962   5.476  17.751  0.00  0.00    +0.000 N 
ATOM      2  C   UNL     1       4.957   4.918  19.008  0.00  0.00    +0.000 C 
ATOM      3  O   UNL     1       5.962   4.852  19.714  0.00  0.00    +0.000 OA
ATOM      4  H   UNL     1       4.140   5.491  17.146  0.00  0.00    +0.000 HD
ENDROOT
BRANCH   2   5
ATOM      5  C   UNL     1       3.650   4.452  19.558  0.00  0.00    +0.000 A 
ATOM      6  C   UNL     1       2.794   5.486  19.988  0.00  0.00    +0.000 A 
ATOM      7  C   UNL     1       1.548   5.211  20.553  0.00  0.00    +0.000 A 
ATOM      8  C   UNL     1       1.131   3.896  20.696  0.00  0.00    +0.000 A 
ATOM      9  C   UNL     1       1.959   2.855  20.275  0.00  0.00    +0.000 A 
ATOM     10  C   UNL     1       3.230   3.118  19.725  0.00  0.00    +0.000 A 
BRANCH  10  11
ATOM     11  C   UNL     1       4.044   1.946  19.320  0.00  0.00    +0.000 C 
ATOM     12  O   UNL     1       3.730   1.187  18.419  0.00  0.00    +0.000 OA
BRANCH  11  13
ATOM     13  O   UNL     1       5.157   1.760  20.061  0.00  0.00    +0.000 OA
ATOM     14  H   UNL     1       5.601   0.893  19.976  0.00  0.00    +0.000 HD
ENDBRANCH  11  13
ENDBRANCH  10  11
ENDBRANCH   2   5
BRANCH   1  15
ATOM     15  N   UNL     1       6.181   5.820  17.167  0.00  0.00    +0.000 N 
ATOM     16  H   UNL     1       6.544   6.751  17.361  0.00  0.00    +0.000 HD
BRANCH  15  17
ATOM     17  C   UNL     1       6.937   4.921  16.479  0.00  0.00    +0.000 C 
ATOM     18  S   UNL     1       6.650   4.572  14.883  0.00  0.00    +0.000 S 
BRANCH  17  19
ATOM     19  N   UNL     1       7.922   4.288  17.161  0.00  0.00    +0.000 N 
ATOM     20  H   UNL     1       8.771   4.055  16.661  0.00  0.00    +0.000 HD
ATOM     21  H   UNL     1       8.015   4.400  18.167  0.00  0.00    +0.000 HD
ENDBRANCH  17  19
ENDBRANCH  15  17
ENDBRANCH   1  15
TORSDOF 6
ENDMDL
MODEL 4
REMARK VINA RESULT:      -6.9      1.607      1.844
REMARK  Name = 
REMARK  6 active torsions:
REMARK  status: ('A' for Active; 'I' for Inactive)
REMARK    1  A    between atoms: N_1  and  C_2
REMARK    2  A    between atoms: C_2  and  N_4
REMARK    3  A    between atoms: N_4  and  N_5
REMARK    4  A    between atoms: C_6  and  C_8
REMARK    5  A    between atoms: C_13  and  C_14
REMARK    6  A    between atoms: C_14  and  O_16
REMARK                            x       y       z     vdW  Elec       q    Type
REMARK                         _______ _______ _______ _____ _____    ______ ____
ROOT
ATOM      1  N   UNL     1       5.760   4.062  18.929  0.00  0.00    +0.000 N 
ATOM      2  C   UNL     1       4.620   4.656  18.441  0.00  0.00    +0.000 C 
ATOM      3  O   UNL     1       4.617   5.384  17.450  0.00  0.00    +0.000 OA
ATOM      4  H   UNL     1       5.773   3.494  19.777  0.00  0.00    +0.000 HD
ENDROOT
BRANCH   2   5
ATOM      5  C   UNL     1       3.324   4.325  19.105  0.00  0.00    +0.000 A 
ATOM      6  C   UNL     1       2.884   5.283  20.041  0.00  0.00    +0.000 A 
ATOM      7  C   UNL     1       1.705   5.104  20.765  0.00  0.00    +0.000 A 
ATOM      8  C   UNL     1       0.938   3.965  20.564  0.00  0.00    +0.000 A 
ATOM      9  C   UNL     1       1.351   3.004  19.641  0.00  0.00    +0.000 A 
ATOM     10  C   UNL     1       2.553   3.161  18.921  0.00  0.00    +0.000 A 
BRANCH  10  11
ATOM     11  C   UNL     1       2.915   2.079  17.973  0.00  0.00    +0.000 C 
ATOM     12  O   UNL     1       2.325   1.877  16.925  0.00  0.00    +0.000 OA
BRANCH  11  13
ATOM     13  O   UNL     1       3.940   1.302  18.381  0.00  0.00    +0.000 OA
ATOM     14  H   UNL     1       4.792   1.419  17.918  0.00  0.00    +0.000 HD
ENDBRANCH  11  13
ENDBRANCH  10  11
ENDBRANCH   2   5
BRANCH   1  15
ATOM     15  N   UNL     1       6.996   4.433  18.402  0.00  0.00    +0.000 N 
ATOM     16  H   UNL     1       7.331   3.918  17.590  0.00  0.00    +0.000 HD
BRANCH  15  17
ATOM     17  C   UNL     1       7.679   5.524  18.848  0.00  0.00    +0.000 C 
ATOM     18  S   UNL     1       7.729   6.941  17.985  0.00  0.00    +0.000 S 
BRANCH  17  19
ATOM     19  N   UNL     1       8.351   5.400  20.017  0.00  0.00    +0.000 N 
ATOM     20  H   UNL     1       8.019   5.927  20.815  0.00  0.00    +0.000 HD
ATOM     21  H   UNL     1       8.876   4.556  20.230  0.00  0.00    +0.000 HD
ENDBRANCH  17  19
ENDBRANCH  15  17
ENDBRANCH   1  15
TORSDOF 6
ENDMDL
MODEL 5
REMARK VINA RESULT:      -6.9      1.761      2.735
REMARK  Name = 
REMARK  6 active torsions:
REMARK  status: ('A' for Active; 'I' for Inactive)
REMARK    1  A    between atoms: N_1  and  C_2
REMARK    2  A    between atoms: C_2  and  N_4
REMARK    3  A    between atoms: N_4  and  N_5
REMARK    4  A    between atoms: C_6  and  C_8
REMARK    5  A    between atoms: C_13  and  C_14
REMARK    6  A    between atoms: C_14  and  O_16
REMARK                            x       y       z     vdW  Elec       q    Type
REMARK                         _______ _______ _______ _____ _____    ______ ____
ROOT
ATOM      1  N   UNL     1       5.814   3.882  18.797  0.00  0.00    +0.000 N 
ATOM      2  C   UNL     1       4.763   3.965  17.915  0.00  0.00    +0.000 C 
ATOM      3  O   UNL     1       4.909   4.244  16.726  0.00  0.00    +0.000 OA
ATOM      4  H   UNL     1       5.691   3.694  19.793  0.00  0.00    +0.000 HD
ENDROOT
BRANCH   2   5
ATOM      5  C   UNL     1       3.401   3.616  18.418  0.00  0.00    +0.000 A 
ATOM      6  C   UNL     1       3.065   2.252  18.299  0.00  0.00    +0.000 A 
ATOM      7  C   UNL     1       1.817   1.773  18.698  0.00  0.00    +0.000 A 
ATOM      8  C   UNL     1       0.880   2.649  19.229  0.00  0.00    +0.000 A 
ATOM      9  C   UNL     1       1.190   4.003  19.358  0.00  0.00    +0.000 A 
ATOM     10  C   UNL     1       2.439   4.503  18.936  0.00  0.00    +0.000 A 
BRANCH  10  11
ATOM     11  C   UNL     1       2.671   5.959  19.102  0.00  0.00    +0.000 C 
ATOM     12  O   UNL     1       2.730   6.742  18.169  0.00  0.00    +0.000 OA
BRANCH  11  13
ATOM     13  O   UNL     1       2.852   6.351  20.381  0.00  0.00    +0.000 OA
ATOM     14  H   UNL     1       3.649   6.885  20.567  0.00  0.00    +0.000 HD
ENDBRANCH  11  13
ENDBRANCH  10  11
ENDBRANCH   2   5
BRANCH   1  15
ATOM     15  N   UNL     1       7.078   4.304  18.388  0.00  0.00    +0.000 N 
ATOM     16  H   UNL     1       7.571   3.719  17.716  0.00  0.00    +0.000 HD
BRANCH  15  17
ATOM     17  C   UNL     1       7.593   5.512  18.748  0.00  0.00    +0.000 C 
ATOM     18  S   UNL     1       7.449   6.852  17.780  0.00  0.00    +0.000 S 
BRANCH  17  19
ATOM     19  N   UNL     1       8.265   5.575  19.923  0.00  0.00    +0.000 N 
ATOM     20  H   UNL     1       7.935   6.225  20.625  0.00  0.00    +0.000 HD
ATOM     21  H   UNL     1       8.786   4.773  20.269  0.00  0.00    +0.000 HD
ENDBRANCH  17  19
ENDBRANCH  15  17
ENDBRANCH   1  15
TORSDOF 6
ENDMDL
MODEL 6
REMARK VINA RESULT:      -6.7      1.712      2.004
REMARK  Name = 
REMARK  6 active torsions:
REMARK  status: ('A' for Active; 'I' for Inactive)
REMARK    1  A    between atoms: N_1  and  C_2
REMARK    2  A    between atoms: C_2  and  N_4
REMARK    3  A    between atoms: N_4  and  N_5
REMARK    4  A    between atoms: C_6  and  C_8
REMARK    5  A    between atoms: C_13  and  C_14
REMARK    6  A    between atoms: C_14  and  O_16
REMARK                            x       y       z     vdW  Elec       q    Type
REMARK                         _______ _______ _______ _____ _____    ______ ____
ROOT
ATOM      1  N   UNL     1       5.879   4.093  18.689  0.00  0.00    +0.000 N 
ATOM      2  C   UNL     1       4.673   4.370  18.089  0.00  0.00    +0.000 C 
ATOM      3  O   UNL     1       4.565   4.618  16.889  0.00  0.00    +0.000 OA
ATOM      4  H   UNL     1       5.977   3.931  19.692  0.00  0.00    +0.000 HD
ENDROOT
BRANCH   2   5
ATOM      5  C   UNL     1       3.441   4.280  18.926  0.00  0.00    +0.000 A 
ATOM      6  C   UNL     1       3.150   5.445  19.666  0.00  0.00    +0.000 A 
ATOM      7  C   UNL     1       2.047   5.507  20.519  0.00  0.00    +0.000 A 
ATOM      8  C   UNL     1       1.209   4.408  20.645  0.00  0.00    +0.000 A 
ATOM      9  C   UNL     1       1.475   3.246  19.922  0.00  0.00    +0.000 A 
ATOM     10  C   UNL     1       2.600   3.161  19.075  0.00  0.00    +0.000 A 
BRANCH  10  11
ATOM     11  C   UNL     1       2.807   1.879  18.358  0.00  0.00    +0.000 C 
ATOM     12  O   UNL     1       3.722   1.111  18.602  0.00  0.00    +0.000 OA
BRANCH  11  13
ATOM     13  O   UNL     1       1.914   1.642  17.375  0.00  0.00    +0.000 OA
ATOM     14  H   UNL     1       2.267   1.284  16.538  0.00  0.00    +0.000 HD
ENDBRANCH  11  13
ENDBRANCH  10  11
ENDBRANCH   2   5
BRANCH   1  15
ATOM     15  N   UNL     1       7.055   4.273  17.962  0.00  0.00    +0.000 N 
ATOM     16  H   UNL     1       7.600   3.441  17.742  0.00  0.00    +0.000 HD
BRANCH  15  17
ATOM     17  C   UNL     1       7.408   5.479  17.439  0.00  0.00    +0.000 C 
ATOM     18  S   UNL     1       7.780   6.779  18.402  0.00  0.00    +0.000 S 
BRANCH  17  19
ATOM     19  N   UNL     1       7.413   5.593  16.089  0.00  0.00    +0.000 N 
ATOM     20  H   UNL     1       7.375   4.744  15.540  0.00  0.00    +0.000 HD
ATOM     21  H   UNL     1       7.058   6.432  15.635  0.00  0.00    +0.000 HD
ENDBRANCH  17  19
ENDBRANCH  15  17
ENDBRANCH   1  15
TORSDOF 6
ENDMDL
MODEL 7
REMARK VINA RESULT:      -6.6      1.674      1.881
REMARK  Name = 
REMARK  6 active torsions:
REMARK  status: ('A' for Active; 'I' for Inactive)
REMARK    1  A    between atoms: N_1  and  C_2
REMARK    2  A    between atoms: C_2  and  N_4
REMARK    3  A    between atoms: N_4  and  N_5
REMARK    4  A    between atoms: C_6  and  C_8
REMARK    5  A    between atoms: C_13  and  C_14
REMARK    6  A    between atoms: C_14  and  O_16
REMARK                            x       y       z     vdW  Elec       q    Type
REMARK                         _______ _______ _______ _____ _____    ______ ____
ROOT
ATOM      1  N   UNL     1       5.751   3.882  18.431  0.00  0.00    +0.000 N 
ATOM      2  C   UNL     1       4.956   4.597  19.296  0.00  0.00    +0.000 C 
ATOM      3  O   UNL     1       5.261   5.712  19.717  0.00  0.00    +0.000 OA
ATOM      4  H   UNL     1       5.522   2.939  18.115  0.00  0.00    +0.000 HD
ENDROOT
BRANCH   2   5
ATOM      5  C   UNL     1       3.630   4.018  19.665  0.00  0.00    +0.000 A 
ATOM      6  C   UNL     1       2.611   4.971  19.866  0.00  0.00    +0.000 A 
ATOM      7  C   UNL     1       1.323   4.589  20.244  0.00  0.00    +0.000 A 
ATOM      8  C   UNL     1       1.027   3.245  20.423  0.00  0.00    +0.000 A 
ATOM      9  C   UNL     1       2.018   2.283  20.227  0.00  0.00    +0.000 A 
ATOM     10  C   UNL     1       3.330   2.657  19.869  0.00  0.00    +0.000 A 
BRANCH  10  11
ATOM     11  C   UNL     1       4.318   1.565  19.696  0.00  0.00    +0.000 C 
ATOM     12  O   UNL     1       5.213   1.334  20.492  0.00  0.00    +0.000 OA
BRANCH  11  13
ATOM     13  O   UNL     1       4.172   0.858  18.555  0.00  0.00    +0.000 OA
ATOM     14  H   UNL     1       4.814   0.139  18.400  0.00  0.00    +0.000 HD
ENDBRANCH  11  13
ENDBRANCH  10  11
ENDBRANCH   2   5
BRANCH   1  15
ATOM     15  N   UNL     1       7.037   4.344  18.153  0.00  0.00    +0.000 N 
ATOM     16  H   UNL     1       7.805   3.930  18.677  0.00  0.00    +0.000 HD
BRANCH  15  17
ATOM     17  C   UNL     1       7.294   5.209  17.133  0.00  0.00    +0.000 C 
ATOM     18  S   UNL     1       7.360   6.851  17.370  0.00  0.00    +0.000 S 
BRANCH  17  19
ATOM     19  N   UNL     1       7.461   4.680  15.897  0.00  0.00    +0.000 N 
ATOM     20  H   UNL     1       8.125   5.124  15.276  0.00  0.00    +0.000 HD
ATOM     21  H   UNL     1       7.279   3.695  15.723  0.00  0.00    +0.000 HD
ENDBRANCH  17  19
ENDBRANCH  15  17
ENDBRANCH   1  15
TORSDOF 6
ENDMDL
MODEL 8
REMARK VINA RESULT:      -6.6      2.059      3.233
REMARK  Name = 
REMARK  6 active torsions:
REMARK  status: ('A' for Active; 'I' for Inactive)
REMARK    1  A    between atoms: N_1  and  C_2
REMARK    2  A    between atoms: C_2  and  N_4
REMARK    3  A    between atoms: N_4  and  N_5
REMARK    4  A    between atoms: C_6  and  C_8
REMARK    5  A    between atoms: C_13  and  C_14
REMARK    6  A    between atoms: C_14  and  O_16
REMARK                            x       y       z     vdW  Elec       q    Type
REMARK                         _______ _______ _______ _____ _____    ______ ____
ROOT
ATOM      1  N   UNL     1       5.656   3.906  18.993  0.00  0.00    +0.000 N 
ATOM      2  C   UNL     1       4.470   3.402  18.513  0.00  0.00    +0.000 C 
ATOM      3  O   UNL     1       4.358   2.913  17.390  0.00  0.00    +0.000 OA
ATOM      4  H   UNL     1       5.741   4.353  19.907  0.00  0.00    +0.000 HD
ENDROOT
BRANCH   2   5
ATOM      5  C   UNL     1       3.298   3.377  19.437  0.00  0.00    +0.000 A 
ATOM      6  C   UNL     1       3.510   2.660  20.633  0.00  0.00    +0.000 A 
ATOM      7  C   UNL     1       2.500   2.521  21.585  0.00  0.00    +0.000 A 
ATOM      8  C   UNL     1       1.259   3.101  21.365  0.00  0.00    +0.000 A 
ATOM      9  C   UNL     1       1.026   3.817  20.190  0.00  0.00    +0.000 A 
ATOM     10  C   UNL     1       2.030   3.945  19.208  0.00  0.00    +0.000 A 
BRANCH  10  11
ATOM     11  C   UNL     1       1.684   4.713  17.988  0.00  0.00    +0.000 C 
ATOM     12  O   UNL     1       1.029   4.254  17.066  0.00  0.00    +0.000 OA
BRANCH  11  13
ATOM     13  O   UNL     1       2.187   5.965  17.958  0.00  0.00    +0.000 OA
ATOM     14  H   UNL     1       3.155   6.051  18.051  0.00  0.00    +0.000 HD
ENDBRANCH  11  13
ENDBRANCH  10  11
ENDBRANCH   2   5
BRANCH   1  15
ATOM     15  N   UNL     1       6.737   4.042  18.123  0.00  0.00    +0.000 N 
ATOM     16  H   UNL     1       7.443   3.309  18.138  0.00  0.00    +0.000 HD
BRANCH  15  17
ATOM     17  C   UNL     1       6.796   5.029  17.186  0.00  0.00    +0.000 C 
ATOM     18  S   UNL     1       6.997   6.622  17.603  0.00  0.00    +0.000 S 
BRANCH  17  19
ATOM     19  N   UNL     1       6.650   4.664  15.890  0.00  0.00    +0.000 N 
ATOM     20  H   UNL     1       7.250   3.931  15.531  0.00  0.00    +0.000 HD
ATOM     21  H   UNL     1       5.761   4.784  15.411  0.00  0.00    +0.000 HD
ENDBRANCH  17  19
ENDBRANCH  15  17
ENDBRANCH   1  15
TORSDOF 6
ENDMDL
MODEL 9
REMARK VINA RESULT:      -6.6      1.942      2.965
REMARK  Name = 
REMARK  6 active torsions:
REMARK  status: ('A' for Active; 'I' for Inactive)
REMARK    1  A    between atoms: N_1  and  C_2
REMARK    2  A    between atoms: C_2  and  N_4
REMARK    3  A    between atoms: N_4  and  N_5
REMARK    4  A    between atoms: C_6  and  C_8
REMARK    5  A    between atoms: C_13  and  C_14
REMARK    6  A    between atoms: C_14  and  O_16
REMARK                            x       y       z     vdW  Elec       q    Type
REMARK                         _______ _______ _______ _____ _____    ______ ____
ROOT
ATOM      1  N   UNL     1       5.800   3.935  18.508  0.00  0.00    +0.000 N 
ATOM      2  C   UNL     1       4.649   3.784  17.771  0.00  0.00    +0.000 C 
ATOM      3  O   UNL     1       4.648   3.704  16.544  0.00  0.00    +0.000 OA
ATOM      4  H   UNL     1       5.800   4.047  19.523  0.00  0.00    +0.000 HD
ENDROOT
BRANCH   2   5
ATOM      5  C   UNL     1       3.362   3.627  18.511  0.00  0.00    +0.000 A 
ATOM      6  C   UNL     1       2.849   2.314  18.520  0.00  0.00    +0.000 A 
ATOM      7  C   UNL     1       1.639   2.011  19.146  0.00  0.00    +0.000 A 
ATOM      8  C   UNL     1       0.920   3.015  19.780  0.00  0.00    +0.000 A 
ATOM      9  C   UNL     1       1.409   4.321  19.787  0.00  0.00    +0.000 A 
ATOM     10  C   UNL     1       2.618   4.645  19.137  0.00  0.00    +0.000 A 
BRANCH  10  11
ATOM     11  C   UNL     1       3.050   6.064  19.187  0.00  0.00    +0.000 C 
ATOM     12  O   UNL     1       3.795   6.570  18.365  0.00  0.00    +0.000 OA
BRANCH  11  13
ATOM     13  O   UNL     1       2.578   6.751  20.248  0.00  0.00    +0.000 OA
ATOM     14  H   UNL     1       2.501   6.262  21.089  0.00  0.00    +0.000 HD
ENDBRANCH  11  13
ENDBRANCH  10  11
ENDBRANCH   2   5
BRANCH   1  15
ATOM     15  N   UNL     1       7.000   4.192  17.847  0.00  0.00    +0.000 N 
ATOM     16  H   UNL     1       7.609   3.397  17.660  0.00  0.00    +0.000 HD
BRANCH  15  17
ATOM     17  C   UNL     1       7.303   5.419  17.340  0.00  0.00    +0.000 C 
ATOM     18  S   UNL     1       7.690   6.702  18.320  0.00  0.00    +0.000 S 
BRANCH  17  19
ATOM     19  N   UNL     1       7.244   5.567  15.995  0.00  0.00    +0.000 N 
ATOM     20  H   UNL     1       7.808   4.951  15.423  0.00  0.00    +0.000 HD
ATOM     21  H   UNL     1       6.415   5.952  15.549  0.00  0.00    +0.000 HD
ENDBRANCH  17  19
ENDBRANCH  15  17
ENDBRANCH   1  15
TORSDOF 6
ENDMDL
