MODEL 1
REMARK VINA RESULT:      -6.3      0.000      0.000
REMARK  Name = 
REMARK  6 active torsions:
REMARK  status: ('A' for Active; 'I' for Inactive)
REMARK    1  A    between atoms: N_1  and  C_2
REMARK    2  A    between atoms: C_4  and  O_5
REMARK    3  A    between atoms: C_7  and  O_8
REMARK    4  A    between atoms: N_12  and  C_13
REMARK    5  A    between atoms: C_13  and  C_14
REMARK    6  A    between atoms: C_14  and  O_15
REMARK                            x       y       z     vdW  Elec       q    Type
REMARK                         _______ _______ _______ _____ _____    ______ ____
ROOT
ATOM      1  C   UNL     1       5.297   4.388  18.171  0.00  0.00    +0.000 A 
ATOM      2  C   UNL     1       4.205   3.872  18.830  0.00  0.00    +0.000 A 
ATOM      3  C   UNL     1       4.111   2.806  19.732  0.00  0.00    +0.000 A 
ATOM      4  N   UNL     1       2.875   2.547  20.233  0.00  0.00    +0.000 NA
ATOM      5  C   UNL     1       1.819   3.325  19.844  0.00  0.00    +0.000 A 
ATOM      6  C   UNL     1       1.788   4.408  18.968  0.00  0.00    +0.000 A 
ATOM      7  C   UNL     1       3.060   4.672  18.452  0.00  0.00    +0.000 A 
ATOM      8  N   UNL     1       3.446   5.630  17.595  0.00  0.00    +0.000 NA
ATOM      9  N   UNL     1       4.770   5.424  17.421  0.00  0.00    +0.000 N 
ENDROOT
BRANCH   1  10
ATOM     10  N   UNL     1       6.619   4.092  18.143  0.00  0.00    +0.000 N 
ATOM     11  H   UNL     1       7.383   4.728  18.335  0.00  0.00    +0.000 HD
ATOM     12  H   UNL     1       6.960   3.145  17.963  0.00  0.00    +0.000 HD
ENDBRANCH   1  10
BRANCH   3  13
ATOM     13  O   UNL     1       5.131   2.010  20.175  0.00  0.00    +0.000 OA
ATOM     14  H   UNL     1       5.746   2.612  20.610  0.00  0.00    +0.000 HD
ENDBRANCH   3  13
BRANCH   5  15
ATOM     15  O   UNL     1       0.652   2.941  20.435  0.00  0.00    +0.000 OA
ATOM     16  H   UNL     1       0.217   2.515  19.673  0.00  0.00    +0.000 HD
ENDBRANCH   5  15
BRANCH   9  17
ATOM     17  C   UNL     1       5.476   6.289  16.487  0.00  0.00    +0.000 C 
BRANCH  17  18
ATOM     18  C   UNL     1       5.929   5.540  15.242  0.00  0.00    +0.000 C 
BRANCH  18  19
ATOM     19  O   UNL     1       7.343   5.346  15.232  0.00  0.00    +0.000 OA
ATOM     20  H   UNL     1       7.613   5.274  14.296  0.00  0.00    +0.000 HD
ENDBRANCH  18  19
ENDBRANCH  17  18
ENDBRANCH   9  17
TORSDOF 6
ENDMDL
MODEL 2
REMARK VINA RESULT:      -6.2      1.229      1.290
REMARK  Name = 
REMARK  6 active torsions:
REMARK  status: ('A' for Active; 'I' for Inactive)
REMARK    1  A    between atoms: N_1  and  C_2
REMARK    2  A    between atoms: C_4  and  O_5
REMARK    3  A    between atoms: C_7  and  O_8
REMARK    4  A    between atoms: N_12  and  C_13
REMARK    5  A    between atoms: C_13  and  C_14
REMARK    6  A    between atoms: C_14  and  O_15
REMARK                            x       y       z     vdW  Elec       q    Type
REMARK                         _______ _______ _______ _____ _____    ______ ____
ROOT
ATOM      1  C   UNL     1       4.616   4.060  17.142  0.00  0.00    +0.000 A 
ATOM      2  C   UNL     1       3.616   3.585  17.959  0.00  0.00    +0.000 A 
ATOM      3  C   UNL     1       3.351   2.285  18.405  0.00  0.00    +0.000 A 
ATOM      4  N   UNL     1       2.282   2.137  19.230  0.00  0.00    +0.000 NA
ATOM      5  C   UNL     1       1.546   3.236  19.576  0.00  0.00    +0.000 A 
ATOM      6  C   UNL     1       1.713   4.570  19.208  0.00  0.00    +0.000 A 
ATOM      7  C   UNL     1       2.812   4.721  18.357  0.00  0.00    +0.000 A 
ATOM      8  N   UNL     1       3.306   5.836  17.798  0.00  0.00    +0.000 NA
ATOM      9  N   UNL     1       4.356   5.417  17.060  0.00  0.00    +0.000 N 
ENDROOT
BRANCH   1  10
ATOM     10  N   UNL     1       5.667   3.498  16.499  0.00  0.00    +0.000 N 
ATOM     11  H   UNL     1       5.673   3.140  15.552  0.00  0.00    +0.000 HD
ATOM     12  H   UNL     1       6.593   3.430  16.927  0.00  0.00    +0.000 HD
ENDBRANCH   1  10
BRANCH   3  13
ATOM     13  O   UNL     1       4.062   1.154  18.113  0.00  0.00    +0.000 OA
ATOM     14  H   UNL     1       3.813   0.929  17.209  0.00  0.00    +0.000 HD
ENDBRANCH   3  13
BRANCH   5  15
ATOM     15  O   UNL     1       0.514   2.923  20.409  0.00  0.00    +0.000 OA
ATOM     16  H   UNL     1      -0.113   3.629  20.163  0.00  0.00    +0.000 HD
ENDBRANCH   5  15
BRANCH   9  17
ATOM     17  C   UNL     1       5.079   6.410  16.278  0.00  0.00    +0.000 C 
BRANCH  17  18
ATOM     18  C   UNL     1       6.366   6.851  16.960  0.00  0.00    +0.000 C 
BRANCH  18  19
ATOM     19  O   UNL     1       7.506   6.203  16.397  0.00  0.00    +0.000 OA
ATOM     20  H   UNL     1       7.476   5.271  16.687  0.00  0.00    +0.000 HD
ENDBRANCH  18  19
ENDBRANCH  17  18
ENDBRANCH   9  17
TORSDOF 6
ENDMDL
MODEL 3
REMARK VINA RESULT:      -6.2      2.130      5.048
REMARK  Name = 
REMARK  6 active torsions:
REMARK  status: ('A' for Active; 'I' for Inactive)
REMARK    1  A    between atoms: N_1  and  C_2
REMARK    2  A    between atoms: C_4  and  O_5
REMARK    3  A    between atoms: C_7  and  O_8
REMARK    4  A    between atoms: N_12  and  C_13
REMARK    5  A    between atoms: C_13  and  C_14
REMARK    6  A    between atoms: C_14  and  O_15
REMARK                            x       y       z     vdW  Elec       q    Type
REMARK                         _______ _______ _______ _____ _____    ______ ____
ROOT
ATOM      1  C   UNL     1       4.995   3.671  18.527  0.00  0.00    +0.000 A 
ATOM      2  C   UNL     1       5.802   4.167  17.529  0.00  0.00    +0.000 A 
ATOM      3  C   UNL     1       7.126   4.619  17.575  0.00  0.00    +0.000 A 
ATOM      4  N   UNL     1       7.661   5.039  16.399  0.00  0.00    +0.000 NA
ATOM      5  C   UNL     1       6.900   4.994  15.263  0.00  0.00    +0.000 A 
ATOM      6  C   UNL     1       5.586   4.561  15.090  0.00  0.00    +0.000 A 
ATOM      7  C   UNL     1       5.037   4.132  16.302  0.00  0.00    +0.000 A 
ATOM      8  N   UNL     1       3.815   3.637  16.551  0.00  0.00    +0.000 NA
ATOM      9  N   UNL     1       3.802   3.399  17.880  0.00  0.00    +0.000 N 
ENDROOT
BRANCH   1  10
ATOM     10  N   UNL     1       5.155   3.435  19.851  0.00  0.00    +0.000 N 
ATOM     11  H   UNL     1       4.474   3.607  20.580  0.00  0.00    +0.000 HD
ATOM     12  H   UNL     1       6.001   3.001  20.227  0.00  0.00    +0.000 HD
ENDBRANCH   1  10
BRANCH   3  13
ATOM     13  O   UNL     1       7.942   4.666  18.671  0.00  0.00    +0.000 OA
ATOM     14  H   UNL     1       8.838   4.695  18.315  0.00  0.00    +0.000 HD
ENDBRANCH   3  13
BRANCH   5  15
ATOM     15  O   UNL     1       7.579   5.444  14.171  0.00  0.00    +0.000 OA
ATOM     16  H   UNL     1       8.336   5.869  14.614  0.00  0.00    +0.000 HD
ENDBRANCH   5  15
BRANCH   9  17
ATOM     17  C   UNL     1       2.570   2.898  18.471  0.00  0.00    +0.000 C 
BRANCH  17  18
ATOM     18  C   UNL     1       1.488   3.967  18.533  0.00  0.00    +0.000 C 
BRANCH  18  19
ATOM     19  O   UNL     1       1.028   4.322  17.230  0.00  0.00    +0.000 OA
ATOM     20  H   UNL     1       0.623   5.209  17.304  0.00  0.00    +0.000 HD
ENDBRANCH  18  19
ENDBRANCH  17  18
ENDBRANCH   9  17
TORSDOF 6
ENDMDL
MODEL 4
REMARK VINA RESULT:      -6.2      1.969      5.021
REMARK  Name = 
REMARK  6 active torsions:
REMARK  status: ('A' for Active; 'I' for Inactive)
REMARK    1  A    between atoms: N_1  and  C_2
REMARK    2  A    between atoms: C_4  and  O_5
REMARK    3  A    between atoms: C_7  and  O_8
REMARK    4  A    between atoms: N_12  and  C_13
REMARK    5  A    between atoms: C_13  and  C_14
REMARK    6  A    between atoms: C_14  and  O_15
REMARK                            x       y       z     vdW  Elec       q    Type
REMARK                         _______ _______ _______ _____ _____    ______ ____
ROOT
ATOM      1  C   UNL     1       5.017   4.003  18.521  0.00  0.00    +0.000 A 
ATOM      2  C   UNL     1       5.792   4.340  17.435  0.00  0.00    +0.000 A 
ATOM      3  C   UNL     1       7.172   4.554  17.338  0.00  0.00    +0.000 A 
ATOM      4  N   UNL     1       7.648   4.862  16.104  0.00  0.00    +0.000 NA
ATOM      5  C   UNL     1       6.779   4.939  15.050  0.00  0.00    +0.000 A 
ATOM      6  C   UNL     1       5.400   4.741  15.020  0.00  0.00    +0.000 A 
ATOM      7  C   UNL     1       4.911   4.426  16.291  0.00  0.00    +0.000 A 
ATOM      8  N   UNL     1       3.653   4.155  16.673  0.00  0.00    +0.000 NA
ATOM      9  N   UNL     1       3.736   3.936  18.003  0.00  0.00    +0.000 N 
ENDROOT
BRANCH   1  10
ATOM     10  N   UNL     1       5.268   3.756  19.829  0.00  0.00    +0.000 N 
ATOM     11  H   UNL     1       5.318   4.442  20.573  0.00  0.00    +0.000 HD
ATOM     12  H   UNL     1       5.387   2.807  20.190  0.00  0.00    +0.000 HD
ENDBRANCH   1  10
BRANCH   3  13
ATOM     13  O   UNL     1       8.091   4.469  18.347  0.00  0.00    +0.000 OA
ATOM     14  H   UNL     1       8.651   3.720  18.112  0.00  0.00    +0.000 HD
ENDBRANCH   3  13
BRANCH   5  15
ATOM     15  O   UNL     1       7.410   5.252  13.884  0.00  0.00    +0.000 OA
ATOM     16  H   UNL     1       7.993   4.474  13.800  0.00  0.00    +0.000 HD
ENDBRANCH   5  15
BRANCH   9  17
ATOM     17  C   UNL     1       2.502   3.664  18.727  0.00  0.00    +0.000 C 
BRANCH  17  18
ATOM     18  C   UNL     1       2.008   2.243  18.501  0.00  0.00    +0.000 C 
BRANCH  18  19
ATOM     19  O   UNL     1       3.036   1.408  17.971  0.00  0.00    +0.000 OA
ATOM     20  H   UNL     1       3.488   0.995  18.732  0.00  0.00    +0.000 HD
ENDBRANCH  18  19
ENDBRANCH  17  18
ENDBRANCH   9  17
TORSDOF 6
ENDMDL
MODEL 5
REMARK VINA RESULT:      -6.1      2.035      2.166
REMARK  Name = 
REMARK  6 active torsions:
REMARK  status: ('A' for Active; 'I' for Inactive)
REMARK    1  A    between atoms: N_1  and  C_2
REMARK    2  A    between atoms: C_4  and  O_5
REMARK    3  A    between atoms: C_7  and  O_8
REMARK    4  A    between atoms: N_12  and  C_13
REMARK    5  A    between atoms: C_13  and  C_14
REMARK    6  A    between atoms: C_14  and  O_15
REMARK                            x       y       z     vdW  Elec       q    Type
REMARK                         _______ _______ _______ _____ _____    ______ ____
ROOT
ATOM      1  C   UNL     1       4.759   3.955  17.918  0.00  0.00    +0.000 A 
ATOM      2  C   UNL     1       3.717   3.529  18.710  0.00  0.00    +0.000 A 
ATOM      3  C   UNL     1       2.967   2.348  18.661  0.00  0.00    +0.000 A 
ATOM      4  N   UNL     1       2.000   2.208  19.605  0.00  0.00    +0.000 NA
ATOM      5  C   UNL     1       1.821   3.199  20.531  0.00  0.00    +0.000 A 
ATOM      6  C   UNL     1       2.502   4.404  20.686  0.00  0.00    +0.000 A 
ATOM      7  C   UNL     1       3.495   4.548  19.712  0.00  0.00    +0.000 A 
ATOM      8  N   UNL     1       4.367   5.551  19.531  0.00  0.00    +0.000 NA
ATOM      9  N   UNL     1       5.086   5.193  18.445  0.00  0.00    +0.000 N 
ENDROOT
BRANCH   1  10
ATOM     10  N   UNL     1       5.426   3.434  16.861  0.00  0.00    +0.000 N 
ATOM     11  H   UNL     1       5.036   2.850  16.132  0.00  0.00    +0.000 HD
ATOM     12  H   UNL     1       6.411   3.640  16.685  0.00  0.00    +0.000 HD
ENDBRANCH   1  10
BRANCH   3  13
ATOM     13  O   UNL     1       3.115   1.315  17.777  0.00  0.00    +0.000 OA
ATOM     14  H   UNL     1       2.240   0.912  17.716  0.00  0.00    +0.000 HD
ENDBRANCH   3  13
BRANCH   5  15
ATOM     15  O   UNL     1       0.819   2.909  21.408  0.00  0.00    +0.000 OA
ATOM     16  H   UNL     1       1.343   2.809  22.225  0.00  0.00    +0.000 HD
ENDBRANCH   5  15
BRANCH   9  17
ATOM     17  C   UNL     1       6.096   6.122  17.960  0.00  0.00    +0.000 C 
BRANCH  17  18
ATOM     18  C   UNL     1       7.435   5.927  18.656  0.00  0.00    +0.000 C 
BRANCH  18  19
ATOM     19  O   UNL     1       7.269   5.416  19.978  0.00  0.00    +0.000 OA
ATOM     20  H   UNL     1       7.573   4.488  19.964  0.00  0.00    +0.000 HD
ENDBRANCH  18  19
ENDBRANCH  17  18
ENDBRANCH   9  17
TORSDOF 6
ENDMDL
MODEL 6
REMARK VINA RESULT:      -6.0      0.884      1.057
REMARK  Name = 
REMARK  6 active torsions:
REMARK  status: ('A' for Active; 'I' for Inactive)
REMARK    1  A    between atoms: N_1  and  C_2
REMARK    2  A    between atoms: C_4  and  O_5
REMARK    3  A    between atoms: C_7  and  O_8
REMARK    4  A    between atoms: N_12  and  C_13
REMARK    5  A    between atoms: C_13  and  C_14
REMARK    6  A    between atoms: C_14  and  O_15
REMARK                            x       y       z     vdW  Elec       q    Type
REMARK                         _______ _______ _______ _____ _____    ______ ____
ROOT
ATOM      1  C   UNL     1       5.371   4.348  18.171  0.00  0.00    +0.000 A 
ATOM      2  C   UNL     1       4.240   3.854  18.779  0.00  0.00    +0.000 A 
ATOM      3  C   UNL     1       4.080   2.775  19.655  0.00  0.00    +0.000 A 
ATOM      4  N   UNL     1       2.819   2.544  20.105  0.00  0.00    +0.000 NA
ATOM      5  C   UNL     1       1.802   3.361  19.692  0.00  0.00    +0.000 A 
ATOM      6  C   UNL     1       1.837   4.461  18.838  0.00  0.00    +0.000 A 
ATOM      7  C   UNL     1       3.135   4.695  18.374  0.00  0.00    +0.000 A 
ATOM      8  N   UNL     1       3.581   5.656  17.552  0.00  0.00    +0.000 NA
ATOM      9  N   UNL     1       4.903   5.414  17.422  0.00  0.00    +0.000 N 
ENDROOT
BRANCH   1  10
ATOM     10  N   UNL     1       6.683   4.013  18.187  0.00  0.00    +0.000 N 
ATOM     11  H   UNL     1       7.463   4.620  17.967  0.00  0.00    +0.000 HD
ATOM     12  H   UNL     1       7.004   3.088  18.481  0.00  0.00    +0.000 HD
ENDBRANCH   1  10
BRANCH   3  13
ATOM     13  O   UNL     1       5.059   1.940  20.120  0.00  0.00    +0.000 OA
ATOM     14  H   UNL     1       5.065   1.196  19.506  0.00  0.00    +0.000 HD
ENDBRANCH   3  13
BRANCH   5  15
ATOM     15  O   UNL     1       0.603   3.002  20.232  0.00  0.00    +0.000 OA
ATOM     16  H   UNL     1       0.430   2.192  19.718  0.00  0.00    +0.000 HD
ENDBRANCH   5  15
BRANCH   9  17
ATOM     17  C   UNL     1       5.670   6.274  16.533  0.00  0.00    +0.000 C 
BRANCH  17  18
ATOM     18  C   UNL     1       6.431   7.351  17.292  0.00  0.00    +0.000 C 
BRANCH  18  19
ATOM     19  O   UNL     1       7.699   6.878  17.744  0.00  0.00    +0.000 OA
ATOM     20  H   UNL     1       8.359   7.553  17.494  0.00  0.00    +0.000 HD
ENDBRANCH  18  19
ENDBRANCH  17  18
ENDBRANCH   9  17
TORSDOF 6
ENDMDL
MODEL 7
REMARK VINA RESULT:      -6.0      2.173      4.813
REMARK  Name = 
REMARK  6 active torsions:
REMARK  status: ('A' for Active; 'I' for Inactive)
REMARK    1  A    between atoms: N_1  and  C_2
REMARK    2  A    between atoms: C_4  and  O_5
REMARK    3  A    between atoms: C_7  and  O_8
REMARK    4  A    between atoms: N_12  and  C_13
REMARK    5  A    between atoms: C_13  and  C_14
REMARK    6  A    between atoms: C_14  and  O_15
REMARK                            x       y       z     vdW  Elec       q    Type
REMARK                         _______ _______ _______ _____ _____    ______ ____
ROOT
ATOM      1  C   UNL     1       5.068   3.764  18.819  0.00  0.00    +0.000 A 
ATOM      2  C   UNL     1       5.802   4.878  18.479  0.00  0.00    +0.000 A 
ATOM      3  C   UNL     1       6.886   5.481  19.128  0.00  0.00    +0.000 A 
ATOM      4  N   UNL     1       7.415   6.577  18.525  0.00  0.00    +0.000 NA
ATOM      5  C   UNL     1       6.879   7.017  17.346  0.00  0.00    +0.000 A 
ATOM      6  C   UNL     1       5.816   6.502  16.606  0.00  0.00    +0.000 A 
ATOM      7  C   UNL     1       5.271   5.375  17.229  0.00  0.00    +0.000 A 
ATOM      8  N   UNL     1       4.255   4.594  16.832  0.00  0.00    +0.000 NA
ATOM      9  N   UNL     1       4.134   3.664  17.803  0.00  0.00    +0.000 N 
ENDROOT
BRANCH   1  10
ATOM     10  N   UNL     1       5.108   2.873  19.838  0.00  0.00    +0.000 N 
ATOM     11  H   UNL     1       5.868   2.743  20.495  0.00  0.00    +0.000 HD
ATOM     12  H   UNL     1       4.317   2.266  20.060  0.00  0.00    +0.000 HD
ENDBRANCH   1  10
BRANCH   3  13
ATOM     13  O   UNL     1       7.479   5.075  20.292  0.00  0.00    +0.000 OA
ATOM     14  H   UNL     1       6.944   5.465  20.993  0.00  0.00    +0.000 HD
ENDBRANCH   3  13
BRANCH   5  15
ATOM     15  O   UNL     1       7.521   8.120  16.868  0.00  0.00    +0.000 OA
ATOM     16  H   UNL     1       6.752   8.700  16.711  0.00  0.00    +0.000 HD
ENDBRANCH   5  15
BRANCH   9  17
ATOM     17  C   UNL     1       3.061   2.687  17.681  0.00  0.00    +0.000 C 
BRANCH  17  18
ATOM     18  C   UNL     1       1.736   3.223  18.202  0.00  0.00    +0.000 C 
BRANCH  18  19
ATOM     19  O   UNL     1       1.213   4.244  17.353  0.00  0.00    +0.000 OA
ATOM     20  H   UNL     1       1.564   4.075  16.457  0.00  0.00    +0.000 HD
ENDBRANCH  18  19
ENDBRANCH  17  18
ENDBRANCH   9  17
TORSDOF 6
ENDMDL
MODEL 8
REMARK VINA RESULT:      -6.0      2.035      2.675
REMARK  Name = 
REMARK  6 active torsions:
REMARK  status: ('A' for Active; 'I' for Inactive)
REMARK    1  A    between atoms: N_1  and  C_2
REMARK    2  A    between atoms: C_4  and  O_5
REMARK    3  A    between atoms: C_7  and  O_8
REMARK    4  A    between atoms: N_12  and  C_13
REMARK    5  A    between atoms: C_13  and  C_14
REMARK    6  A    between atoms: C_14  and  O_15
REMARK                            x       y       z     vdW  Elec       q    Type
REMARK                         _______ _______ _______ _____ _____    ______ ____
ROOT
ATOM      1  C   UNL     1       3.900   5.414  18.128  0.00  0.00    +0.000 A 
ATOM      2  C   UNL     1       3.289   4.877  19.237  0.00  0.00    +0.000 A 
ATOM      3  C   UNL     1       2.517   5.488  20.232  0.00  0.00    +0.000 A 
ATOM      4  N   UNL     1       2.030   4.673  21.204  0.00  0.00    +0.000 NA
ATOM      5  C   UNL     1       2.309   3.334  21.156  0.00  0.00    +0.000 A 
ATOM      6  C   UNL     1       3.051   2.614  20.222  0.00  0.00    +0.000 A 
ATOM      7  C   UNL     1       3.552   3.454  19.224  0.00  0.00    +0.000 A 
ATOM      8  N   UNL     1       4.296   3.147  18.151  0.00  0.00    +0.000 NA
ATOM      9  N   UNL     1       4.515   4.327  17.532  0.00  0.00    +0.000 N 
ENDROOT
BRANCH   1  10
ATOM     10  N   UNL     1       3.983   6.657  17.596  0.00  0.00    +0.000 N 
ATOM     11  H   UNL     1       4.408   7.469  18.026  0.00  0.00    +0.000 HD
ATOM     12  H   UNL     1       3.646   6.868  16.654  0.00  0.00    +0.000 HD
ENDBRANCH   1  10
BRANCH   3  13
ATOM     13  O   UNL     1       2.186   6.812  20.320  0.00  0.00    +0.000 OA
ATOM     14  H   UNL     1       2.917   7.220  20.799  0.00  0.00    +0.000 HD
ENDBRANCH   3  13
BRANCH   5  15
ATOM     15  O   UNL     1       1.748   2.655  22.196  0.00  0.00    +0.000 OA
ATOM     16  H   UNL     1       2.415   2.834  22.885  0.00  0.00    +0.000 HD
ENDBRANCH   5  15
BRANCH   9  17
ATOM     17  C   UNL     1       5.351   4.327  16.341  0.00  0.00    +0.000 C 
BRANCH  17  18
ATOM     18  C   UNL     1       6.823   4.526  16.674  0.00  0.00    +0.000 C 
BRANCH  18  19
ATOM     19  O   UNL     1       7.113   4.139  18.017  0.00  0.00    +0.000 OA
ATOM     20  H   UNL     1       8.013   4.461  18.217  0.00  0.00    +0.000 HD
ENDBRANCH  18  19
ENDBRANCH  17  18
ENDBRANCH   9  17
TORSDOF 6
ENDMDL
MODEL 9
REMARK VINA RESULT:      -6.0      2.463      2.778
REMARK  Name = 
REMARK  6 active torsions:
REMARK  status: ('A' for Active; 'I' for Inactive)
REMARK    1  A    between atoms: N_1  and  C_2
REMARK    2  A    between atoms: C_4  and  O_5
REMARK    3  A    between atoms: C_7  and  O_8
REMARK    4  A    between atoms: N_12  and  C_13
REMARK    5  A    between atoms: C_13  and  C_14
REMARK    6  A    between atoms: C_14  and  O_15
REMARK                            x       y       z     vdW  Elec       q    Type
REMARK                         _______ _______ _______ _____ _____    ______ ____
ROOT
ATOM      1  C   UNL     1       5.104   4.079  17.507  0.00  0.00    +0.000 A 
ATOM      2  C   UNL     1       3.884   4.139  18.141  0.00  0.00    +0.000 A 
ATOM      3  C   UNL     1       2.637   3.634  17.756  0.00  0.00    +0.000 A 
ATOM      4  N   UNL     1       1.609   3.844  18.619  0.00  0.00    +0.000 NA
ATOM      5  C   UNL     1       1.843   4.515  19.788  0.00  0.00    +0.000 A 
ATOM      6  C   UNL     1       3.030   5.053  20.282  0.00  0.00    +0.000 A 
ATOM      7  C   UNL     1       4.086   4.838  19.392  0.00  0.00    +0.000 A 
ATOM      8  N   UNL     1       5.376   5.188  19.506  0.00  0.00    +0.000 NA
ATOM      9  N   UNL     1       5.954   4.754  18.365  0.00  0.00    +0.000 N 
ENDROOT
BRANCH   1  10
ATOM     10  N   UNL     1       5.547   3.539  16.347  0.00  0.00    +0.000 N 
ATOM     11  H   UNL     1       6.404   3.016  16.214  0.00  0.00    +0.000 HD
ATOM     12  H   UNL     1       5.001   3.581  15.484  0.00  0.00    +0.000 HD
ENDBRANCH   1  10
BRANCH   3  13
ATOM     13  O   UNL     1       2.347   2.938  16.615  0.00  0.00    +0.000 OA
ATOM     14  H   UNL     1       1.911   2.133  16.918  0.00  0.00    +0.000 HD
ENDBRANCH   3  13
BRANCH   5  15
ATOM     15  O   UNL     1       0.716   4.641  20.543  0.00  0.00    +0.000 OA
ATOM     16  H   UNL     1       0.360   3.736  20.456  0.00  0.00    +0.000 HD
ENDBRANCH   5  15
BRANCH   9  17
ATOM     17  C   UNL     1       7.368   5.038  18.167  0.00  0.00    +0.000 C 
BRANCH  17  18
ATOM     18  C   UNL     1       7.902   6.030  19.190  0.00  0.00    +0.000 C 
BRANCH  18  19
ATOM     19  O   UNL     1       8.064   5.425  20.472  0.00  0.00    +0.000 OA
ATOM     20  H   UNL     1       7.323   4.799  20.587  0.00  0.00    +0.000 HD
ENDBRANCH  18  19
ENDBRANCH  17  18
ENDBRANCH   9  17
TORSDOF 6
ENDMDL
