MODEL 1
REMARK VINA RESULT:      -8.5      0.000      0.000
REMARK  Name = 
REMARK  4 active torsions:
REMARK  status: ('A' for Active; 'I' for Inactive)
REMARK    1  A    between atoms: C_1  and  C_2
REMARK    2  A    between atoms: C_3  and  C_4
REMARK    3  A    between atoms: C_4  and  C_6
REMARK    4  A    between atoms: C_7  and  C_8
REMARK                            x       y       z     vdW  Elec       q    Type
REMARK                         _______ _______ _______ _____ _____    ______ ____
ROOT
ATOM      1  C   UNL     1       4.627   7.018  17.395  0.00  0.00    +0.000 C 
ATOM      2  C   UNL     1       4.290   5.785  18.184  0.00  0.00    +0.000 A 
ATOM      3  C   UNL     1       5.176   4.714  18.487  0.00  0.00    +0.000 A 
ATOM      4  N   UNL     1       4.710   3.647  19.262  0.00  0.00    +0.000 N 
ATOM      5  O   UNL     1       5.402   2.614  19.527  0.00  0.00    +0.000 OA
ATOM      6  C   UNL     1       3.398   3.664  19.785  0.00  0.00    +0.000 A 
ATOM      7  C   UNL     1       2.959   2.649  20.669  0.00  0.00    +0.000 A 
ATOM      8  C   UNL     1       1.663   2.643  21.181  0.00  0.00    +0.000 A 
ATOM      9  C   UNL     1       0.768   3.631  20.795  0.00  0.00    +0.000 A 
ATOM     10  C   UNL     1       1.182   4.641  19.926  0.00  0.00    +0.000 A 
ATOM     11  C   UNL     1       2.505   4.685  19.429  0.00  0.00    +0.000 A 
ATOM     12  N   UNL     1       2.951   5.725  18.596  0.00  0.00    +0.000 N 
ATOM     13  O   UNL     1       2.122   6.628  18.227  0.00  0.00    +0.000 OA
ENDROOT
BRANCH   3  14
ATOM     14  C   UNL     1       6.590   4.668  17.949  0.00  0.00    +0.000 C 
ATOM     15  O   UNL     1       7.531   4.946  18.689  0.00  0.00    +0.000 OA
BRANCH  14  16
ATOM     16  C   UNL     1       6.891   4.336  16.527  0.00  0.00    +0.000 C 
ATOM     17  C   UNL     1       6.756   5.232  15.540  0.00  0.00    +0.000 C 
BRANCH  17  18
ATOM     18  C   UNL     1       6.750   4.770  14.186  0.00  0.00    +0.000 A 
ATOM     19  C   UNL     1       6.028   3.736  13.599  0.00  0.00    +0.000 A 
ATOM     20  C   UNL     1       6.480   3.586  12.265  0.00  0.00    +0.000 A 
ATOM     21  C   UNL     1       7.448   4.540  12.087  0.00  0.00    +0.000 A 
ATOM     22  O   UNL     1       7.600   5.265  13.217  0.00  0.00    +0.000 OA
ENDBRANCH  17  18
ENDBRANCH  14  16
ENDBRANCH   3  14
TORSDOF 3
ENDMDL
MODEL 2
REMARK VINA RESULT:      -7.5      1.027      1.167
REMARK  Name = 
REMARK  4 active torsions:
REMARK  status: ('A' for Active; 'I' for Inactive)
REMARK    1  A    between atoms: C_1  and  C_2
REMARK    2  A    between atoms: C_3  and  C_4
REMARK    3  A    between atoms: C_4  and  C_6
REMARK    4  A    between atoms: C_7  and  C_8
REMARK                            x       y       z     vdW  Elec       q    Type
REMARK                         _______ _______ _______ _____ _____    ______ ____
ROOT
ATOM      1  C   UNL     1       5.397   7.285  17.315  0.00  0.00    +0.000 C 
ATOM      2  C   UNL     1       4.847   6.093  18.046  0.00  0.00    +0.000 A 
ATOM      3  C   UNL     1       5.481   4.827  18.185  0.00  0.00    +0.000 A 
ATOM      4  N   UNL     1       4.844   3.827  18.927  0.00  0.00    +0.000 N 
ATOM      5  O   UNL     1       5.296   2.645  19.050  0.00  0.00    +0.000 OA
ATOM      6  C   UNL     1       3.618   4.093  19.577  0.00  0.00    +0.000 A 
ATOM      7  C   UNL     1       3.027   3.127  20.427  0.00  0.00    +0.000 A 
ATOM      8  C   UNL     1       1.811   3.367  21.064  0.00  0.00    +0.000 A 
ATOM      9  C   UNL     1       1.143   4.562  20.838  0.00  0.00    +0.000 A 
ATOM     10  C   UNL     1       1.708   5.526  20.003  0.00  0.00    +0.000 A 
ATOM     11  C   UNL     1       2.961   5.316  19.383  0.00  0.00    +0.000 A 
ATOM     12  N   UNL     1       3.568   6.300  18.584  0.00  0.00    +0.000 N 
ATOM     13  O   UNL     1       2.945   7.395  18.362  0.00  0.00    +0.000 OA
ENDROOT
BRANCH   3  14
ATOM     14  C   UNL     1       6.798   4.512  17.508  0.00  0.00    +0.000 C 
ATOM     15  O   UNL     1       7.838   4.535  18.162  0.00  0.00    +0.000 OA
BRANCH  14  16
ATOM     16  C   UNL     1       6.892   4.214  16.050  0.00  0.00    +0.000 C 
ATOM     17  C   UNL     1       5.986   4.660  15.170  0.00  0.00    +0.000 C 
BRANCH  17  18
ATOM     18  C   UNL     1       5.957   4.083  13.861  0.00  0.00    +0.000 A 
ATOM     19  C   UNL     1       6.990   3.874  12.953  0.00  0.00    +0.000 A 
ATOM     20  C   UNL     1       6.425   3.402  11.743  0.00  0.00    +0.000 A 
ATOM     21  C   UNL     1       5.073   3.328  11.964  0.00  0.00    +0.000 A 
ATOM     22  O   UNL     1       4.787   3.709  13.228  0.00  0.00    +0.000 OA
ENDBRANCH  17  18
ENDBRANCH  14  16
ENDBRANCH   3  14
TORSDOF 3
ENDMDL
MODEL 3
REMARK VINA RESULT:      -7.5      2.141      3.385
REMARK  Name = 
REMARK  4 active torsions:
REMARK  status: ('A' for Active; 'I' for Inactive)
REMARK    1  A    between atoms: C_1  and  C_2
REMARK    2  A    between atoms: C_3  and  C_4
REMARK    3  A    between atoms: C_4  and  C_6
REMARK    4  A    between atoms: C_7  and  C_8
REMARK                            x       y       z     vdW  Elec       q    Type
REMARK                         _______ _______ _______ _____ _____    ______ ____
ROOT
ATOM      1  C   UNL     1       4.636   3.089  19.308  0.00  0.00    +0.000 C 
ATOM      2  C   UNL     1       4.333   4.467  18.792  0.00  0.00    +0.000 A 
ATOM      3  C   UNL     1       4.910   5.079  17.644  0.00  0.00    +0.000 A 
ATOM      4  N   UNL     1       4.494   6.364  17.281  0.00  0.00    +0.000 N 
ATOM      5  O   UNL     1       4.999   7.021  16.316  0.00  0.00    +0.000 OA
ATOM      6  C   UNL     1       3.474   7.017  18.007  0.00  0.00    +0.000 A 
ATOM      7  C   UNL     1       2.963   8.264  17.574  0.00  0.00    +0.000 A 
ATOM      8  C   UNL     1       1.968   8.929  18.288  0.00  0.00    +0.000 A 
ATOM      9  C   UNL     1       1.485   8.378  19.467  0.00  0.00    +0.000 A 
ATOM     10  C   UNL     1       1.975   7.149  19.910  0.00  0.00    +0.000 A 
ATOM     11  C   UNL     1       2.956   6.442  19.176  0.00  0.00    +0.000 A 
ATOM     12  N   UNL     1       3.419   5.179  19.582  0.00  0.00    +0.000 N 
ATOM     13  O   UNL     1       2.986   4.678  20.677  0.00  0.00    +0.000 OA
ENDROOT
BRANCH   3  14
ATOM     14  C   UNL     1       6.000   4.405  16.839  0.00  0.00    +0.000 C 
ATOM     15  O   UNL     1       7.163   4.449  17.236  0.00  0.00    +0.000 OA
BRANCH  14  16
ATOM     16  C   UNL     1       5.726   3.718  15.545  0.00  0.00    +0.000 C 
ATOM     17  C   UNL     1       6.388   4.021  14.420  0.00  0.00    +0.000 C 
BRANCH  17  18
ATOM     18  C   UNL     1       5.866   3.563  13.170  0.00  0.00    +0.000 A 
ATOM     19  C   UNL     1       4.647   3.834  12.558  0.00  0.00    +0.000 A 
ATOM     20  C   UNL     1       4.549   3.029  11.397  0.00  0.00    +0.000 A 
ATOM     21  C   UNL     1       5.714   2.309  11.338  0.00  0.00    +0.000 A 
ATOM     22  O   UNL     1       6.515   2.637  12.376  0.00  0.00    +0.000 OA
ENDBRANCH  17  18
ENDBRANCH  14  16
ENDBRANCH   3  14
TORSDOF 3
ENDMDL
MODEL 4
REMARK VINA RESULT:      -7.4      3.464      4.755
REMARK  Name = 
REMARK  4 active torsions:
REMARK  status: ('A' for Active; 'I' for Inactive)
REMARK    1  A    between atoms: C_1  and  C_2
REMARK    2  A    between atoms: C_3  and  C_4
REMARK    3  A    between atoms: C_4  and  C_6
REMARK    4  A    between atoms: C_7  and  C_8
REMARK                            x       y       z     vdW  Elec       q    Type
REMARK                         _______ _______ _______ _____ _____    ______ ____
ROOT
ATOM      1  C   UNL     1       4.188   7.987  17.060  0.00  0.00    +0.000 C 
ATOM      2  C   UNL     1       4.497   6.654  17.678  0.00  0.00    +0.000 A 
ATOM      3  C   UNL     1       5.791   6.081  17.837  0.00  0.00    +0.000 A 
ATOM      4  N   UNL     1       5.909   4.836  18.462  0.00  0.00    +0.000 N 
ATOM      5  O   UNL     1       7.010   4.213  18.588  0.00  0.00    +0.000 OA
ATOM      6  C   UNL     1       4.767   4.187  18.983  0.00  0.00    +0.000 A 
ATOM      7  C   UNL     1       4.892   2.988  19.723  0.00  0.00    +0.000 A 
ATOM      8  C   UNL     1       3.774   2.327  20.230  0.00  0.00    +0.000 A 
ATOM      9  C   UNL     1       2.507   2.832  19.978  0.00  0.00    +0.000 A 
ATOM     10  C   UNL     1       2.362   4.014  19.251  0.00  0.00    +0.000 A 
ATOM     11  C   UNL     1       3.488   4.719  18.765  0.00  0.00    +0.000 A 
ATOM     12  N   UNL     1       3.360   5.938  18.078  0.00  0.00    +0.000 N 
ATOM     13  O   UNL     1       2.191   6.396  17.832  0.00  0.00    +0.000 OA
ENDROOT
BRANCH   3  14
ATOM     14  C   UNL     1       7.036   6.753  17.297  0.00  0.00    +0.000 C 
ATOM     15  O   UNL     1       7.466   6.434  16.191  0.00  0.00    +0.000 OA
BRANCH  14  16
ATOM     16  C   UNL     1       7.797   7.767  18.081  0.00  0.00    +0.000 C 
ATOM     17  C   UNL     1       7.859   9.054  17.715  0.00  0.00    +0.000 C 
BRANCH  17  18
ATOM     18  C   UNL     1       8.848   9.894  18.317  0.00  0.00    +0.000 A 
ATOM     19  C   UNL     1       9.217  10.025  19.651  0.00  0.00    +0.000 A 
ATOM     20  C   UNL     1      10.146  11.090  19.749  0.00  0.00    +0.000 A 
ATOM     21  C   UNL     1      10.318  11.557  18.472  0.00  0.00    +0.000 A 
ATOM     22  O   UNL     1       9.568  10.837  17.609  0.00  0.00    +0.000 OA
ENDBRANCH  17  18
ENDBRANCH  14  16
ENDBRANCH   3  14
TORSDOF 3
ENDMDL
MODEL 5
REMARK VINA RESULT:      -7.3      1.156      1.349
REMARK  Name = 
REMARK  4 active torsions:
REMARK  status: ('A' for Active; 'I' for Inactive)
REMARK    1  A    between atoms: C_1  and  C_2
REMARK    2  A    between atoms: C_3  and  C_4
REMARK    3  A    between atoms: C_4  and  C_6
REMARK    4  A    between atoms: C_7  and  C_8
REMARK                            x       y       z     vdW  Elec       q    Type
REMARK                         _______ _______ _______ _____ _____    ______ ____
ROOT
ATOM      1  C   UNL     1       2.893   7.850  18.179  0.00  0.00    +0.000 C 
ATOM      2  C   UNL     1       3.213   6.462  18.655  0.00  0.00    +0.000 A 
ATOM      3  C   UNL     1       4.338   5.680  18.269  0.00  0.00    +0.000 A 
ATOM      4  N   UNL     1       4.505   4.410  18.830  0.00  0.00    +0.000 N 
ATOM      5  O   UNL     1       5.437   3.611  18.498  0.00  0.00    +0.000 OA
ATOM      6  C   UNL     1       3.605   3.938  19.811  0.00  0.00    +0.000 A 
ATOM      7  C   UNL     1       3.835   2.708  20.471  0.00  0.00    +0.000 A 
ATOM      8  C   UNL     1       2.948   2.220  21.430  0.00  0.00    +0.000 A 
ATOM      9  C   UNL     1       1.796   2.935  21.723  0.00  0.00    +0.000 A 
ATOM     10  C   UNL     1       1.551   4.150  21.083  0.00  0.00    +0.000 A 
ATOM     11  C   UNL     1       2.461   4.679  20.139  0.00  0.00    +0.000 A 
ATOM     12  N   UNL     1       2.254   5.927  19.527  0.00  0.00    +0.000 N 
ATOM     13  O   UNL     1       1.184   6.579  19.786  0.00  0.00    +0.000 OA
ENDROOT
BRANCH   3  14
ATOM     14  C   UNL     1       5.326   6.158  17.226  0.00  0.00    +0.000 C 
ATOM     15  O   UNL     1       6.035   7.134  17.464  0.00  0.00    +0.000 OA
BRANCH  14  16
ATOM     16  C   UNL     1       5.446   5.514  15.888  0.00  0.00    +0.000 C 
ATOM     17  C   UNL     1       6.600   5.000  15.442  0.00  0.00    +0.000 C 
BRANCH  17  18
ATOM     18  C   UNL     1       6.725   4.692  14.051  0.00  0.00    +0.000 A 
ATOM     19  C   UNL     1       6.117   3.691  13.300  0.00  0.00    +0.000 A 
ATOM     20  C   UNL     1       6.677   3.716  11.999  0.00  0.00    +0.000 A 
ATOM     21  C   UNL     1       7.592   4.737  12.002  0.00  0.00    +0.000 A 
ATOM     22  O   UNL     1       7.612   5.339  13.213  0.00  0.00    +0.000 OA
ENDBRANCH  17  18
ENDBRANCH  14  16
ENDBRANCH   3  14
TORSDOF 3
ENDMDL
MODEL 6
REMARK VINA RESULT:      -7.2      2.961      6.981
REMARK  Name = 
REMARK  4 active torsions:
REMARK  status: ('A' for Active; 'I' for Inactive)
REMARK    1  A    between atoms: C_1  and  C_2
REMARK    2  A    between atoms: C_3  and  C_4
REMARK    3  A    between atoms: C_4  and  C_6
REMARK    4  A    between atoms: C_7  and  C_8
REMARK                            x       y       z     vdW  Elec       q    Type
REMARK                         _______ _______ _______ _____ _____    ______ ____
ROOT
ATOM      1  C   UNL     1       1.106   3.117  18.409  0.00  0.00    +0.000 C 
ATOM      2  C   UNL     1       2.487   3.702  18.332  0.00  0.00    +0.000 A 
ATOM      3  C   UNL     1       3.147   4.436  19.358  0.00  0.00    +0.000 A 
ATOM      4  N   UNL     1       4.451   4.888  19.136  0.00  0.00    +0.000 N 
ATOM      5  O   UNL     1       5.096   5.609  19.960  0.00  0.00    +0.000 OA
ATOM      6  C   UNL     1       5.124   4.568  17.935  0.00  0.00    +0.000 A 
ATOM      7  C   UNL     1       6.483   4.917  17.753  0.00  0.00    +0.000 A 
ATOM      8  C   UNL     1       7.157   4.622  16.569  0.00  0.00    +0.000 A 
ATOM      9  C   UNL     1       6.477   4.003  15.530  0.00  0.00    +0.000 A 
ATOM     10  C   UNL     1       5.136   3.650  15.690  0.00  0.00    +0.000 A 
ATOM     11  C   UNL     1       4.450   3.905  16.900  0.00  0.00    +0.000 A 
ATOM     12  N   UNL     1       3.117   3.507  17.094  0.00  0.00    +0.000 N 
ATOM     13  O   UNL     1       2.485   2.950  16.131  0.00  0.00    +0.000 OA
ENDROOT
BRANCH   3  14
ATOM     14  C   UNL     1       2.458   4.790  20.659  0.00  0.00    +0.000 C 
ATOM     15  O   UNL     1       2.539   4.024  21.616  0.00  0.00    +0.000 OA
BRANCH  14  16
ATOM     16  C   UNL     1       1.638   6.025  20.815  0.00  0.00    +0.000 C 
ATOM     17  C   UNL     1       1.990   7.192  20.258  0.00  0.00    +0.000 C 
BRANCH  17  18
ATOM     18  C   UNL     1       1.346   8.389  20.703  0.00  0.00    +0.000 A 
ATOM     19  C   UNL     1       1.141   8.866  21.993  0.00  0.00    +0.000 A 
ATOM     20  C   UNL     1       0.329  10.024  21.911  0.00  0.00    +0.000 A 
ATOM     21  C   UNL     1       0.082  10.216  20.576  0.00  0.00    +0.000 A 
ATOM     22  O   UNL     1       0.702   9.261  19.847  0.00  0.00    +0.000 OA
ENDBRANCH  17  18
ENDBRANCH  14  16
ENDBRANCH   3  14
TORSDOF 3
ENDMDL
MODEL 7
REMARK VINA RESULT:      -7.1      5.043      8.095
REMARK  Name = 
REMARK  4 active torsions:
REMARK  status: ('A' for Active; 'I' for Inactive)
REMARK    1  A    between atoms: C_1  and  C_2
REMARK    2  A    between atoms: C_3  and  C_4
REMARK    3  A    between atoms: C_4  and  C_6
REMARK    4  A    between atoms: C_7  and  C_8
REMARK                            x       y       z     vdW  Elec       q    Type
REMARK                         _______ _______ _______ _____ _____    ______ ____
ROOT
ATOM      1  C   UNL     1       0.462   8.345  21.625  0.00  0.00    +0.000 C 
ATOM      2  C   UNL     1       1.261   8.163  20.367  0.00  0.00    +0.000 A 
ATOM      3  C   UNL     1       1.426   9.123  19.330  0.00  0.00    +0.000 A 
ATOM      4  N   UNL     1       2.231   8.804  18.232  0.00  0.00    +0.000 N 
ATOM      5  O   UNL     1       2.383   9.565  17.225  0.00  0.00    +0.000 OA
ATOM      6  C   UNL     1       2.919   7.570  18.186  0.00  0.00    +0.000 A 
ATOM      7  C   UNL     1       3.830   7.290  17.139  0.00  0.00    +0.000 A 
ATOM      8  C   UNL     1       4.505   6.073  17.070  0.00  0.00    +0.000 A 
ATOM      9  C   UNL     1       4.257   5.097  18.026  0.00  0.00    +0.000 A 
ATOM     10  C   UNL     1       3.363   5.354  19.065  0.00  0.00    +0.000 A 
ATOM     11  C   UNL     1       2.702   6.599  19.173  0.00  0.00    +0.000 A 
ATOM     12  N   UNL     1       1.841   6.891  20.244  0.00  0.00    +0.000 N 
ATOM     13  O   UNL     1       1.600   5.987  21.116  0.00  0.00    +0.000 OA
ENDROOT
BRANCH   3  14
ATOM     14  C   UNL     1       0.709  10.456  19.352  0.00  0.00    +0.000 C 
ATOM     15  O   UNL     1       1.241  11.422  19.895  0.00  0.00    +0.000 OA
BRANCH  14  16
ATOM     16  C   UNL     1      -0.652  10.639  18.773  0.00  0.00    +0.000 C 
ATOM     17  C   UNL     1      -1.051   9.995  17.667  0.00  0.00    +0.000 C 
BRANCH  17  18
ATOM     18  C   UNL     1      -2.229  10.449  16.994  0.00  0.00    +0.000 A 
ATOM     19  C   UNL     1      -3.301  11.194  17.474  0.00  0.00    +0.000 A 
ATOM     20  C   UNL     1      -4.282  11.261  16.454  0.00  0.00    +0.000 A 
ATOM     21  C   UNL     1      -3.766  10.567  15.390  0.00  0.00    +0.000 A 
ATOM     22  O   UNL     1      -2.535  10.100  15.693  0.00  0.00    +0.000 OA
ENDBRANCH  17  18
ENDBRANCH  14  16
ENDBRANCH   3  14
TORSDOF 3
ENDMDL
MODEL 8
REMARK VINA RESULT:      -7.1      2.059      3.354
REMARK  Name = 
REMARK  4 active torsions:
REMARK  status: ('A' for Active; 'I' for Inactive)
REMARK    1  A    between atoms: C_1  and  C_2
REMARK    2  A    between atoms: C_3  and  C_4
REMARK    3  A    between atoms: C_4  and  C_6
REMARK    4  A    between atoms: C_7  and  C_8
REMARK                            x       y       z     vdW  Elec       q    Type
REMARK                         _______ _______ _______ _____ _____    ______ ____
ROOT
ATOM      1  C   UNL     1       3.693   3.523  19.999  0.00  0.00    +0.000 C 
ATOM      2  C   UNL     1       3.607   4.878  19.355  0.00  0.00    +0.000 A 
ATOM      3  C   UNL     1       4.412   5.348  18.279  0.00  0.00    +0.000 A 
ATOM      4  N   UNL     1       4.184   6.632  17.774  0.00  0.00    +0.000 N 
ATOM      5  O   UNL     1       4.893   7.167  16.864  0.00  0.00    +0.000 OA
ATOM      6  C   UNL     1       3.130   7.423  18.283  0.00  0.00    +0.000 A 
ATOM      7  C   UNL     1       2.815   8.672  17.696  0.00  0.00    +0.000 A 
ATOM      8  C   UNL     1       1.789   9.472  18.196  0.00  0.00    +0.000 A 
ATOM      9  C   UNL     1       1.079   9.057  19.313  0.00  0.00    +0.000 A 
ATOM     10  C   UNL     1       1.374   7.829  19.906  0.00  0.00    +0.000 A 
ATOM     11  C   UNL     1       2.384   6.986  19.387  0.00  0.00    +0.000 A 
ATOM     12  N   UNL     1       2.655   5.724  19.940  0.00  0.00    +0.000 N 
ATOM     13  O   UNL     1       2.011   5.347  20.980  0.00  0.00    +0.000 OA
ENDROOT
BRANCH   3  14
ATOM     14  C   UNL     1       5.544   4.524  17.705  0.00  0.00    +0.000 C 
ATOM     15  O   UNL     1       6.520   4.262  18.405  0.00  0.00    +0.000 OA
BRANCH  14  16
ATOM     16  C   UNL     1       5.546   4.046  16.294  0.00  0.00    +0.000 C 
ATOM     17  C   UNL     1       6.555   4.307  15.451  0.00  0.00    +0.000 C 
BRANCH  17  18
ATOM     18  C   UNL     1       6.352   4.101  14.050  0.00  0.00    +0.000 A 
ATOM     19  C   UNL     1       5.334   3.427  13.384  0.00  0.00    +0.000 A 
ATOM     20  C   UNL     1       5.662   3.384  12.007  0.00  0.00    +0.000 A 
ATOM     21  C   UNL     1       6.857   4.044  11.884  0.00  0.00    +0.000 A 
ATOM     22  O   UNL     1       7.265   4.495  13.091  0.00  0.00    +0.000 OA
ENDBRANCH  17  18
ENDBRANCH  14  16
ENDBRANCH   3  14
TORSDOF 3
ENDMDL
MODEL 9
REMARK VINA RESULT:      -7.0      2.970      4.331
REMARK  Name = 
REMARK  4 active torsions:
REMARK  status: ('A' for Active; 'I' for Inactive)
REMARK    1  A    between atoms: C_1  and  C_2
REMARK    2  A    between atoms: C_3  and  C_4
REMARK    3  A    between atoms: C_4  and  C_6
REMARK    4  A    between atoms: C_7  and  C_8
REMARK                            x       y       z     vdW  Elec       q    Type
REMARK                         _______ _______ _______ _____ _____    ______ ____
ROOT
ATOM      1  C   UNL     1       5.721   4.676  15.266  0.00  0.00    +0.000 C 
ATOM      2  C   UNL     1       5.187   4.424  16.647  0.00  0.00    +0.000 A 
ATOM      3  C   UNL     1       5.877   4.655  17.870  0.00  0.00    +0.000 A 
ATOM      4  N   UNL     1       5.222   4.394  19.078  0.00  0.00    +0.000 N 
ATOM      5  O   UNL     1       5.776   4.501  20.217  0.00  0.00    +0.000 OA
ATOM      6  C   UNL     1       3.876   3.965  19.082  0.00  0.00    +0.000 A 
ATOM      7  C   UNL     1       3.169   3.816  20.299  0.00  0.00    +0.000 A 
ATOM      8  C   UNL     1       1.845   3.380  20.322  0.00  0.00    +0.000 A 
ATOM      9  C   UNL     1       1.212   3.051  19.132  0.00  0.00    +0.000 A 
ATOM     10  C   UNL     1       1.891   3.192  17.921  0.00  0.00    +0.000 A 
ATOM     11  C   UNL     1       3.220   3.673  17.877  0.00  0.00    +0.000 A 
ATOM     12  N   UNL     1       3.898   3.871  16.663  0.00  0.00    +0.000 N 
ATOM     13  O   UNL     1       3.320   3.554  15.566  0.00  0.00    +0.000 OA
ENDROOT
BRANCH   3  14
ATOM     14  C   UNL     1       7.317   5.120  17.902  0.00  0.00    +0.000 C 
ATOM     15  O   UNL     1       8.209   4.359  17.533  0.00  0.00    +0.000 OA
BRANCH  14  16
ATOM     16  C   UNL     1       7.709   6.466  18.409  0.00  0.00    +0.000 C 
ATOM     17  C   UNL     1       7.475   7.588  17.715  0.00  0.00    +0.000 C 
BRANCH  17  18
ATOM     18  C   UNL     1       8.149   8.789  18.101  0.00  0.00    +0.000 A 
ATOM     19  C   UNL     1       8.255  10.006  17.437  0.00  0.00    +0.000 A 
ATOM     20  C   UNL     1       9.146  10.831  18.167  0.00  0.00    +0.000 A 
ATOM     21  C   UNL     1       9.537  10.091  19.253  0.00  0.00    +0.000 A 
ATOM     22  O   UNL     1       8.931   8.883  19.235  0.00  0.00    +0.000 OA
ENDBRANCH  17  18
ENDBRANCH  14  16
ENDBRANCH   3  14
TORSDOF 3
ENDMDL
