MODEL 1
REMARK VINA RESULT:      -8.2      0.000      0.000
REMARK  Name = 
REMARK  6 active torsions:
REMARK  status: ('A' for Active; 'I' for Inactive)
REMARK    1  A    between atoms: C_1  and  O_2
REMARK    2  A    between atoms: O_2  and  C_3
REMARK    3  A    between atoms: C_8  and  C_9
REMARK    4  A    between atoms: C_9  and  N_10
REMARK    5  A    between atoms: C_12  and  C_13
REMARK    6  A    between atoms: C_13  and  C_15
REMARK                            x       y       z     vdW  Elec       q    Type
REMARK                         _______ _______ _______ _____ _____    ______ ____
ROOT
ATOM      1  N   UNL     1       2.261   6.162  19.205  0.00  0.00    +0.000 N 
ATOM      2  C   UNL     1       2.316   5.693  17.863  0.00  0.00    +0.000 A 
ATOM      3  C   UNL     1       2.468   4.363  17.649  0.00  0.00    +0.000 A 
ATOM      4  C   UNL     1       1.197   3.839  18.257  0.00  0.00    +0.000 A 
ATOM      5  O   UNL     1       0.379   3.192  17.626  0.00  0.00    +0.000 OA
ATOM      6  C   UNL     1       1.097   4.118  19.722  0.00  0.00    +0.000 A 
ATOM      7  C   UNL     1       0.707   3.004  20.467  0.00  0.00    +0.000 A 
ATOM      8  C   UNL     1       1.506   2.674  21.539  0.00  0.00    +0.000 A 
ATOM      9  C   UNL     1       2.574   3.519  21.876  0.00  0.00    +0.000 A 
ATOM     10  C   UNL     1       2.768   4.783  21.250  0.00  0.00    +0.000 A 
ATOM     11  C   UNL     1       1.981   5.145  20.159  0.00  0.00    +0.000 A 
ENDROOT
BRANCH   3  12
ATOM     12  C   UNL     1       3.818   3.856  18.140  0.00  0.00    +0.000 C 
ATOM     13  O   UNL     1       3.936   2.729  18.626  0.00  0.00    +0.000 OA
BRANCH  12  14
ATOM     14  C   UNL     1       5.044   4.702  18.093  0.00  0.00    +0.000 A 
ATOM     15  C   UNL     1       5.379   5.495  16.978  0.00  0.00    +0.000 A 
ATOM     16  C   UNL     1       6.452   6.383  17.059  0.00  0.00    +0.000 A 
ATOM     17  C   UNL     1       7.177   6.512  18.234  0.00  0.00    +0.000 A 
ATOM     18 CL   UNL     1       8.424   7.705  18.346  0.00  0.00    +0.000 Cl
ATOM     19  C   UNL     1       6.888   5.722  19.341  0.00  0.00    +0.000 A 
ATOM     20  C   UNL     1       5.822   4.816  19.268  0.00  0.00    +0.000 A 
ENDBRANCH  12  14
ENDBRANCH   3  12
BRANCH   1  21
ATOM     21  C   UNL     1       2.518   7.596  19.455  0.00  0.00    +0.000 C 
BRANCH  21  27
ATOM     22  C   UNL     1       0.581   9.412  19.510  0.00  0.00    +0.000 A 
ATOM     23  C   UNL     1      -0.231  10.226  20.339  0.00  0.00    +0.000 A 
ATOM     24  C   UNL     1      -0.287  10.058  21.719  0.00  0.00    +0.000 A 
ATOM     25  C   UNL     1       0.444   9.034  22.294  0.00  0.00    +0.000 A 
ATOM     26  C   UNL     1       1.268   8.230  21.496  0.00  0.00    +0.000 A 
ATOM     27  C   UNL     1       1.397   8.416  20.100  0.00  0.00    +0.000 A 
BRANCH  22  29
ATOM     28  C   UNL     1      -0.941  10.109  17.754  0.00  0.00    +0.000 C 
ATOM     29  O   UNL     1       0.336   9.715  18.204  0.00  0.00    +0.000 OA
ENDBRANCH  22  29
ENDBRANCH  21  27
ENDBRANCH   1  21
TORSDOF 5
ENDMDL
MODEL 2
REMARK VINA RESULT:      -8.1      0.909      1.692
REMARK  Name = 
REMARK  6 active torsions:
REMARK  status: ('A' for Active; 'I' for Inactive)
REMARK    1  A    between atoms: C_1  and  O_2
REMARK    2  A    between atoms: O_2  and  C_3
REMARK    3  A    between atoms: C_8  and  C_9
REMARK    4  A    between atoms: C_9  and  N_10
REMARK    5  A    between atoms: C_12  and  C_13
REMARK    6  A    between atoms: C_13  and  C_15
REMARK                            x       y       z     vdW  Elec       q    Type
REMARK                         _______ _______ _______ _____ _____    ______ ____
ROOT
ATOM      1  N   UNL     1       2.353   6.189  19.279  0.00  0.00    +0.000 N 
ATOM      2  C   UNL     1       2.358   5.820  17.905  0.00  0.00    +0.000 A 
ATOM      3  C   UNL     1       2.445   4.505  17.589  0.00  0.00    +0.000 A 
ATOM      4  C   UNL     1       1.166   3.992  18.188  0.00  0.00    +0.000 A 
ATOM      5  O   UNL     1       0.307   3.429  17.533  0.00  0.00    +0.000 OA
ATOM      6  C   UNL     1       1.111   4.164  19.672  0.00  0.00    +0.000 A 
ATOM      7  C   UNL     1       0.689   3.015  20.343  0.00  0.00    +0.000 A 
ATOM      8  C   UNL     1       1.497   2.571  21.367  0.00  0.00    +0.000 A 
ATOM      9  C   UNL     1       2.609   3.343  21.738  0.00  0.00    +0.000 A 
ATOM     10  C   UNL     1       2.845   4.640  21.202  0.00  0.00    +0.000 A 
ATOM     11  C   UNL     1       2.049   5.117  20.162  0.00  0.00    +0.000 A 
ENDROOT
BRANCH   3  12
ATOM     12  C   UNL     1       3.782   3.906  18.006  0.00  0.00    +0.000 C 
ATOM     13  O   UNL     1       3.866   2.732  18.374  0.00  0.00    +0.000 OA
BRANCH  12  14
ATOM     14  C   UNL     1       5.036   4.710  18.027  0.00  0.00    +0.000 A 
ATOM     15  C   UNL     1       5.450   5.504  16.940  0.00  0.00    +0.000 A 
ATOM     16  C   UNL     1       6.546   6.355  17.083  0.00  0.00    +0.000 A 
ATOM     17  C   UNL     1       7.219   6.446  18.291  0.00  0.00    +0.000 A 
ATOM     18 CL   UNL     1       8.498   7.594  18.477  0.00  0.00    +0.000 Cl
ATOM     19  C   UNL     1       6.851   5.654  19.374  0.00  0.00    +0.000 A 
ATOM     20  C   UNL     1       5.760   4.785  19.239  0.00  0.00    +0.000 A 
ENDBRANCH  12  14
ENDBRANCH   3  12
BRANCH   1  21
ATOM     21  C   UNL     1       2.679   7.588  19.627  0.00  0.00    +0.000 C 
BRANCH  21  27
ATOM     22  C   UNL     1       0.683   8.959  20.718  0.00  0.00    +0.000 A 
ATOM     23  C   UNL     1      -0.474   9.738  20.462  0.00  0.00    +0.000 A 
ATOM     24  C   UNL     1      -0.790  10.202  19.189  0.00  0.00    +0.000 A 
ATOM     25  C   UNL     1       0.078   9.927  18.148  0.00  0.00    +0.000 A 
ATOM     26  C   UNL     1       1.217   9.144  18.374  0.00  0.00    +0.000 A 
ATOM     27  C   UNL     1       1.532   8.602  19.642  0.00  0.00    +0.000 A 
BRANCH  22  29
ATOM     28  C   UNL     1       0.037   9.487  22.996  0.00  0.00    +0.000 C 
ATOM     29  O   UNL     1       0.804   8.762  22.061  0.00  0.00    +0.000 OA
ENDBRANCH  22  29
ENDBRANCH  21  27
ENDBRANCH   1  21
TORSDOF 5
ENDMDL
MODEL 3
REMARK VINA RESULT:      -7.3      3.648      6.518
REMARK  Name = 
REMARK  6 active torsions:
REMARK  status: ('A' for Active; 'I' for Inactive)
REMARK    1  A    between atoms: C_1  and  O_2
REMARK    2  A    between atoms: O_2  and  C_3
REMARK    3  A    between atoms: C_8  and  C_9
REMARK    4  A    between atoms: C_9  and  N_10
REMARK    5  A    between atoms: C_12  and  C_13
REMARK    6  A    between atoms: C_13  and  C_15
REMARK                            x       y       z     vdW  Elec       q    Type
REMARK                         _______ _______ _______ _____ _____    ______ ____
ROOT
ATOM      1  N   UNL     1       5.020   5.182  17.419  0.00  0.00    +0.000 N 
ATOM      2  C   UNL     1       5.724   4.003  17.044  0.00  0.00    +0.000 A 
ATOM      3  C   UNL     1       7.011   4.121  16.638  0.00  0.00    +0.000 A 
ATOM      4  C   UNL     1       7.650   4.646  17.893  0.00  0.00    +0.000 A 
ATOM      5  O   UNL     1       8.560   4.071  18.464  0.00  0.00    +0.000 OA
ATOM      6  C   UNL     1       7.114   5.980  18.302  0.00  0.00    +0.000 A 
ATOM      7  C   UNL     1       8.114   6.897  18.630  0.00  0.00    +0.000 A 
ATOM      8  C   UNL     1       8.058   8.118  17.995  0.00  0.00    +0.000 A 
ATOM      9  C   UNL     1       6.966   8.401  17.161  0.00  0.00    +0.000 A 
ATOM     10  C   UNL     1       5.838   7.537  17.069  0.00  0.00    +0.000 A 
ATOM     11  C   UNL     1       5.864   6.292  17.695  0.00  0.00    +0.000 A 
ENDROOT
BRANCH   3  12
ATOM     12  C   UNL     1       7.129   4.900  15.334  0.00  0.00    +0.000 C 
ATOM     13  O   UNL     1       7.774   5.950  15.276  0.00  0.00    +0.000 OA
BRANCH  12  14
ATOM     14  C   UNL     1       6.447   4.458  14.084  0.00  0.00    +0.000 A 
ATOM     15  C   UNL     1       7.151   3.985  12.960  0.00  0.00    +0.000 A 
ATOM     16  C   UNL     1       6.450   3.438  11.885  0.00  0.00    +0.000 A 
ATOM     17  C   UNL     1       5.068   3.332  11.922  0.00  0.00    +0.000 A 
ATOM     18 CL   UNL     1       4.234   2.543  10.630  0.00  0.00    +0.000 Cl
ATOM     19  C   UNL     1       4.344   3.816  13.006  0.00  0.00    +0.000 A 
ATOM     20  C   UNL     1       5.036   4.381  14.086  0.00  0.00    +0.000 A 
ENDBRANCH  12  14
ENDBRANCH   3  12
BRANCH   1  21
ATOM     21  C   UNL     1       3.544   5.132  17.453  0.00  0.00    +0.000 C 
BRANCH  21  27
ATOM     22  C   UNL     1       2.479   3.107  18.802  0.00  0.00    +0.000 A 
ATOM     23  C   UNL     1       1.664   2.738  19.901  0.00  0.00    +0.000 A 
ATOM     24  C   UNL     1       1.274   3.652  20.875  0.00  0.00    +0.000 A 
ATOM     25  C   UNL     1       1.732   4.954  20.787  0.00  0.00    +0.000 A 
ATOM     26  C   UNL     1       2.523   5.345  19.699  0.00  0.00    +0.000 A 
ATOM     27  C   UNL     1       2.883   4.457  18.658  0.00  0.00    +0.000 A 
BRANCH  22  29
ATOM     28  C   UNL     1       3.849   1.129  18.490  0.00  0.00    +0.000 C 
ATOM     29  O   UNL     1       2.807   1.991  18.091  0.00  0.00    +0.000 OA
ENDBRANCH  22  29
ENDBRANCH  21  27
ENDBRANCH   1  21
TORSDOF 5
ENDMDL
MODEL 4
REMARK VINA RESULT:      -7.0      2.588      6.280
REMARK  Name = 
REMARK  6 active torsions:
REMARK  status: ('A' for Active; 'I' for Inactive)
REMARK    1  A    between atoms: C_1  and  O_2
REMARK    2  A    between atoms: O_2  and  C_3
REMARK    3  A    between atoms: C_8  and  C_9
REMARK    4  A    between atoms: C_9  and  N_10
REMARK    5  A    between atoms: C_12  and  C_13
REMARK    6  A    between atoms: C_13  and  C_15
REMARK                            x       y       z     vdW  Elec       q    Type
REMARK                         _______ _______ _______ _____ _____    ______ ____
ROOT
ATOM      1  N   UNL     1       3.730   5.173  18.042  0.00  0.00    +0.000 N 
ATOM      2  C   UNL     1       4.178   5.487  19.355  0.00  0.00    +0.000 A 
ATOM      3  C   UNL     1       3.445   5.053  20.410  0.00  0.00    +0.000 A 
ATOM      4  C   UNL     1       3.566   3.565  20.237  0.00  0.00    +0.000 A 
ATOM      5  O   UNL     1       4.037   2.835  21.091  0.00  0.00    +0.000 OA
ATOM      6  C   UNL     1       2.966   3.080  18.956  0.00  0.00    +0.000 A 
ATOM      7  C   UNL     1       2.144   1.964  19.123  0.00  0.00    +0.000 A 
ATOM      8  C   UNL     1       0.877   2.052  18.591  0.00  0.00    +0.000 A 
ATOM      9  C   UNL     1       0.533   3.184  17.837  0.00  0.00    +0.000 A 
ATOM     10  C   UNL     1       1.491   4.171  17.471  0.00  0.00    +0.000 A 
ATOM     11  C   UNL     1       2.781   4.115  17.996  0.00  0.00    +0.000 A 
ENDROOT
BRANCH   3  12
ATOM     12  C   UNL     1       2.072   5.710  20.459  0.00  0.00    +0.000 C 
ATOM     13  O   UNL     1       1.064   5.057  20.740  0.00  0.00    +0.000 OA
BRANCH  12  14
ATOM     14  C   UNL     1       1.873   7.151  20.136  0.00  0.00    +0.000 A 
ATOM     15  C   UNL     1       2.056   7.673  18.840  0.00  0.00    +0.000 A 
ATOM     16  C   UNL     1       1.700   8.995  18.571  0.00  0.00    +0.000 A 
ATOM     17  C   UNL     1       1.145   9.793  19.558  0.00  0.00    +0.000 A 
ATOM     18 CL   UNL     1       0.603  11.389  19.167  0.00  0.00    +0.000 Cl
ATOM     19  C   UNL     1       0.979   9.315  20.853  0.00  0.00    +0.000 A 
ATOM     20  C   UNL     1       1.346   7.994  21.140  0.00  0.00    +0.000 A 
ENDBRANCH  12  14
ENDBRANCH   3  12
BRANCH   1  21
ATOM     21  C   UNL     1       4.257   5.970  16.915  0.00  0.00    +0.000 C 
BRANCH  21  27
ATOM     22  C   UNL     1       6.751   5.504  16.126  0.00  0.00    +0.000 A 
ATOM     23  C   UNL     1       7.570   5.023  15.074  0.00  0.00    +0.000 A 
ATOM     24  C   UNL     1       7.048   4.350  13.975  0.00  0.00    +0.000 A 
ATOM     25  C   UNL     1       5.687   4.108  13.929  0.00  0.00    +0.000 A 
ATOM     26  C   UNL     1       4.856   4.591  14.947  0.00  0.00    +0.000 A 
ATOM     27  C   UNL     1       5.346   5.335  16.045  0.00  0.00    +0.000 A 
BRANCH  22  29
ATOM     28  C   UNL     1       7.528   7.364  17.476  0.00  0.00    +0.000 C 
ATOM     29  O   UNL     1       7.540   5.999  17.121  0.00  0.00    +0.000 OA
ENDBRANCH  22  29
ENDBRANCH  21  27
ENDBRANCH   1  21
TORSDOF 5
ENDMDL
MODEL 5
REMARK VINA RESULT:      -6.9      1.053      1.947
REMARK  Name = 
REMARK  6 active torsions:
REMARK  status: ('A' for Active; 'I' for Inactive)
REMARK    1  A    between atoms: C_1  and  O_2
REMARK    2  A    between atoms: O_2  and  C_3
REMARK    3  A    between atoms: C_8  and  C_9
REMARK    4  A    between atoms: C_9  and  N_10
REMARK    5  A    between atoms: C_12  and  C_13
REMARK    6  A    between atoms: C_13  and  C_15
REMARK                            x       y       z     vdW  Elec       q    Type
REMARK                         _______ _______ _______ _____ _____    ______ ____
ROOT
ATOM      1  N   UNL     1       2.052   6.183  19.765  0.00  0.00    +0.000 N 
ATOM      2  C   UNL     1       2.085   6.114  18.344  0.00  0.00    +0.000 A 
ATOM      3  C   UNL     1       2.327   4.914  17.760  0.00  0.00    +0.000 A 
ATOM      4  C   UNL     1       1.126   4.136  18.221  0.00  0.00    +0.000 A 
ATOM      5  O   UNL     1       0.333   3.625  17.450  0.00  0.00    +0.000 OA
ATOM      6  C   UNL     1       1.068   3.985  19.707  0.00  0.00    +0.000 A 
ATOM      7  C   UNL     1       0.795   2.679  20.115  0.00  0.00    +0.000 A 
ATOM      8  C   UNL     1       1.662   2.131  21.035  0.00  0.00    +0.000 A 
ATOM      9  C   UNL     1       2.677   2.935  21.575  0.00  0.00    +0.000 A 
ATOM     10  C   UNL     1       2.748   4.335  21.327  0.00  0.00    +0.000 A 
ATOM     11  C   UNL     1       1.890   4.920  20.398  0.00  0.00    +0.000 A 
ENDROOT
BRANCH   3  12
ATOM     12  C   UNL     1       3.731   4.406  18.062  0.00  0.00    +0.000 C 
ATOM     13  O   UNL     1       3.954   3.202  18.207  0.00  0.00    +0.000 OA
BRANCH  12  14
ATOM     14  C   UNL     1       4.887   5.331  18.232  0.00  0.00    +0.000 A 
ATOM     15  C   UNL     1       5.962   5.055  19.099  0.00  0.00    +0.000 A 
ATOM     16  C   UNL     1       7.085   5.881  19.094  0.00  0.00    +0.000 A 
ATOM     17  C   UNL     1       7.166   6.959  18.225  0.00  0.00    +0.000 A 
ATOM     18 CL   UNL     1       8.618   7.896  18.154  0.00  0.00    +0.000 Cl
ATOM     19  C   UNL     1       6.110   7.273  17.378  0.00  0.00    +0.000 A 
ATOM     20  C   UNL     1       4.969   6.459  17.385  0.00  0.00    +0.000 A 
ENDBRANCH  12  14
ENDBRANCH   3  12
BRANCH   1  21
ATOM     21  C   UNL     1       2.211   7.505  20.403  0.00  0.00    +0.000 C 
BRANCH  21  27
ATOM     22  C   UNL     1       0.084   9.071  20.684  0.00  0.00    +0.000 A 
ATOM     23  C   UNL     1      -0.823   9.936  20.021  0.00  0.00    +0.000 A 
ATOM     24  C   UNL     1      -0.604  10.388  18.724  0.00  0.00    +0.000 A 
ATOM     25  C   UNL     1       0.558  10.011  18.076  0.00  0.00    +0.000 A 
ATOM     26  C   UNL     1       1.459   9.142  18.704  0.00  0.00    +0.000 A 
ATOM     27  C   UNL     1       1.235   8.613  19.996  0.00  0.00    +0.000 A 
BRANCH  22  29
ATOM     28  C   UNL     1      -0.416   9.985  22.874  0.00  0.00    +0.000 C 
ATOM     29  O   UNL     1      -0.317   8.903  21.976  0.00  0.00    +0.000 OA
ENDBRANCH  22  29
ENDBRANCH  21  27
ENDBRANCH   1  21
TORSDOF 5
ENDMDL
MODEL 6
REMARK VINA RESULT:      -6.9      6.459      9.269
REMARK  Name = 
REMARK  6 active torsions:
REMARK  status: ('A' for Active; 'I' for Inactive)
REMARK    1  A    between atoms: C_1  and  O_2
REMARK    2  A    between atoms: O_2  and  C_3
REMARK    3  A    between atoms: C_8  and  C_9
REMARK    4  A    between atoms: C_9  and  N_10
REMARK    5  A    between atoms: C_12  and  C_13
REMARK    6  A    between atoms: C_13  and  C_15
REMARK                            x       y       z     vdW  Elec       q    Type
REMARK                         _______ _______ _______ _____ _____    ______ ____
ROOT
ATOM      1  N   UNL     1      -0.049  11.192  21.026  0.00  0.00    +0.000 N 
ATOM      2  C   UNL     1      -0.879  10.332  20.255  0.00  0.00    +0.000 A 
ATOM      3  C   UNL     1      -0.950  10.532  18.916  0.00  0.00    +0.000 A 
ATOM      4  C   UNL     1       0.474  10.257  18.520  0.00  0.00    +0.000 A 
ATOM      5  O   UNL     1       0.783   9.388  17.723  0.00  0.00    +0.000 OA
ATOM      6  C   UNL     1       1.442  11.215  19.135  0.00  0.00    +0.000 A 
ATOM      7  C   UNL     1       2.363  11.728  18.220  0.00  0.00    +0.000 A 
ATOM      8  C   UNL     1       2.481  13.099  18.171  0.00  0.00    +0.000 A 
ATOM      9  C   UNL     1       1.767  13.875  19.097  0.00  0.00    +0.000 A 
ATOM     10  C   UNL     1       1.050  13.294  20.181  0.00  0.00    +0.000 A 
ATOM     11  C   UNL     1       0.908  11.910  20.257  0.00  0.00    +0.000 A 
ENDROOT
BRANCH   3  12
ATOM     12  C   UNL     1      -1.596  11.867  18.571  0.00  0.00    +0.000 C 
ATOM     13  O   UNL     1      -1.186  12.548  17.628  0.00  0.00    +0.000 OA
BRANCH  12  14
ATOM     14  C   UNL     1      -2.720  12.431  19.372  0.00  0.00    +0.000 A 
ATOM     15  C   UNL     1      -2.598  13.612  20.129  0.00  0.00    +0.000 A 
ATOM     16  C   UNL     1      -3.728  14.172  20.725  0.00  0.00    +0.000 A 
ATOM     17  C   UNL     1      -4.976  13.591  20.559  0.00  0.00    +0.000 A 
ATOM     18 CL   UNL     1      -6.377  14.370  21.208  0.00  0.00    +0.000 Cl
ATOM     19  C   UNL     1      -5.124  12.410  19.840  0.00  0.00    +0.000 A 
ATOM     20  C   UNL     1      -3.994  11.830  19.249  0.00  0.00    +0.000 A 
ENDBRANCH  12  14
ENDBRANCH   3  12
BRANCH   1  21
ATOM     21  C   UNL     1      -0.281  11.264  22.484  0.00  0.00    +0.000 C 
BRANCH  21  27
ATOM     22  C   UNL     1      -1.097  13.638  23.350  0.00  0.00    +0.000 A 
ATOM     23  C   UNL     1      -2.124  14.342  24.028  0.00  0.00    +0.000 A 
ATOM     24  C   UNL     1      -3.353  13.761  24.323  0.00  0.00    +0.000 A 
ATOM     25  C   UNL     1      -3.593  12.466  23.902  0.00  0.00    +0.000 A 
ATOM     26  C   UNL     1      -2.587  11.745  23.248  0.00  0.00    +0.000 A 
ATOM     27  C   UNL     1      -1.304  12.284  22.991  0.00  0.00    +0.000 A 
BRANCH  22  29
ATOM     28  C   UNL     1      -0.277  15.863  22.835  0.00  0.00    +0.000 C 
ATOM     29  O   UNL     1      -0.067  14.491  23.084  0.00  0.00    +0.000 OA
ENDBRANCH  22  29
ENDBRANCH  21  27
ENDBRANCH   1  21
TORSDOF 5
ENDMDL
MODEL 7
REMARK VINA RESULT:      -6.8      2.942      6.695
REMARK  Name = 
REMARK  6 active torsions:
REMARK  status: ('A' for Active; 'I' for Inactive)
REMARK    1  A    between atoms: C_1  and  O_2
REMARK    2  A    between atoms: O_2  and  C_3
REMARK    3  A    between atoms: C_8  and  C_9
REMARK    4  A    between atoms: C_9  and  N_10
REMARK    5  A    between atoms: C_12  and  C_13
REMARK    6  A    between atoms: C_13  and  C_15
REMARK                            x       y       z     vdW  Elec       q    Type
REMARK                         _______ _______ _______ _____ _____    ______ ____
ROOT
ATOM      1  N   UNL     1       4.248   5.044  17.261  0.00  0.00    +0.000 N 
ATOM      2  C   UNL     1       4.774   5.696  18.411  0.00  0.00    +0.000 A 
ATOM      3  C   UNL     1       4.266   5.374  19.626  0.00  0.00    +0.000 A 
ATOM      4  C   UNL     1       4.656   3.925  19.712  0.00  0.00    +0.000 A 
ATOM      5  O   UNL     1       5.356   3.479  20.605  0.00  0.00    +0.000 OA
ATOM      6  C   UNL     1       4.020   3.088  18.649  0.00  0.00    +0.000 A 
ATOM      7  C   UNL     1       3.458   1.909  19.140  0.00  0.00    +0.000 A 
ATOM      8  C   UNL     1       2.145   1.668  18.799  0.00  0.00    +0.000 A 
ATOM      9  C   UNL     1       1.502   2.543  17.911  0.00  0.00    +0.000 A 
ATOM     10  C   UNL     1       2.200   3.579  17.229  0.00  0.00    +0.000 A 
ATOM     11  C   UNL     1       3.527   3.854  17.554  0.00  0.00    +0.000 A 
ENDROOT
BRANCH   3  12
ATOM     12  C   UNL     1       2.805   5.783  19.760  0.00  0.00    +0.000 C 
ATOM     13  O   UNL     1       1.947   4.973  20.118  0.00  0.00    +0.000 OA
BRANCH  12  14
ATOM     14  C   UNL     1       2.337   7.160  19.433  0.00  0.00    +0.000 A 
ATOM     15  C   UNL     1       2.363   7.682  18.125  0.00  0.00    +0.000 A 
ATOM     16  C   UNL     1       1.764   8.914  17.860  0.00  0.00    +0.000 A 
ATOM     17  C   UNL     1       1.123   9.619  18.866  0.00  0.00    +0.000 A 
ATOM     18 CL   UNL     1       0.287  11.085  18.487  0.00  0.00    +0.000 Cl
ATOM     19  C   UNL     1       1.105   9.143  20.172  0.00  0.00    +0.000 A 
ATOM     20  C   UNL     1       1.715   7.914  20.454  0.00  0.00    +0.000 A 
ENDBRANCH  12  14
ENDBRANCH   3  12
BRANCH   1  21
ATOM     21  C   UNL     1       4.477   5.665  15.940  0.00  0.00    +0.000 C 
BRANCH  21  27
ATOM     22  C   UNL     1       6.824   4.893  14.965  0.00  0.00    +0.000 A 
ATOM     23  C   UNL     1       7.502   4.371  13.836  0.00  0.00    +0.000 A 
ATOM     24  C   UNL     1       6.825   3.860  12.733  0.00  0.00    +0.000 A 
ATOM     25  C   UNL     1       5.442   3.826  12.760  0.00  0.00    +0.000 A 
ATOM     26  C   UNL     1       4.751   4.354  13.857  0.00  0.00    +0.000 A 
ATOM     27  C   UNL     1       5.408   4.939  14.965  0.00  0.00    +0.000 A 
BRANCH  22  29
ATOM     28  C   UNL     1       7.725   4.556  17.192  0.00  0.00    +0.000 C 
ATOM     29  O   UNL     1       7.732   5.196  15.935  0.00  0.00    +0.000 OA
ENDBRANCH  22  29
ENDBRANCH  21  27
ENDBRANCH   1  21
TORSDOF 5
ENDMDL
MODEL 8
REMARK VINA RESULT:      -6.8      3.570      6.219
REMARK  Name = 
REMARK  6 active torsions:
REMARK  status: ('A' for Active; 'I' for Inactive)
REMARK    1  A    between atoms: C_1  and  O_2
REMARK    2  A    between atoms: O_2  and  C_3
REMARK    3  A    between atoms: C_8  and  C_9
REMARK    4  A    between atoms: C_9  and  N_10
REMARK    5  A    between atoms: C_12  and  C_13
REMARK    6  A    between atoms: C_13  and  C_15
REMARK                            x       y       z     vdW  Elec       q    Type
REMARK                         _______ _______ _______ _____ _____    ______ ____
ROOT
ATOM      1  N   UNL     1       4.993   4.759  17.187  0.00  0.00    +0.000 N 
ATOM      2  C   UNL     1       5.817   3.669  16.793  0.00  0.00    +0.000 A 
ATOM      3  C   UNL     1       7.089   3.928  16.402  0.00  0.00    +0.000 A 
ATOM      4  C   UNL     1       7.660   4.487  17.675  0.00  0.00    +0.000 A 
ATOM      5  O   UNL     1       8.620   3.995  18.242  0.00  0.00    +0.000 OA
ATOM      6  C   UNL     1       6.986   5.748  18.108  0.00  0.00    +0.000 A 
ATOM      7  C   UNL     1       7.884   6.755  18.467  0.00  0.00    +0.000 A 
ATOM      8  C   UNL     1       7.708   7.978  17.858  0.00  0.00    +0.000 A 
ATOM      9  C   UNL     1       6.599   8.167  17.020  0.00  0.00    +0.000 A 
ATOM     10  C   UNL     1       5.566   7.194  16.897  0.00  0.00    +0.000 A 
ATOM     11  C   UNL     1       5.715   5.944  17.496  0.00  0.00    +0.000 A 
ENDROOT
BRANCH   3  12
ATOM     12  C   UNL     1       7.136   4.745  15.117  0.00  0.00    +0.000 C 
ATOM     13  O   UNL     1       7.771   5.800  15.057  0.00  0.00    +0.000 OA
BRANCH  12  14
ATOM     14  C   UNL     1       6.393   4.334  13.892  0.00  0.00    +0.000 A 
ATOM     15  C   UNL     1       7.003   3.641  12.829  0.00  0.00    +0.000 A 
ATOM     16  C   UNL     1       6.220   3.147  11.786  0.00  0.00    +0.000 A 
ATOM     17  C   UNL     1       4.843   3.310  11.796  0.00  0.00    +0.000 A 
ATOM     18 CL   UNL     1       3.884   2.585  10.553  0.00  0.00    +0.000 Cl
ATOM     19  C   UNL     1       4.216   4.014  12.818  0.00  0.00    +0.000 A 
ATOM     20  C   UNL     1       4.993   4.528  13.864  0.00  0.00    +0.000 A 
ENDBRANCH  12  14
ENDBRANCH   3  12
BRANCH   1  21
ATOM     21  C   UNL     1       3.529   4.558  17.205  0.00  0.00    +0.000 C 
BRANCH  21  27
ATOM     22  C   UNL     1       2.782   5.278  19.650  0.00  0.00    +0.000 A 
ATOM     23  C   UNL     1       2.326   4.820  20.912  0.00  0.00    +0.000 A 
ATOM     24  C   UNL     1       1.907   3.510  21.120  0.00  0.00    +0.000 A 
ATOM     25  C   UNL     1       1.897   2.638  20.047  0.00  0.00    +0.000 A 
ATOM     26  C   UNL     1       2.360   3.062  18.796  0.00  0.00    +0.000 A 
ATOM     27  C   UNL     1       2.855   4.368  18.566  0.00  0.00    +0.000 A 
BRANCH  22  29
ATOM     28  C   UNL     1       1.964   7.534  20.001  0.00  0.00    +0.000 C 
ATOM     29  O   UNL     1       2.999   6.622  19.710  0.00  0.00    +0.000 OA
ENDBRANCH  22  29
ENDBRANCH  21  27
ENDBRANCH   1  21
TORSDOF 5
ENDMDL
MODEL 9
REMARK VINA RESULT:      -6.8      8.554     11.516
REMARK  Name = 
REMARK  6 active torsions:
REMARK  status: ('A' for Active; 'I' for Inactive)
REMARK    1  A    between atoms: C_1  and  O_2
REMARK    2  A    between atoms: O_2  and  C_3
REMARK    3  A    between atoms: C_8  and  C_9
REMARK    4  A    between atoms: C_9  and  N_10
REMARK    5  A    between atoms: C_12  and  C_13
REMARK    6  A    between atoms: C_13  and  C_15
REMARK                            x       y       z     vdW  Elec       q    Type
REMARK                         _______ _______ _______ _____ _____    ______ ____
ROOT
ATOM      1  N   UNL     1       8.128  15.470  20.350  0.00  0.00    +0.000 N 
ATOM      2  C   UNL     1       7.951  16.296  19.206  0.00  0.00    +0.000 A 
ATOM      3  C   UNL     1       6.688  16.602  18.818  0.00  0.00    +0.000 A 
ATOM      4  C   UNL     1       6.214  17.381  20.013  0.00  0.00    +0.000 A 
ATOM      5  O   UNL     1       5.826  18.534  19.941  0.00  0.00    +0.000 OA
ATOM      6  C   UNL     1       6.187  16.564  21.265  0.00  0.00    +0.000 A 
ATOM      7  C   UNL     1       4.999  16.703  21.985  0.00  0.00    +0.000 A 
ATOM      8  C   UNL     1       4.350  15.538  22.327  0.00  0.00    +0.000 A 
ATOM      9  C   UNL     1       4.960  14.309  22.035  0.00  0.00    +0.000 A 
ATOM     10  C   UNL     1       6.293  14.222  21.541  0.00  0.00    +0.000 A 
ATOM     11  C   UNL     1       6.976  15.382  21.180  0.00  0.00    +0.000 A 
ENDROOT
BRANCH   3  12
ATOM     12  C   UNL     1       5.920  15.372  18.352  0.00  0.00    +0.000 C 
ATOM     13  O   UNL     1       6.511  14.377  17.926  0.00  0.00    +0.000 OA
BRANCH  12  14
ATOM     14  C   UNL     1       4.430  15.324  18.352  0.00  0.00    +0.000 A 
ATOM     15  C   UNL     1       3.705  14.208  18.812  0.00  0.00    +0.000 A 
ATOM     16  C   UNL     1       2.318  14.288  18.935  0.00  0.00    +0.000 A 
ATOM     17  C   UNL     1       1.647  15.462  18.631  0.00  0.00    +0.000 A 
ATOM     18 CL   UNL     1      -0.057  15.572  18.904  0.00  0.00    +0.000 Cl
ATOM     19  C   UNL     1       2.332  16.571  18.147  0.00  0.00    +0.000 A 
ATOM     20  C   UNL     1       3.725  16.499  18.006  0.00  0.00    +0.000 A 
ENDBRANCH  12  14
ENDBRANCH   3  12
BRANCH   1  21
ATOM     21  C   UNL     1       9.430  14.796  20.531  0.00  0.00    +0.000 C 
BRANCH  21  27
ATOM     22  C   UNL     1       9.636  12.901  18.681  0.00  0.00    +0.000 A 
ATOM     23  C   UNL     1       9.510  11.515  18.412  0.00  0.00    +0.000 A 
ATOM     24  C   UNL     1       9.355  10.574  19.425  0.00  0.00    +0.000 A 
ATOM     25  C   UNL     1       9.367  11.004  20.739  0.00  0.00    +0.000 A 
ATOM     26  C   UNL     1       9.471  12.371  21.027  0.00  0.00    +0.000 A 
ATOM     27  C   UNL     1       9.564  13.359  20.019  0.00  0.00    +0.000 A 
BRANCH  22  29
ATOM     28  C   UNL     1      11.136  13.422  16.846  0.00  0.00    +0.000 C 
ATOM     29  O   UNL     1       9.905  13.562  17.519  0.00  0.00    +0.000 OA
ENDBRANCH  22  29
ENDBRANCH  21  27
ENDBRANCH   1  21
TORSDOF 5
ENDMDL
