MODEL 1
REMARK VINA RESULT:      -6.6      0.000      0.000
REMARK  Name = 
REMARK  2 active torsions:
REMARK  status: ('A' for Active; 'I' for Inactive)
REMARK    1  A    between atoms: C_2  and  C_3
REMARK    2  A    between atoms: C_12  and  C_13
REMARK                            x       y       z     vdW  Elec       q    Type
REMARK                         _______ _______ _______ _____ _____    ______ ____
ROOT
ATOM      1  C   UNL     1       7.025   4.494  12.921  0.00  0.00    +0.000 A 
ATOM      2  C   UNL     1       6.833   3.745  11.771  0.00  0.00    +0.000 A 
ATOM      3  C   UNL     1       5.653   2.992  11.938  0.00  0.00    +0.000 A 
ATOM      4  C   UNL     1       5.154   3.292  13.187  0.00  0.00    +0.000 A 
ATOM      5  N   UNL     1       5.976   4.229  13.792  0.00  0.00    +0.000 N 
ATOM      6  C   UNL     1       5.768   4.798  15.086  0.00  0.00    +0.000 A 
ATOM      7  N   UNL     1       6.600   5.781  15.478  0.00  0.00    +0.000 NA
ATOM      8  C   UNL     1       6.393   6.314  16.690  0.00  0.00    +0.000 A 
ATOM      9  C   UNL     1       5.395   5.895  17.528  0.00  0.00    +0.000 A 
ATOM     10  C   UNL     1       4.596   4.872  17.059  0.00  0.00    +0.000 A 
ATOM     11  N   UNL     1       4.761   4.315  15.837  0.00  0.00    +0.000 NA
ENDROOT
BRANCH  10  12
ATOM     12  C   UNL     1       3.542   4.255  17.873  0.00  0.00    +0.000 A 
ATOM     13  C   UNL     1       2.168   4.339  17.709  0.00  0.00    +0.000 A 
ATOM     14  C   UNL     1       1.448   3.603  18.695  0.00  0.00    +0.000 A 
ATOM     15  C   UNL     1       2.291   2.980  19.587  0.00  0.00    +0.000 A 
ATOM     16  S   UNL     1       3.933   3.278  19.233  0.00  0.00    +0.000 S 
ENDBRANCH  10  12
BRANCH   1  18
ATOM     17  N   UNL     1       9.013   6.078  13.345  0.00  0.00    +0.000 NA
ATOM     18  C   UNL     1       8.123   5.355  13.182  0.00  0.00    +0.000 C 
ENDBRANCH   1  18
TORSDOF 2
ENDMDL
MODEL 2
REMARK VINA RESULT:      -6.4      2.461      6.261
REMARK  Name = 
REMARK  2 active torsions:
REMARK  status: ('A' for Active; 'I' for Inactive)
REMARK    1  A    between atoms: C_2  and  C_3
REMARK    2  A    between atoms: C_12  and  C_13
REMARK                            x       y       z     vdW  Elec       q    Type
REMARK                         _______ _______ _______ _____ _____    ______ ____
ROOT
ATOM      1  C   UNL     1       2.279   4.086  19.274  0.00  0.00    +0.000 A 
ATOM      2  C   UNL     1       1.617   2.946  19.701  0.00  0.00    +0.000 A 
ATOM      3  C   UNL     1       1.958   1.895  18.825  0.00  0.00    +0.000 A 
ATOM      4  C   UNL     1       2.813   2.417  17.879  0.00  0.00    +0.000 A 
ATOM      5  N   UNL     1       3.035   3.757  18.157  0.00  0.00    +0.000 N 
ATOM      6  C   UNL     1       3.885   4.626  17.407  0.00  0.00    +0.000 A 
ATOM      7  N   UNL     1       4.079   5.871  17.880  0.00  0.00    +0.000 NA
ATOM      8  C   UNL     1       4.883   6.678  17.174  0.00  0.00    +0.000 A 
ATOM      9  C   UNL     1       5.492   6.292  16.010  0.00  0.00    +0.000 A 
ATOM     10  C   UNL     1       5.228   5.005  15.584  0.00  0.00    +0.000 A 
ATOM     11  N   UNL     1       4.434   4.154  16.272  0.00  0.00    +0.000 NA
ENDROOT
BRANCH  10  12
ATOM     12  C   UNL     1       5.734   4.474  14.313  0.00  0.00    +0.000 A 
ATOM     13  C   UNL     1       5.084   3.656  13.403  0.00  0.00    +0.000 A 
ATOM     14  C   UNL     1       5.890   3.339  12.270  0.00  0.00    +0.000 A 
ATOM     15  C   UNL     1       7.135   3.921  12.347  0.00  0.00    +0.000 A 
ATOM     16  S   UNL     1       7.324   4.843  13.771  0.00  0.00    +0.000 S 
ENDBRANCH  10  12
BRANCH   1  18
ATOM     17  N   UNL     1       2.038   6.419  20.342  0.00  0.00    +0.000 NA
ATOM     18  C   UNL     1       2.174   5.377  19.854  0.00  0.00    +0.000 C 
ENDBRANCH   1  18
TORSDOF 2
ENDMDL
MODEL 3
REMARK VINA RESULT:      -6.3      4.842      7.076
REMARK  Name = 
REMARK  2 active torsions:
REMARK  status: ('A' for Active; 'I' for Inactive)
REMARK    1  A    between atoms: C_2  and  C_3
REMARK    2  A    between atoms: C_12  and  C_13
REMARK                            x       y       z     vdW  Elec       q    Type
REMARK                         _______ _______ _______ _____ _____    ______ ____
ROOT
ATOM      1  C   UNL     1       3.470   3.819  19.556  0.00  0.00    +0.000 A 
ATOM      2  C   UNL     1       3.383   2.669  20.324  0.00  0.00    +0.000 A 
ATOM      3  C   UNL     1       2.519   2.935  21.405  0.00  0.00    +0.000 A 
ATOM      4  C   UNL     1       2.102   4.243  21.279  0.00  0.00    +0.000 A 
ATOM      5  N   UNL     1       2.662   4.789  20.135  0.00  0.00    +0.000 N 
ATOM      6  C   UNL     1       2.443   6.120  19.662  0.00  0.00    +0.000 A 
ATOM      7  N   UNL     1       2.974   6.456  18.472  0.00  0.00    +0.000 NA
ATOM      8  C   UNL     1       2.757   7.703  18.034  0.00  0.00    +0.000 A 
ATOM      9  C   UNL     1       2.041   8.629  18.742  0.00  0.00    +0.000 A 
ATOM     10  C   UNL     1       1.545   8.212  19.961  0.00  0.00    +0.000 A 
ATOM     11  N   UNL     1       1.729   6.958  20.436  0.00  0.00    +0.000 NA
ENDROOT
BRANCH  10  12
ATOM     12  C   UNL     1       0.834   9.112  20.877  0.00  0.00    +0.000 A 
ATOM     13  C   UNL     1       0.518   8.909  22.210  0.00  0.00    +0.000 A 
ATOM     14  C   UNL     1      -0.181  10.010  22.786  0.00  0.00    +0.000 A 
ATOM     15  C   UNL     1      -0.383  11.022  21.876  0.00  0.00    +0.000 A 
ATOM     16  S   UNL     1       0.270  10.647  20.345  0.00  0.00    +0.000 S 
ENDBRANCH  10  12
BRANCH   1  18
ATOM     17  N   UNL     1       4.967   4.099  17.478  0.00  0.00    +0.000 NA
ATOM     18  C   UNL     1       4.274   3.990  18.399  0.00  0.00    +0.000 C 
ENDBRANCH   1  18
TORSDOF 2
ENDMDL
MODEL 4
REMARK VINA RESULT:      -6.3      4.090      5.827
REMARK  Name = 
REMARK  2 active torsions:
REMARK  status: ('A' for Active; 'I' for Inactive)
REMARK    1  A    between atoms: C_2  and  C_3
REMARK    2  A    between atoms: C_12  and  C_13
REMARK                            x       y       z     vdW  Elec       q    Type
REMARK                         _______ _______ _______ _____ _____    ______ ____
ROOT
ATOM      1  C   UNL     1       4.363   4.185  17.111  0.00  0.00    +0.000 A 
ATOM      2  C   UNL     1       5.196   4.428  16.030  0.00  0.00    +0.000 A 
ATOM      3  C   UNL     1       5.293   5.825  15.866  0.00  0.00    +0.000 A 
ATOM      4  C   UNL     1       4.514   6.403  16.844  0.00  0.00    +0.000 A 
ATOM      5  N   UNL     1       3.955   5.407  17.629  0.00  0.00    +0.000 N 
ATOM      6  C   UNL     1       3.104   5.623  18.756  0.00  0.00    +0.000 A 
ATOM      7  N   UNL     1       2.739   4.548  19.478  0.00  0.00    +0.000 NA
ATOM      8  C   UNL     1       1.946   4.760  20.537  0.00  0.00    +0.000 A 
ATOM      9  C   UNL     1       1.498   6.003  20.896  0.00  0.00    +0.000 A 
ATOM     10  C   UNL     1       1.903   7.051  20.094  0.00  0.00    +0.000 A 
ATOM     11  N   UNL     1       2.713   6.883  19.024  0.00  0.00    +0.000 NA
ENDROOT
BRANCH  10  12
ATOM     12  C   UNL     1       1.436   8.427  20.295  0.00  0.00    +0.000 A 
ATOM     13  C   UNL     1       1.071   9.048  21.479  0.00  0.00    +0.000 A 
ATOM     14  C   UNL     1       0.669  10.403  21.292  0.00  0.00    +0.000 A 
ATOM     15  C   UNL     1       0.733  10.779  19.970  0.00  0.00    +0.000 A 
ATOM     16  S   UNL     1       1.279   9.510  18.968  0.00  0.00    +0.000 S 
ENDBRANCH  10  12
BRANCH   1  18
ATOM     17  N   UNL     1       3.659   1.844  17.928  0.00  0.00    +0.000 NA
ATOM     18  C   UNL     1       3.965   2.908  17.586  0.00  0.00    +0.000 C 
ENDBRANCH   1  18
TORSDOF 2
ENDMDL
MODEL 5
REMARK VINA RESULT:      -6.3      6.333      9.047
REMARK  Name = 
REMARK  2 active torsions:
REMARK  status: ('A' for Active; 'I' for Inactive)
REMARK    1  A    between atoms: C_2  and  C_3
REMARK    2  A    between atoms: C_12  and  C_13
REMARK                            x       y       z     vdW  Elec       q    Type
REMARK                         _______ _______ _______ _____ _____    ______ ____
ROOT
ATOM      1  C   UNL     1      -0.439  11.115  21.028  0.00  0.00    +0.000 A 
ATOM      2  C   UNL     1      -1.016  11.361  22.264  0.00  0.00    +0.000 A 
ATOM      3  C   UNL     1      -0.685  10.288  23.116  0.00  0.00    +0.000 A 
ATOM      4  C   UNL     1       0.080   9.408  22.382  0.00  0.00    +0.000 A 
ATOM      5  N   UNL     1       0.256   9.916  21.104  0.00  0.00    +0.000 N 
ATOM      6  C   UNL     1       1.012   9.292  20.065  0.00  0.00    +0.000 A 
ATOM      7  N   UNL     1       1.178   9.975  18.917  0.00  0.00    +0.000 NA
ATOM      8  C   UNL     1       1.894   9.385  17.950  0.00  0.00    +0.000 A 
ATOM      9  C   UNL     1       2.441   8.138  18.082  0.00  0.00    +0.000 A 
ATOM     10  C   UNL     1       2.212   7.497  19.283  0.00  0.00    +0.000 A 
ATOM     11  N   UNL     1       1.506   8.060  20.290  0.00  0.00    +0.000 NA
ENDROOT
BRANCH  10  12
ATOM     12  C   UNL     1       2.657   6.123  19.544  0.00  0.00    +0.000 A 
ATOM     13  C   UNL     1       2.068   5.168  20.358  0.00  0.00    +0.000 A 
ATOM     14  C   UNL     1       2.783   3.935  20.368  0.00  0.00    +0.000 A 
ATOM     15  C   UNL     1       3.899   3.982  19.565  0.00  0.00    +0.000 A 
ATOM     16  S   UNL     1       4.078   5.499  18.804  0.00  0.00    +0.000 S 
ENDBRANCH  10  12
BRANCH   1  18
ATOM     17  N   UNL     1      -0.677  12.635  18.961  0.00  0.00    +0.000 NA
ATOM     18  C   UNL     1      -0.567  11.929  19.872  0.00  0.00    +0.000 C 
ENDBRANCH   1  18
TORSDOF 2
ENDMDL
MODEL 6
REMARK VINA RESULT:      -6.2      5.223      6.776
REMARK  Name = 
REMARK  2 active torsions:
REMARK  status: ('A' for Active; 'I' for Inactive)
REMARK    1  A    between atoms: C_2  and  C_3
REMARK    2  A    between atoms: C_12  and  C_13
REMARK                            x       y       z     vdW  Elec       q    Type
REMARK                         _______ _______ _______ _____ _____    ______ ____
ROOT
ATOM      1  C   UNL     1       3.923   5.494  18.173  0.00  0.00    +0.000 A 
ATOM      2  C   UNL     1       4.221   4.221  18.633  0.00  0.00    +0.000 A 
ATOM      3  C   UNL     1       3.532   4.029  19.847  0.00  0.00    +0.000 A 
ATOM      4  C   UNL     1       2.834   5.189  20.106  0.00  0.00    +0.000 A 
ATOM      5  N   UNL     1       3.050   6.088  19.074  0.00  0.00    +0.000 N 
ATOM      6  C   UNL     1       2.474   7.393  18.981  0.00  0.00    +0.000 A 
ATOM      7  N   UNL     1       2.696   8.095  17.854  0.00  0.00    +0.000 NA
ATOM      8  C   UNL     1       2.147   9.315  17.773  0.00  0.00    +0.000 A 
ATOM      9  C   UNL     1       1.394   9.862  18.777  0.00  0.00    +0.000 A 
ATOM     10  C   UNL     1       1.227   9.084  19.905  0.00  0.00    +0.000 A 
ATOM     11  N   UNL     1       1.752   7.843  20.024  0.00  0.00    +0.000 NA
ENDROOT
BRANCH  10  12
ATOM     12  C   UNL     1       0.521   9.564  21.099  0.00  0.00    +0.000 A 
ATOM     13  C   UNL     1       0.529   9.028  22.377  0.00  0.00    +0.000 A 
ATOM     14  C   UNL     1      -0.278   9.767  23.291  0.00  0.00    +0.000 A 
ATOM     15  C   UNL     1      -0.883  10.845  22.687  0.00  0.00    +0.000 A 
ATOM     16  S   UNL     1      -0.475  10.965  21.034  0.00  0.00    +0.000 S 
ENDBRANCH  10  12
BRANCH   1  18
ATOM     17  N   UNL     1       4.928   6.587  16.066  0.00  0.00    +0.000 NA
ATOM     18  C   UNL     1       4.449   6.102  17.003  0.00  0.00    +0.000 C 
ENDBRANCH   1  18
TORSDOF 2
ENDMDL
MODEL 7
REMARK VINA RESULT:      -6.1      4.663      6.888
REMARK  Name = 
REMARK  2 active torsions:
REMARK  status: ('A' for Active; 'I' for Inactive)
REMARK    1  A    between atoms: C_2  and  C_3
REMARK    2  A    between atoms: C_12  and  C_13
REMARK                            x       y       z     vdW  Elec       q    Type
REMARK                         _______ _______ _______ _____ _____    ______ ____
ROOT
ATOM      1  C   UNL     1       3.601   3.852  19.558  0.00  0.00    +0.000 A 
ATOM      2  C   UNL     1       3.436   2.737  20.364  0.00  0.00    +0.000 A 
ATOM      3  C   UNL     1       2.481   3.055  21.351  0.00  0.00    +0.000 A 
ATOM      4  C   UNL     1       2.088   4.357  21.130  0.00  0.00    +0.000 A 
ATOM      5  N   UNL     1       2.753   4.850  20.019  0.00  0.00    +0.000 N 
ATOM      6  C   UNL     1       2.588   6.159  19.470  0.00  0.00    +0.000 A 
ATOM      7  N   UNL     1       3.225   6.439  18.319  0.00  0.00    +0.000 NA
ATOM      8  C   UNL     1       3.059   7.667  17.809  0.00  0.00    +0.000 A 
ATOM      9  C   UNL     1       2.290   8.627  18.409  0.00  0.00    +0.000 A 
ATOM     10  C   UNL     1       1.683   8.266  19.596  0.00  0.00    +0.000 A 
ATOM     11  N   UNL     1       1.813   7.034  20.139  0.00  0.00    +0.000 NA
ENDROOT
BRANCH  10  12
ATOM     12  C   UNL     1       0.901   9.209  20.403  0.00  0.00    +0.000 A 
ATOM     13  C   UNL     1       0.049  10.212  19.970  0.00  0.00    +0.000 A 
ATOM     14  C   UNL     1      -0.547  10.934  21.045  0.00  0.00    +0.000 A 
ATOM     15  C   UNL     1      -0.131  10.466  22.270  0.00  0.00    +0.000 A 
ATOM     16  S   UNL     1       0.963   9.165  22.121  0.00  0.00    +0.000 S 
ENDBRANCH  10  12
BRANCH   1  18
ATOM     17  N   UNL     1       5.282   4.038  17.614  0.00  0.00    +0.000 NA
ATOM     18  C   UNL     1       4.506   3.968  18.471  0.00  0.00    +0.000 C 
ENDBRANCH   1  18
TORSDOF 2
ENDMDL
MODEL 8
REMARK VINA RESULT:      -6.0      2.367      6.283
REMARK  Name = 
REMARK  2 active torsions:
REMARK  status: ('A' for Active; 'I' for Inactive)
REMARK    1  A    between atoms: C_2  and  C_3
REMARK    2  A    between atoms: C_12  and  C_13
REMARK                            x       y       z     vdW  Elec       q    Type
REMARK                         _______ _______ _______ _____ _____    ______ ____
ROOT
ATOM      1  C   UNL     1       2.510   3.872  19.303  0.00  0.00    +0.000 A 
ATOM      2  C   UNL     1       2.002   2.652  19.720  0.00  0.00    +0.000 A 
ATOM      3  C   UNL     1       2.508   1.657  18.859  0.00  0.00    +0.000 A 
ATOM      4  C   UNL     1       3.308   2.291  17.933  0.00  0.00    +0.000 A 
ATOM      5  N   UNL     1       3.335   3.648  18.209  0.00  0.00    +0.000 N 
ATOM      6  C   UNL     1       4.076   4.626  17.477  0.00  0.00    +0.000 A 
ATOM      7  N   UNL     1       4.082   5.887  17.947  0.00  0.00    +0.000 NA
ATOM      8  C   UNL     1       4.785   6.796  17.258  0.00  0.00    +0.000 A 
ATOM      9  C   UNL     1       5.473   6.495  16.113  0.00  0.00    +0.000 A 
ATOM     10  C   UNL     1       5.402   5.184  15.688  0.00  0.00    +0.000 A 
ATOM     11  N   UNL     1       4.715   4.232  16.360  0.00  0.00    +0.000 NA
ENDROOT
BRANCH  10  12
ATOM     12  C   UNL     1       6.011   4.725  14.434  0.00  0.00    +0.000 A 
ATOM     13  C   UNL     1       7.223   5.101  13.878  0.00  0.00    +0.000 A 
ATOM     14  C   UNL     1       7.492   4.443  12.642  0.00  0.00    +0.000 A 
ATOM     15  C   UNL     1       6.477   3.585  12.286  0.00  0.00    +0.000 A 
ATOM     16  S   UNL     1       5.215   3.573  13.435  0.00  0.00    +0.000 S 
ENDBRANCH  10  12
BRANCH   1  18
ATOM     17  N   UNL     1       1.920   6.149  20.356  0.00  0.00    +0.000 NA
ATOM     18  C   UNL     1       2.211   5.137  19.873  0.00  0.00    +0.000 C 
ENDBRANCH   1  18
TORSDOF 2
ENDMDL
MODEL 9
REMARK VINA RESULT:      -6.0      5.635      7.365
REMARK  Name = 
REMARK  2 active torsions:
REMARK  status: ('A' for Active; 'I' for Inactive)
REMARK    1  A    between atoms: C_2  and  C_3
REMARK    2  A    between atoms: C_12  and  C_13
REMARK                            x       y       z     vdW  Elec       q    Type
REMARK                         _______ _______ _______ _____ _____    ______ ____
ROOT
ATOM      1  C   UNL     1       3.423   5.626  18.798  0.00  0.00    +0.000 A 
ATOM      2  C   UNL     1       3.569   4.386  19.399  0.00  0.00    +0.000 A 
ATOM      3  C   UNL     1       2.754   4.365  20.549  0.00  0.00    +0.000 A 
ATOM      4  C   UNL     1       2.134   5.593  20.629  0.00  0.00    +0.000 A 
ATOM      5  N   UNL     1       2.520   6.368  19.547  0.00  0.00    +0.000 N 
ATOM      6  C   UNL     1       2.066   7.696  19.278  0.00  0.00    +0.000 A 
ATOM      7  N   UNL     1       2.452   8.266  18.121  0.00  0.00    +0.000 NA
ATOM      8  C   UNL     1       2.015   9.509  17.874  0.00  0.00    +0.000 A 
ATOM      9  C   UNL     1       1.218  10.206  18.741  0.00  0.00    +0.000 A 
ATOM     10  C   UNL     1       0.880   9.557  19.913  0.00  0.00    +0.000 A 
ATOM     11  N   UNL     1       1.288   8.298  20.196  0.00  0.00    +0.000 NA
ENDROOT
BRANCH  10  12
ATOM     12  C   UNL     1       0.107  10.202  20.980  0.00  0.00    +0.000 A 
ATOM     13  C   UNL     1      -0.514  11.441  20.964  0.00  0.00    +0.000 A 
ATOM     14  C   UNL     1      -1.181  11.740  22.187  0.00  0.00    +0.000 A 
ATOM     15  C   UNL     1      -1.049  10.725  23.106  0.00  0.00    +0.000 A 
ATOM     16  S   UNL     1      -0.132   9.422  22.493  0.00  0.00    +0.000 S 
ENDBRANCH  10  12
BRANCH   1  18
ATOM     17  N   UNL     1       4.659   6.392  16.671  0.00  0.00    +0.000 NA
ATOM     18  C   UNL     1       4.107   6.075  17.638  0.00  0.00    +0.000 C 
ENDBRANCH   1  18
TORSDOF 2
ENDMDL
