MODEL 1
REMARK VINA RESULT:      -7.3      0.000      0.000
REMARK  Name = 
REMARK  5 active torsions:
REMARK  status: ('A' for Active; 'I' for Inactive)
REMARK    1  A    between atoms: C_1  and  C_2
REMARK    2  A    between atoms: C_6  and  C_8
REMARK    3  A    between atoms: C_8  and  N_9
REMARK    4  A    between atoms: C_11  and  C_12
REMARK    5  A    between atoms: C_16  and  C_17
REMARK                            x       y       z     vdW  Elec       q    Type
REMARK                         _______ _______ _______ _____ _____    ______ ____
ROOT
ATOM      1  C   UNL     1       4.470   5.354  17.314  0.00  0.00    +0.000 C 
ENDROOT
BRANCH   1   7
ATOM      2  C   UNL     1       1.314   2.554  21.724  0.00  0.00    +0.000 C 
ATOM      3  C   UNL     1       1.975   3.280  20.618  0.00  0.00    +0.000 A 
ATOM      4  C   UNL     1       1.374   4.117  19.658  0.00  0.00    +0.000 A 
ATOM      5  N   UNL     1       2.255   4.664  18.823  0.00  0.00    +0.000 NA
ATOM      6  N   UNL     1       3.447   4.113  19.169  0.00  0.00    +0.000 N 
ATOM      7  C   UNL     1       4.629   4.421  18.472  0.00  0.00    +0.000 C 
ATOM      8  O   UNL     1       5.694   3.935  18.848  0.00  0.00    +0.000 OA
ATOM      9  C   UNL     1       3.313   3.305  20.283  0.00  0.00    +0.000 A 
ENDBRANCH   1   7
BRANCH   1  10
ATOM     10  N   UNL     1       5.441   5.090  16.269  0.00  0.00    +0.000 N 
ATOM     11  N   UNL     1       5.076   4.319  15.227  0.00  0.00    +0.000 NA
ATOM     12  C   UNL     1       6.136   4.324  14.404  0.00  0.00    +0.000 A 
ATOM     13  C   UNL     1       7.182   5.115  14.935  0.00  0.00    +0.000 A 
ATOM     14  C   UNL     1       6.709   5.602  16.136  0.00  0.00    +0.000 A 
ATOM     15  C   UNL     1       7.360   6.495  17.125  0.00  0.00    +0.000 C 
BRANCH  12  16
ATOM     16  C   UNL     1       6.132   3.578  13.109  0.00  0.00    +0.000 C 
ATOM     17  F   UNL     1       4.900   3.610  12.525  0.00  0.00    +0.000 F 
ATOM     18  F   UNL     1       6.981   4.150  12.208  0.00  0.00    +0.000 F 
ENDBRANCH  12  16
ENDBRANCH   1  10
TORSDOF 3
ENDMDL
MODEL 2
REMARK VINA RESULT:      -6.9      2.936      3.627
REMARK  Name = 
REMARK  5 active torsions:
REMARK  status: ('A' for Active; 'I' for Inactive)
REMARK    1  A    between atoms: C_1  and  C_2
REMARK    2  A    between atoms: C_6  and  C_8
REMARK    3  A    between atoms: C_8  and  N_9
REMARK    4  A    between atoms: C_11  and  C_12
REMARK    5  A    between atoms: C_16  and  C_17
REMARK                            x       y       z     vdW  Elec       q    Type
REMARK                         _______ _______ _______ _____ _____    ______ ____
ROOT
ATOM      1  C   UNL     1       3.870   4.228  16.961  0.00  0.00    +0.000 C 
ENDROOT
BRANCH   1   7
ATOM      2  C   UNL     1       1.176   2.569  22.180  0.00  0.00    +0.000 C 
ATOM      3  C   UNL     1       1.800   3.084  20.941  0.00  0.00    +0.000 A 
ATOM      4  C   UNL     1       1.874   4.422  20.509  0.00  0.00    +0.000 A 
ATOM      5  N   UNL     1       2.550   4.561  19.370  0.00  0.00    +0.000 NA
ATOM      6  N   UNL     1       2.851   3.293  18.989  0.00  0.00    +0.000 N 
ATOM      7  C   UNL     1       3.537   3.029  17.790  0.00  0.00    +0.000 C 
ATOM      8  O   UNL     1       3.829   1.868  17.507  0.00  0.00    +0.000 OA
ATOM      9  C   UNL     1       2.446   2.381  19.947  0.00  0.00    +0.000 A 
ENDBRANCH   1   7
BRANCH   1  10
ATOM     10  N   UNL     1       5.283   4.555  17.028  0.00  0.00    +0.000 N 
ATOM     11  N   UNL     1       5.783   5.028  18.185  0.00  0.00    +0.000 NA
ATOM     12  C   UNL     1       7.100   5.157  17.967  0.00  0.00    +0.000 A 
ATOM     13  C   UNL     1       7.434   4.755  16.652  0.00  0.00    +0.000 A 
ATOM     14  C   UNL     1       6.246   4.367  16.067  0.00  0.00    +0.000 A 
ATOM     15  C   UNL     1       5.982   3.842  14.706  0.00  0.00    +0.000 C 
BRANCH  12  16
ATOM     16  C   UNL     1       8.031   5.656  19.025  0.00  0.00    +0.000 C 
ATOM     17  F   UNL     1       8.402   6.947  18.785  0.00  0.00    +0.000 F 
ATOM     18  F   UNL     1       7.427   5.667  20.247  0.00  0.00    +0.000 F 
ENDBRANCH  12  16
ENDBRANCH   1  10
TORSDOF 3
ENDMDL
MODEL 3
REMARK VINA RESULT:      -6.8      2.209      3.175
REMARK  Name = 
REMARK  5 active torsions:
REMARK  status: ('A' for Active; 'I' for Inactive)
REMARK    1  A    between atoms: C_1  and  C_2
REMARK    2  A    between atoms: C_6  and  C_8
REMARK    3  A    between atoms: C_8  and  N_9
REMARK    4  A    between atoms: C_11  and  C_12
REMARK    5  A    between atoms: C_16  and  C_17
REMARK                            x       y       z     vdW  Elec       q    Type
REMARK                         _______ _______ _______ _____ _____    ______ ____
ROOT
ATOM      1  C   UNL     1       6.930   5.159  15.407  0.00  0.00    +0.000 C 
ENDROOT
BRANCH   1   7
ATOM      2  C   UNL     1       2.377   4.948  19.466  0.00  0.00    +0.000 C 
ATOM      3  C   UNL     1       3.529   4.905  18.538  0.00  0.00    +0.000 A 
ATOM      4  C   UNL     1       4.608   4.001  18.550  0.00  0.00    +0.000 A 
ATOM      5  N   UNL     1       5.459   4.197  17.545  0.00  0.00    +0.000 NA
ATOM      6  N   UNL     1       4.993   5.303  16.909  0.00  0.00    +0.000 N 
ATOM      7  C   UNL     1       5.664   5.851  15.801  0.00  0.00    +0.000 C 
ATOM      8  O   UNL     1       5.182   6.826  15.227  0.00  0.00    +0.000 OA
ATOM      9  C   UNL     1       3.799   5.725  17.464  0.00  0.00    +0.000 A 
ENDBRANCH   1   7
BRANCH   1  10
ATOM     10  N   UNL     1       6.850   4.605  14.068  0.00  0.00    +0.000 N 
ATOM     11  N   UNL     1       5.891   3.699  13.800  0.00  0.00    +0.000 NA
ATOM     12  C   UNL     1       6.015   3.439  12.490  0.00  0.00    +0.000 A 
ATOM     13  C   UNL     1       7.067   4.199  11.925  0.00  0.00    +0.000 A 
ATOM     14  C   UNL     1       7.587   4.946  12.961  0.00  0.00    +0.000 A 
ATOM     15  C   UNL     1       8.696   5.931  12.962  0.00  0.00    +0.000 C 
BRANCH  12  16
ATOM     16  C   UNL     1       5.118   2.472  11.787  0.00  0.00    +0.000 C 
ATOM     17  F   UNL     1       4.276   3.116  10.928  0.00  0.00    +0.000 F 
ATOM     18  F   UNL     1       5.834   1.603  11.019  0.00  0.00    +0.000 F 
ENDBRANCH  12  16
ENDBRANCH   1  10
TORSDOF 3
ENDMDL
MODEL 4
REMARK VINA RESULT:      -6.7      3.784      4.617
REMARK  Name = 
REMARK  5 active torsions:
REMARK  status: ('A' for Active; 'I' for Inactive)
REMARK    1  A    between atoms: C_1  and  C_2
REMARK    2  A    between atoms: C_6  and  C_8
REMARK    3  A    between atoms: C_8  and  N_9
REMARK    4  A    between atoms: C_11  and  C_12
REMARK    5  A    between atoms: C_16  and  C_17
REMARK                            x       y       z     vdW  Elec       q    Type
REMARK                         _______ _______ _______ _____ _____    ______ ____
ROOT
ATOM      1  C   UNL     1       5.279   6.336  16.428  0.00  0.00    +0.000 C 
ENDROOT
BRANCH   1   7
ATOM      2  C   UNL     1       0.894   2.837  18.831  0.00  0.00    +0.000 C 
ATOM      3  C   UNL     1       2.006   3.585  18.203  0.00  0.00    +0.000 A 
ATOM      4  C   UNL     1       3.068   3.066  17.439  0.00  0.00    +0.000 A 
ATOM      5  N   UNL     1       3.880   4.012  16.971  0.00  0.00    +0.000 NA
ATOM      6  N   UNL     1       3.409   5.167  17.505  0.00  0.00    +0.000 N 
ATOM      7  C   UNL     1       4.043   6.400  17.267  0.00  0.00    +0.000 C 
ATOM      8  O   UNL     1       3.556   7.428  17.733  0.00  0.00    +0.000 OA
ATOM      9  C   UNL     1       2.246   4.943  18.220  0.00  0.00    +0.000 A 
ENDBRANCH   1   7
BRANCH   1  10
ATOM     10  N   UNL     1       6.455   6.764  17.164  0.00  0.00    +0.000 N 
ATOM     11  N   UNL     1       6.866   8.040  17.040  0.00  0.00    +0.000 NA
ATOM     12  C   UNL     1       7.903   8.154  17.884  0.00  0.00    +0.000 A 
ATOM     13  C   UNL     1       8.143   6.931  18.553  0.00  0.00    +0.000 A 
ATOM     14  C   UNL     1       7.194   6.051  18.076  0.00  0.00    +0.000 A 
ATOM     15  C   UNL     1       6.952   4.630  18.424  0.00  0.00    +0.000 C 
BRANCH  12  16
ATOM     16  C   UNL     1       8.648   9.440  18.050  0.00  0.00    +0.000 C 
ATOM     17  F   UNL     1       7.850  10.511  17.774  0.00  0.00    +0.000 F 
ATOM     18  F   UNL     1       9.058   9.609  19.339  0.00  0.00    +0.000 F 
ENDBRANCH  12  16
ENDBRANCH   1  10
TORSDOF 3
ENDMDL
MODEL 5
REMARK VINA RESULT:      -6.7      3.694      6.797
REMARK  Name = 
REMARK  5 active torsions:
REMARK  status: ('A' for Active; 'I' for Inactive)
REMARK    1  A    between atoms: C_1  and  C_2
REMARK    2  A    between atoms: C_6  and  C_8
REMARK    3  A    between atoms: C_8  and  N_9
REMARK    4  A    between atoms: C_11  and  C_12
REMARK    5  A    between atoms: C_16  and  C_17
REMARK                            x       y       z     vdW  Elec       q    Type
REMARK                         _______ _______ _______ _____ _____    ______ ____
ROOT
ATOM      1  C   UNL     1       4.913   4.769  18.067  0.00  0.00    +0.000 C 
ENDROOT
BRANCH   1   7
ATOM      2  C   UNL     1       6.818   3.903  12.334  0.00  0.00    +0.000 C 
ATOM      3  C   UNL     1       6.457   4.174  13.743  0.00  0.00    +0.000 A 
ATOM      4  C   UNL     1       7.200   4.897  14.697  0.00  0.00    +0.000 A 
ATOM      5  N   UNL     1       6.573   5.006  15.867  0.00  0.00    +0.000 NA
ATOM      6  N   UNL     1       5.442   4.269  15.723  0.00  0.00    +0.000 N 
ATOM      7  C   UNL     1       4.529   4.110  16.781  0.00  0.00    +0.000 C 
ATOM      8  O   UNL     1       3.495   3.472  16.593  0.00  0.00    +0.000 OA
ATOM      9  C   UNL     1       5.325   3.791  14.431  0.00  0.00    +0.000 A 
ENDBRANCH   1   7
BRANCH   1  10
ATOM     10  N   UNL     1       3.795   4.843  18.991  0.00  0.00    +0.000 N 
ATOM     11  N   UNL     1       3.610   3.836  19.864  0.00  0.00    +0.000 NA
ATOM     12  C   UNL     1       2.572   4.221  20.623  0.00  0.00    +0.000 A 
ATOM     13  C   UNL     1       2.101   5.493  20.222  0.00  0.00    +0.000 A 
ATOM     14  C   UNL     1       2.908   5.876  19.171  0.00  0.00    +0.000 A 
ATOM     15  C   UNL     1       2.892   7.119  18.362  0.00  0.00    +0.000 C 
BRANCH  12  16
ATOM     16  C   UNL     1       2.047   3.369  21.733  0.00  0.00    +0.000 C 
ATOM     17  F   UNL     1       0.832   2.839  21.415  0.00  0.00    +0.000 F 
ATOM     18  F   UNL     1       2.865   2.302  21.965  0.00  0.00    +0.000 F 
ENDBRANCH  12  16
ENDBRANCH   1  10
TORSDOF 3
ENDMDL
MODEL 6
REMARK VINA RESULT:      -6.7      1.408      1.669
REMARK  Name = 
REMARK  5 active torsions:
REMARK  status: ('A' for Active; 'I' for Inactive)
REMARK    1  A    between atoms: C_1  and  C_2
REMARK    2  A    between atoms: C_6  and  C_8
REMARK    3  A    between atoms: C_8  and  N_9
REMARK    4  A    between atoms: C_11  and  C_12
REMARK    5  A    between atoms: C_16  and  C_17
REMARK                            x       y       z     vdW  Elec       q    Type
REMARK                         _______ _______ _______ _____ _____    ______ ____
ROOT
ATOM      1  C   UNL     1       5.969   4.534  18.518  0.00  0.00    +0.000 C 
ENDROOT
BRANCH   1   7
ATOM      2  C   UNL     1       0.346   2.210  18.997  0.00  0.00    +0.000 C 
ATOM      3  C   UNL     1       1.748   2.661  18.863  0.00  0.00    +0.000 A 
ATOM      4  C   UNL     1       2.887   1.869  18.624  0.00  0.00    +0.000 A 
ATOM      5  N   UNL     1       4.002   2.587  18.505  0.00  0.00    +0.000 NA
ATOM      6  N   UNL     1       3.619   3.864  18.760  0.00  0.00    +0.000 N 
ATOM      7  C   UNL     1       4.547   4.922  18.768  0.00  0.00    +0.000 C 
ATOM      8  O   UNL     1       4.149   6.070  18.958  0.00  0.00    +0.000 OA
ATOM      9  C   UNL     1       2.250   3.944  18.936  0.00  0.00    +0.000 A 
ENDBRANCH   1   7
BRANCH   1  10
ATOM     10  N   UNL     1       6.367   4.794  17.147  0.00  0.00    +0.000 N 
ATOM     11  N   UNL     1       5.994   3.924  16.190  0.00  0.00    +0.000 NA
ATOM     12  C   UNL     1       6.430   4.465  15.041  0.00  0.00    +0.000 A 
ATOM     13  C   UNL     1       7.084   5.696  15.281  0.00  0.00    +0.000 A 
ATOM     14  C   UNL     1       7.026   5.890  16.646  0.00  0.00    +0.000 A 
ATOM     15  C   UNL     1       7.535   7.012  17.471  0.00  0.00    +0.000 C 
BRANCH  12  16
ATOM     16  C   UNL     1       6.208   3.800  13.721  0.00  0.00    +0.000 C 
ATOM     17  F   UNL     1       4.929   3.986  13.285  0.00  0.00    +0.000 F 
ATOM     18  F   UNL     1       7.008   4.337  12.757  0.00  0.00    +0.000 F 
ENDBRANCH  12  16
ENDBRANCH   1  10
TORSDOF 3
ENDMDL
MODEL 7
REMARK VINA RESULT:      -6.7      3.567      6.731
REMARK  Name = 
REMARK  5 active torsions:
REMARK  status: ('A' for Active; 'I' for Inactive)
REMARK    1  A    between atoms: C_1  and  C_2
REMARK    2  A    between atoms: C_6  and  C_8
REMARK    3  A    between atoms: C_8  and  N_9
REMARK    4  A    between atoms: C_11  and  C_12
REMARK    5  A    between atoms: C_16  and  C_17
REMARK                            x       y       z     vdW  Elec       q    Type
REMARK                         _______ _______ _______ _____ _____    ______ ____
ROOT
ATOM      1  C   UNL     1       4.238   3.604  19.222  0.00  0.00    +0.000 C 
ENDROOT
BRANCH   1   7
ATOM      2  C   UNL     1       7.111   4.805  13.972  0.00  0.00    +0.000 C 
ATOM      3  C   UNL     1       6.511   4.555  15.302  0.00  0.00    +0.000 A 
ATOM      4  C   UNL     1       7.086   4.801  16.564  0.00  0.00    +0.000 A 
ATOM      5  N   UNL     1       6.265   4.514  17.571  0.00  0.00    +0.000 NA
ATOM      6  N   UNL     1       5.165   3.982  16.980  0.00  0.00    +0.000 N 
ATOM      7  C   UNL     1       4.077   3.512  17.738  0.00  0.00    +0.000 C 
ATOM      8  O   UNL     1       3.082   3.079  17.159  0.00  0.00    +0.000 OA
ATOM      9  C   UNL     1       5.270   4.036  15.602  0.00  0.00    +0.000 A 
ENDBRANCH   1   7
BRANCH   1  10
ATOM     10  N   UNL     1       3.228   4.456  19.823  0.00  0.00    +0.000 N 
ATOM     11  N   UNL     1       3.297   5.784  19.617  0.00  0.00    +0.000 NA
ATOM     12  C   UNL     1       2.206   6.285  20.217  0.00  0.00    +0.000 A 
ATOM     13  C   UNL     1       1.437   5.253  20.805  0.00  0.00    +0.000 A 
ATOM     14  C   UNL     1       2.114   4.082  20.533  0.00  0.00    +0.000 A 
ATOM     15  C   UNL     1       1.776   2.682  20.889  0.00  0.00    +0.000 C 
BRANCH  12  16
ATOM     16  C   UNL     1       1.904   7.749  20.212  0.00  0.00    +0.000 C 
ATOM     17  F   UNL     1       1.701   8.206  18.943  0.00  0.00    +0.000 F 
ATOM     18  F   UNL     1       0.752   8.017  20.889  0.00  0.00    +0.000 F 
ENDBRANCH  12  16
ENDBRANCH   1  10
TORSDOF 3
ENDMDL
MODEL 8
REMARK VINA RESULT:      -6.7      2.940      3.681
REMARK  Name = 
REMARK  5 active torsions:
REMARK  status: ('A' for Active; 'I' for Inactive)
REMARK    1  A    between atoms: C_1  and  C_2
REMARK    2  A    between atoms: C_6  and  C_8
REMARK    3  A    between atoms: C_8  and  N_9
REMARK    4  A    between atoms: C_11  and  C_12
REMARK    5  A    between atoms: C_16  and  C_17
REMARK                            x       y       z     vdW  Elec       q    Type
REMARK                         _______ _______ _______ _____ _____    ______ ____
ROOT
ATOM      1  C   UNL     1       3.978   4.112  16.649  0.00  0.00    +0.000 C 
ENDROOT
BRANCH   1   7
ATOM      2  C   UNL     1       1.231   2.656  21.900  0.00  0.00    +0.000 C 
ATOM      3  C   UNL     1       1.938   2.896  20.623  0.00  0.00    +0.000 A 
ATOM      4  C   UNL     1       2.711   1.981  19.883  0.00  0.00    +0.000 A 
ATOM      5  N   UNL     1       3.174   2.495  18.745  0.00  0.00    +0.000 NA
ATOM      6  N   UNL     1       2.784   3.795  18.770  0.00  0.00    +0.000 N 
ATOM      7  C   UNL     1       3.130   4.686  17.737  0.00  0.00    +0.000 C 
ATOM      8  O   UNL     1       2.717   5.844  17.778  0.00  0.00    +0.000 OA
ATOM      9  C   UNL     1       1.995   4.053  19.876  0.00  0.00    +0.000 A 
ENDBRANCH   1   7
BRANCH   1  10
ATOM     10  N   UNL     1       5.371   4.500  16.786  0.00  0.00    +0.000 N 
ATOM     11  N   UNL     1       5.803   4.940  17.983  0.00  0.00    +0.000 NA
ATOM     12  C   UNL     1       7.121   5.139  17.823  0.00  0.00    +0.000 A 
ATOM     13  C   UNL     1       7.522   4.815  16.505  0.00  0.00    +0.000 A 
ATOM     14  C   UNL     1       6.377   4.400  15.857  0.00  0.00    +0.000 A 
ATOM     15  C   UNL     1       6.189   3.928  14.464  0.00  0.00    +0.000 C 
BRANCH  12  16
ATOM     16  C   UNL     1       7.986   5.630  18.938  0.00  0.00    +0.000 C 
ATOM     17  F   UNL     1       8.373   6.921  18.730  0.00  0.00    +0.000 F 
ATOM     18  F   UNL     1       7.309   5.635  20.122  0.00  0.00    +0.000 F 
ENDBRANCH  12  16
ENDBRANCH   1  10
TORSDOF 3
ENDMDL
MODEL 9
REMARK VINA RESULT:      -6.6      1.478      1.644
REMARK  Name = 
REMARK  5 active torsions:
REMARK  status: ('A' for Active; 'I' for Inactive)
REMARK    1  A    between atoms: C_1  and  C_2
REMARK    2  A    between atoms: C_6  and  C_8
REMARK    3  A    between atoms: C_8  and  N_9
REMARK    4  A    between atoms: C_11  and  C_12
REMARK    5  A    between atoms: C_16  and  C_17
REMARK                            x       y       z     vdW  Elec       q    Type
REMARK                         _______ _______ _______ _____ _____    ______ ____
ROOT
ATOM      1  C   UNL     1       3.555   5.273  17.352  0.00  0.00    +0.000 C 
ENDROOT
BRANCH   1   7
ATOM      2  C   UNL     1       1.121   2.404  22.157  0.00  0.00    +0.000 C 
ATOM      3  C   UNL     1       1.747   3.185  21.068  0.00  0.00    +0.000 A 
ATOM      4  C   UNL     1       2.431   4.412  21.173  0.00  0.00    +0.000 A 
ATOM      5  N   UNL     1       2.924   4.831  20.010  0.00  0.00    +0.000 NA
ATOM      6  N   UNL     1       2.485   3.923  19.101  0.00  0.00    +0.000 N 
ATOM      7  C   UNL     1       2.775   4.056  17.731  0.00  0.00    +0.000 C 
ATOM      8  O   UNL     1       2.397   3.185  16.949  0.00  0.00    +0.000 OA
ATOM      9  C   UNL     1       1.808   2.890  19.723  0.00  0.00    +0.000 A 
ENDBRANCH   1   7
BRANCH   1  10
ATOM     10  N   UNL     1       4.863   4.934  16.820  0.00  0.00    +0.000 N 
ATOM     11  N   UNL     1       4.977   4.673  15.505  0.00  0.00    +0.000 NA
ATOM     12  C   UNL     1       6.290   4.478  15.303  0.00  0.00    +0.000 A 
ATOM     13  C   UNL     1       7.011   4.624  16.512  0.00  0.00    +0.000 A 
ATOM     14  C   UNL     1       6.070   4.922  17.475  0.00  0.00    +0.000 A 
ATOM     15  C   UNL     1       6.242   5.192  18.923  0.00  0.00    +0.000 C 
BRANCH  12  16
ATOM     16  C   UNL     1       6.842   4.164  13.951  0.00  0.00    +0.000 C 
ATOM     17  F   UNL     1       5.848   3.831  13.078  0.00  0.00    +0.000 F 
ATOM     18  F   UNL     1       7.463   5.249  13.407  0.00  0.00    +0.000 F 
ENDBRANCH  12  16
ENDBRANCH   1  10
TORSDOF 3
ENDMDL
