MODEL 1
REMARK VINA RESULT:      -9.2      0.000      0.000
REMARK  Name = 
REMARK  5 active torsions:
REMARK  status: ('A' for Active; 'I' for Inactive)
REMARK    1  A    between atoms: C_1  and  O_2
REMARK    2  A    between atoms: O_2  and  C_3
REMARK    3  A    between atoms: C_6  and  C_7
REMARK    4  A    between atoms: C_8  and  C_9
REMARK    5  A    between atoms: C_14  and  N_15
REMARK                            x       y       z     vdW  Elec       q    Type
REMARK                         _______ _______ _______ _____ _____    ______ ____
ROOT
ATOM      1  C   UNL     1       3.152   6.041  17.790  0.00  0.00    +0.000 C 
ATOM      2  C   UNL     1       3.361   4.783  18.643  0.00  0.00    +0.000 C 
ATOM      3  C   UNL     1       4.635   4.628  19.074  0.00  0.00    +0.000 C 
ATOM      4  O   UNL     1       5.454   5.760  19.191  0.00  0.00    +0.000 OA
ATOM      5  C   UNL     1       5.563   6.529  18.016  0.00  0.00    +0.000 A 
ATOM      6  C   UNL     1       6.873   6.884  17.766  0.00  0.00    +0.000 A 
ATOM      7  C   UNL     1       7.443   6.390  16.621  0.00  0.00    +0.000 A 
ATOM      8  C   UNL     1       6.684   5.607  15.754  0.00  0.00    +0.000 A 
ATOM      9  C   UNL     1       7.478   4.830  14.886  0.00  0.00    +0.000 A 
ATOM     10  C   UNL     1       6.908   3.992  13.946  0.00  0.00    +0.000 A 
ATOM     11  C   UNL     1       5.524   3.974  13.879  0.00  0.00    +0.000 A 
ATOM     12  C   UNL     1       4.701   4.712  14.804  0.00  0.00    +0.000 A 
ATOM     13  C   UNL     1       5.240   5.535  15.864  0.00  0.00    +0.000 A 
ATOM     14  C   UNL     1       4.611   6.219  17.036  0.00  0.00    +0.000 A 
ENDROOT
BRANCH   1  18
ATOM     15  C   UNL     1       0.952   8.990  20.486  0.00  0.00    +0.000 A 
ATOM     16  C   UNL     1       1.368   7.749  20.954  0.00  0.00    +0.000 A 
ATOM     17  C   UNL     1       2.142   6.849  20.158  0.00  0.00    +0.000 A 
ATOM     18  C   UNL     1       2.539   7.139  18.838  0.00  0.00    +0.000 A 
ATOM     19  C   UNL     1       2.082   8.415  18.381  0.00  0.00    +0.000 A 
ATOM     20  C   UNL     1       1.315   9.330  19.190  0.00  0.00    +0.000 A 
BRANCH  15  22
ATOM     21  C   UNL     1       0.136   9.369  22.738  0.00  0.00    +0.000 C 
ATOM     22  O   UNL     1       0.149   9.690  21.354  0.00  0.00    +0.000 OA
ENDBRANCH  15  22
ENDBRANCH   1  18
BRANCH   2  23
ATOM     23  C   UNL     1       2.377   3.826  18.990  0.00  0.00    +0.000 A 
ATOM     24  N   UNL     1       2.260   2.971  19.985  0.00  0.00    +0.000 NA
ATOM     25  N   UNL     1       1.194   2.157  19.670  0.00  0.00    +0.000 NA
ATOM     26  N   UNL     1       0.678   2.475  18.491  0.00  0.00    +0.000 NA
ATOM     27  N   UNL     1       1.411   3.510  18.063  0.00  0.00    +0.000 N 
ATOM     28  H   UNL     1       1.240   3.917  17.152  0.00  0.00    +0.000 HD
ENDBRANCH   2  23
BRANCH   3  29
ATOM     29  N   UNL     1       5.274   3.409  19.191  0.00  0.00    +0.000 N 
ATOM     30  H   UNL     1       5.161   2.872  18.326  0.00  0.00    +0.000 HD
ATOM     31  H   UNL     1       6.278   3.623  19.254  0.00  0.00    +0.000 HD
ENDBRANCH   3  29
TORSDOF 4
ENDMDL
MODEL 2
REMARK VINA RESULT:      -8.0      2.975      7.437
REMARK  Name = 
REMARK  5 active torsions:
REMARK  status: ('A' for Active; 'I' for Inactive)
REMARK    1  A    between atoms: C_1  and  O_2
REMARK    2  A    between atoms: O_2  and  C_3
REMARK    3  A    between atoms: C_6  and  C_7
REMARK    4  A    between atoms: C_8  and  C_9
REMARK    5  A    between atoms: C_14  and  N_15
REMARK                            x       y       z     vdW  Elec       q    Type
REMARK                         _______ _______ _______ _____ _____    ______ ____
ROOT
ATOM      1  C   UNL     1       4.866   5.929  16.550  0.00  0.00    +0.000 C 
ATOM      2  C   UNL     1       6.035   5.848  17.542  0.00  0.00    +0.000 C 
ATOM      3  C   UNL     1       6.009   4.739  18.317  0.00  0.00    +0.000 C 
ATOM      4  O   UNL     1       5.340   3.599  17.850  0.00  0.00    +0.000 OA
ATOM      5  C   UNL     1       3.996   3.816  17.488  0.00  0.00    +0.000 A 
ATOM      6  C   UNL     1       3.174   2.825  17.987  0.00  0.00    +0.000 A 
ATOM      7  C   UNL     1       2.225   3.207  18.899  0.00  0.00    +0.000 A 
ATOM      8  C   UNL     1       2.099   4.551  19.244  0.00  0.00    +0.000 A 
ATOM      9  C   UNL     1       1.421   4.738  20.465  0.00  0.00    +0.000 A 
ATOM     10  C   UNL     1       1.191   6.002  20.974  0.00  0.00    +0.000 A 
ATOM     11  C   UNL     1       1.632   7.075  20.214  0.00  0.00    +0.000 A 
ATOM     12  C   UNL     1       2.384   6.895  18.998  0.00  0.00    +0.000 A 
ATOM     13  C   UNL     1       2.733   5.597  18.464  0.00  0.00    +0.000 A 
ATOM     14  C   UNL     1       3.645   5.166  17.360  0.00  0.00    +0.000 A 
ENDROOT
BRANCH   1  18
ATOM     15  C   UNL     1       6.836   3.985  12.925  0.00  0.00    +0.000 A 
ATOM     16  C   UNL     1       5.472   3.860  13.165  0.00  0.00    +0.000 A 
ATOM     17  C   UNL     1       4.817   4.539  14.238  0.00  0.00    +0.000 A 
ATOM     18  C   UNL     1       5.495   5.380  15.142  0.00  0.00    +0.000 A 
ATOM     19  C   UNL     1       6.897   5.474  14.878  0.00  0.00    +0.000 A 
ATOM     20  C   UNL     1       7.555   4.802  13.785  0.00  0.00    +0.000 A 
BRANCH  15  22
ATOM     21  C   UNL     1       6.571   2.071  11.459  0.00  0.00    +0.000 C 
ATOM     22  O   UNL     1       7.311   3.200  11.902  0.00  0.00    +0.000 OA
ENDBRANCH  15  22
ENDBRANCH   1  18
BRANCH   2  23
ATOM     23  C   UNL     1       7.076   6.794  17.697  0.00  0.00    +0.000 A 
ATOM     24  N   UNL     1       8.080   6.902  18.543  0.00  0.00    +0.000 NA
ATOM     25  N   UNL     1       8.630   8.148  18.331  0.00  0.00    +0.000 NA
ATOM     26  N   UNL     1       7.964   8.815  17.399  0.00  0.00    +0.000 NA
ATOM     27  N   UNL     1       6.997   7.980  17.003  0.00  0.00    +0.000 N 
ATOM     28  H   UNL     1       6.315   8.275  16.315  0.00  0.00    +0.000 HD
ENDBRANCH   2  23
BRANCH   3  29
ATOM     29  N   UNL     1       6.394   4.709  19.643  0.00  0.00    +0.000 N 
ATOM     30  H   UNL     1       6.142   3.806  20.060  0.00  0.00    +0.000 HD
ATOM     31  H   UNL     1       7.422   4.732  19.638  0.00  0.00    +0.000 HD
ENDBRANCH   3  29
TORSDOF 4
ENDMDL
MODEL 3
REMARK VINA RESULT:      -7.2      4.789      9.270
REMARK  Name = 
REMARK  5 active torsions:
REMARK  status: ('A' for Active; 'I' for Inactive)
REMARK    1  A    between atoms: C_1  and  O_2
REMARK    2  A    between atoms: O_2  and  C_3
REMARK    3  A    between atoms: C_6  and  C_7
REMARK    4  A    between atoms: C_8  and  C_9
REMARK    5  A    between atoms: C_14  and  N_15
REMARK                            x       y       z     vdW  Elec       q    Type
REMARK                         _______ _______ _______ _____ _____    ______ ____
ROOT
ATOM      1  C   UNL     1      -0.034  10.519  20.183  0.00  0.00    +0.000 C 
ATOM      2  C   UNL     1      -0.641  11.091  18.894  0.00  0.00    +0.000 C 
ATOM      3  C   UNL     1      -0.082  12.263  18.508  0.00  0.00    +0.000 C 
ATOM      4  O   UNL     1       1.224  12.560  18.919  0.00  0.00    +0.000 OA
ATOM      5  C   UNL     1       1.426  12.508  20.313  0.00  0.00    +0.000 A 
ATOM      6  C   UNL     1       2.144  13.600  20.758  0.00  0.00    +0.000 A 
ATOM      7  C   UNL     1       1.505  14.453  21.621  0.00  0.00    +0.000 A 
ATOM      8  C   UNL     1       0.207  14.167  22.040  0.00  0.00    +0.000 A 
ATOM      9  C   UNL     1      -0.464  15.300  22.544  0.00  0.00    +0.000 A 
ATOM     10  C   UNL     1      -1.760  15.218  23.016  0.00  0.00    +0.000 A 
ATOM     11  C   UNL     1      -2.358  13.967  22.994  0.00  0.00    +0.000 A 
ATOM     12  C   UNL     1      -1.708  12.817  22.420  0.00  0.00    +0.000 A 
ATOM     13  C   UNL     1      -0.388  12.861  21.831  0.00  0.00    +0.000 A 
ATOM     14  C   UNL     1       0.395  11.878  21.020  0.00  0.00    +0.000 A 
ENDROOT
BRANCH   1  18
ATOM     15  C   UNL     1       2.546   7.073  18.674  0.00  0.00    +0.000 A 
ATOM     16  C   UNL     1       2.187   8.130  17.845  0.00  0.00    +0.000 A 
ATOM     17  C   UNL     1       1.463   9.266  18.320  0.00  0.00    +0.000 A 
ATOM     18  C   UNL     1       1.046   9.406  19.658  0.00  0.00    +0.000 A 
ATOM     19  C   UNL     1       1.416   8.297  20.481  0.00  0.00    +0.000 A 
ATOM     20  C   UNL     1       2.161   7.157  20.005  0.00  0.00    +0.000 A 
BRANCH  15  22
ATOM     21  C   UNL     1       2.490   4.792  17.853  0.00  0.00    +0.000 C 
ATOM     22  O   UNL     1       3.167   6.028  18.035  0.00  0.00    +0.000 OA
ENDBRANCH  15  22
ENDBRANCH   1  18
BRANCH   2  23
ATOM     23  C   UNL     1      -1.682  10.518  18.126  0.00  0.00    +0.000 A 
ATOM     24  N   UNL     1      -1.704   9.841  16.996  0.00  0.00    +0.000 NA
ATOM     25  N   UNL     1      -3.030   9.735  16.637  0.00  0.00    +0.000 NA
ATOM     26  N   UNL     1      -3.815  10.359  17.503  0.00  0.00    +0.000 NA
ATOM     27  N   UNL     1      -2.983  10.850  18.430  0.00  0.00    +0.000 N 
ATOM     28  H   UNL     1      -3.339  11.414  19.192  0.00  0.00    +0.000 HD
ENDBRANCH   2  23
BRANCH   3  29
ATOM     29  N   UNL     1      -0.782  13.302  17.928  0.00  0.00    +0.000 N 
ATOM     30  H   UNL     1      -1.230  12.982  17.063  0.00  0.00    +0.000 HD
ATOM     31  H   UNL     1      -1.552  13.519  18.574  0.00  0.00    +0.000 HD
ENDBRANCH   3  29
TORSDOF 4
ENDMDL
MODEL 4
REMARK VINA RESULT:      -6.8      7.893      9.568
REMARK  Name = 
REMARK  5 active torsions:
REMARK  status: ('A' for Active; 'I' for Inactive)
REMARK    1  A    between atoms: C_1  and  O_2
REMARK    2  A    between atoms: O_2  and  C_3
REMARK    3  A    between atoms: C_6  and  C_7
REMARK    4  A    between atoms: C_8  and  C_9
REMARK    5  A    between atoms: C_14  and  N_15
REMARK                            x       y       z     vdW  Elec       q    Type
REMARK                         _______ _______ _______ _____ _____    ______ ____
ROOT
ATOM      1  C   UNL     1      -0.201  12.432  19.107  0.00  0.00    +0.000 C 
ATOM      2  C   UNL     1      -0.186  12.527  20.639  0.00  0.00    +0.000 C 
ATOM      3  C   UNL     1      -0.371  13.785  21.104  0.00  0.00    +0.000 C 
ATOM      4  O   UNL     1      -1.047  14.713  20.301  0.00  0.00    +0.000 OA
ATOM      5  C   UNL     1      -0.501  14.882  19.013  0.00  0.00    +0.000 A 
ATOM      6  C   UNL     1      -0.407  16.218  18.678  0.00  0.00    +0.000 A 
ATOM      7  C   UNL     1       0.853  16.722  18.480  0.00  0.00    +0.000 A 
ATOM      8  C   UNL     1       1.957  15.878  18.577  0.00  0.00    +0.000 A 
ATOM      9  C   UNL     1       3.161  16.580  18.786  0.00  0.00    +0.000 A 
ATOM     10  C   UNL     1       4.369  15.919  18.902  0.00  0.00    +0.000 A 
ATOM     11  C   UNL     1       4.343  14.538  18.776  0.00  0.00    +0.000 A 
ATOM     12  C   UNL     1       3.112  13.805  18.629  0.00  0.00    +0.000 A 
ATOM     13  C   UNL     1       1.811  14.435  18.592  0.00  0.00    +0.000 A 
ATOM     14  C   UNL     1       0.418  13.892  18.644  0.00  0.00    +0.000 A 
ENDROOT
BRANCH   1  18
ATOM     15  C   UNL     1      -4.546  11.602  17.993  0.00  0.00    +0.000 A 
ATOM     16  C   UNL     1      -3.502  11.290  17.129  0.00  0.00    +0.000 A 
ATOM     17  C   UNL     1      -2.130  11.451  17.494  0.00  0.00    +0.000 A 
ATOM     18  C   UNL     1      -1.722  11.944  18.750  0.00  0.00    +0.000 A 
ATOM     19  C   UNL     1      -2.818  12.270  19.608  0.00  0.00    +0.000 A 
ATOM     20  C   UNL     1      -4.203  12.092  19.245  0.00  0.00    +0.000 A 
BRANCH  15  22
ATOM     21  C   UNL     1      -6.951  11.504  18.281  0.00  0.00    +0.000 C 
ATOM     22  O   UNL     1      -5.799  11.463  17.450  0.00  0.00    +0.000 OA
ENDBRANCH  15  22
ENDBRANCH   1  18
BRANCH   2  23
ATOM     23  C   UNL     1      -0.001  11.458  21.547  0.00  0.00    +0.000 A 
ATOM     24  N   UNL     1      -0.436  11.225  22.769  0.00  0.00    +0.000 NA
ATOM     25  N   UNL     1       0.252  10.119  23.219  0.00  0.00    +0.000 NA
ATOM     26  N   UNL     1       1.120   9.692  22.313  0.00  0.00    +0.000 NA
ATOM     27  N   UNL     1       0.969  10.520  21.274  0.00  0.00    +0.000 N 
ATOM     28  H   UNL     1       1.558  10.429  20.455  0.00  0.00    +0.000 HD
ENDBRANCH   2  23
BRANCH   3  29
ATOM     29  N   UNL     1       0.259  14.301  22.219  0.00  0.00    +0.000 N 
ATOM     30  H   UNL     1      -0.229  13.996  23.068  0.00  0.00    +0.000 HD
ATOM     31  H   UNL     1       1.183  13.851  22.254  0.00  0.00    +0.000 HD
ENDBRANCH   3  29
TORSDOF 4
ENDMDL
MODEL 5
REMARK VINA RESULT:      -6.7      4.955      9.234
REMARK  Name = 
REMARK  5 active torsions:
REMARK  status: ('A' for Active; 'I' for Inactive)
REMARK    1  A    between atoms: C_1  and  O_2
REMARK    2  A    between atoms: O_2  and  C_3
REMARK    3  A    between atoms: C_6  and  C_7
REMARK    4  A    between atoms: C_8  and  C_9
REMARK    5  A    between atoms: C_14  and  N_15
REMARK                            x       y       z     vdW  Elec       q    Type
REMARK                         _______ _______ _______ _____ _____    ______ ____
ROOT
ATOM      1  C   UNL     1      -0.230  10.594  20.130  0.00  0.00    +0.000 C 
ATOM      2  C   UNL     1      -0.819  11.223  18.860  0.00  0.00    +0.000 C 
ATOM      3  C   UNL     1      -0.128  12.301  18.421  0.00  0.00    +0.000 C 
ATOM      4  O   UNL     1       1.226  12.425  18.761  0.00  0.00    +0.000 OA
ATOM      5  C   UNL     1       1.489  12.368  20.144  0.00  0.00    +0.000 A 
ATOM      6  C   UNL     1       2.370  13.359  20.530  0.00  0.00    +0.000 A 
ATOM      7  C   UNL     1       1.896  14.305  21.403  0.00  0.00    +0.000 A 
ATOM      8  C   UNL     1       0.594  14.205  21.890  0.00  0.00    +0.000 A 
ATOM      9  C   UNL     1       0.110  15.426  22.400  0.00  0.00    +0.000 A 
ATOM     10  C   UNL     1      -1.161  15.529  22.935  0.00  0.00    +0.000 A 
ATOM     11  C   UNL     1      -1.922  14.371  22.971  0.00  0.00    +0.000 A 
ATOM     12  C   UNL     1      -1.463  13.133  22.392  0.00  0.00    +0.000 A 
ATOM     13  C   UNL     1      -0.181  12.988  21.739  0.00  0.00    +0.000 A 
ATOM     14  C   UNL     1       0.420  11.895  20.915  0.00  0.00    +0.000 A 
ENDROOT
BRANCH   1  18
ATOM     15  C   UNL     1       2.689   7.431  18.621  0.00  0.00    +0.000 A 
ATOM     16  C   UNL     1       2.223   7.424  19.931  0.00  0.00    +0.000 A 
ATOM     17  C   UNL     1       1.236   8.345  20.399  0.00  0.00    +0.000 A 
ATOM     18  C   UNL     1       0.662   9.337  19.580  0.00  0.00    +0.000 A 
ATOM     19  C   UNL     1       1.173   9.328  18.244  0.00  0.00    +0.000 A 
ATOM     20  C   UNL     1       2.157   8.388  17.768  0.00  0.00    +0.000 A 
BRANCH  15  22
ATOM     21  C   UNL     1       4.009   5.517  19.311  0.00  0.00    +0.000 C 
ATOM     22  O   UNL     1       3.694   6.530  18.365  0.00  0.00    +0.000 OA
ENDBRANCH  15  22
ENDBRANCH   1  18
BRANCH   2  23
ATOM     23  C   UNL     1      -1.966  10.784  18.156  0.00  0.00    +0.000 A 
ATOM     24  N   UNL     1      -2.136  10.091  17.049  0.00  0.00    +0.000 NA
ATOM     25  N   UNL     1      -3.480  10.164  16.752  0.00  0.00    +0.000 NA
ATOM     26  N   UNL     1      -4.127  10.912  17.634  0.00  0.00    +0.000 NA
ATOM     27  N   UNL     1      -3.192  11.302  18.507  0.00  0.00    +0.000 N 
ATOM     28  H   UNL     1      -3.428  11.928  19.267  0.00  0.00    +0.000 HD
ENDBRANCH   2  23
BRANCH   3  29
ATOM     29  N   UNL     1      -0.709  13.417  17.851  0.00  0.00    +0.000 N 
ATOM     30  H   UNL     1      -1.070  14.035  18.584  0.00  0.00    +0.000 HD
ATOM     31  H   UNL     1       0.058  13.936  17.405  0.00  0.00    +0.000 HD
ENDBRANCH   3  29
TORSDOF 4
ENDMDL
MODEL 6
REMARK VINA RESULT:      -6.7      7.171      9.536
REMARK  Name = 
REMARK  5 active torsions:
REMARK  status: ('A' for Active; 'I' for Inactive)
REMARK    1  A    between atoms: C_1  and  O_2
REMARK    2  A    between atoms: O_2  and  C_3
REMARK    3  A    between atoms: C_6  and  C_7
REMARK    4  A    between atoms: C_8  and  C_9
REMARK    5  A    between atoms: C_14  and  N_15
REMARK                            x       y       z     vdW  Elec       q    Type
REMARK                         _______ _______ _______ _____ _____    ______ ____
ROOT
ATOM      1  C   UNL     1       0.470  12.164  19.468  0.00  0.00    +0.000 C 
ATOM      2  C   UNL     1      -0.037  12.178  20.917  0.00  0.00    +0.000 C 
ATOM      3  C   UNL     1      -0.624  13.345  21.272  0.00  0.00    +0.000 C 
ATOM      4  O   UNL     1      -1.181  14.156  20.273  0.00  0.00    +0.000 OA
ATOM      5  C   UNL     1      -0.293  14.501  19.236  0.00  0.00    +0.000 A 
ATOM      6  C   UNL     1      -0.379  15.844  18.926  0.00  0.00    +0.000 A 
ATOM      7  C   UNL     1       0.739  16.605  19.146  0.00  0.00    +0.000 A 
ATOM      8  C   UNL     1       1.903  16.002  19.619  0.00  0.00    +0.000 A 
ATOM      9  C   UNL     1       2.796  16.924  20.201  0.00  0.00    +0.000 A 
ATOM     10  C   UNL     1       4.011  16.520  20.721  0.00  0.00    +0.000 A 
ATOM     11  C   UNL     1       4.320  15.172  20.619  0.00  0.00    +0.000 A 
ATOM     12  C   UNL     1       3.388  14.210  20.087  0.00  0.00    +0.000 A 
ATOM     13  C   UNL     1       2.069  14.561  19.610  0.00  0.00    +0.000 A 
ATOM     14  C   UNL     1       0.883  13.742  19.209  0.00  0.00    +0.000 A 
ENDROOT
BRANCH   1  18
ATOM     15  C   UNL     1      -2.657  10.308  16.714  0.00  0.00    +0.000 A 
ATOM     16  C   UNL     1      -1.509   9.615  17.082  0.00  0.00    +0.000 A 
ATOM     17  C   UNL     1      -0.565  10.137  18.019  0.00  0.00    +0.000 A 
ATOM     18  C   UNL     1      -0.712  11.394  18.638  0.00  0.00    +0.000 A 
ATOM     19  C   UNL     1      -1.892  12.088  18.226  0.00  0.00    +0.000 A 
ATOM     20  C   UNL     1      -2.854  11.554  17.293  0.00  0.00    +0.000 A 
BRANCH  15  22
ATOM     21  C   UNL     1      -3.280  10.080  14.382  0.00  0.00    +0.000 C 
ATOM     22  O   UNL     1      -3.410   9.695  15.743  0.00  0.00    +0.000 OA
ENDBRANCH  15  22
ENDBRANCH   1  18
BRANCH   2  23
ATOM     23  C   UNL     1       0.062  11.124  21.855  0.00  0.00    +0.000 A 
ATOM     24  N   UNL     1      -0.443  10.933  23.057  0.00  0.00    +0.000 NA
ATOM     25  N   UNL     1       0.180   9.813  23.564  0.00  0.00    +0.000 NA
ATOM     26  N   UNL     1       1.078   9.336  22.713  0.00  0.00    +0.000 NA
ATOM     27  N   UNL     1       1.010  10.147  21.651  0.00  0.00    +0.000 N 
ATOM     28  H   UNL     1       1.636  10.017  20.865  0.00  0.00    +0.000 HD
ENDBRANCH   2  23
BRANCH   3  29
ATOM     29  N   UNL     1      -0.518  13.920  22.523  0.00  0.00    +0.000 N 
ATOM     30  H   UNL     1      -0.707  13.219  23.246  0.00  0.00    +0.000 HD
ATOM     31  H   UNL     1       0.473  14.171  22.634  0.00  0.00    +0.000 HD
ENDBRANCH   3  29
TORSDOF 4
ENDMDL
MODEL 7
REMARK VINA RESULT:      -6.6      7.598     11.279
REMARK  Name = 
REMARK  5 active torsions:
REMARK  status: ('A' for Active; 'I' for Inactive)
REMARK    1  A    between atoms: C_1  and  O_2
REMARK    2  A    between atoms: O_2  and  C_3
REMARK    3  A    between atoms: C_6  and  C_7
REMARK    4  A    between atoms: C_8  and  C_9
REMARK    5  A    between atoms: C_14  and  N_15
REMARK                            x       y       z     vdW  Elec       q    Type
REMARK                         _______ _______ _______ _____ _____    ______ ____
ROOT
ATOM      1  C   UNL     1      -1.455  12.708  20.387  0.00  0.00    +0.000 C 
ATOM      2  C   UNL     1      -1.663  11.928  21.693  0.00  0.00    +0.000 C 
ATOM      3  C   UNL     1      -2.817  12.237  22.329  0.00  0.00    +0.000 C 
ATOM      4  O   UNL     1      -3.887  12.751  21.583  0.00  0.00    +0.000 OA
ATOM      5  C   UNL     1      -3.575  13.897  20.824  0.00  0.00    +0.000 A 
ATOM      6  C   UNL     1      -4.552  14.865  20.952  0.00  0.00    +0.000 A 
ATOM      7  C   UNL     1      -4.180  16.048  21.537  0.00  0.00    +0.000 A 
ATOM      8  C   UNL     1      -2.856  16.240  21.927  0.00  0.00    +0.000 A 
ATOM      9  C   UNL     1      -2.713  17.272  22.876  0.00  0.00    +0.000 A 
ATOM     10  C   UNL     1      -1.474  17.619  23.381  0.00  0.00    +0.000 A 
ATOM     11  C   UNL     1      -0.380  16.922  22.891  0.00  0.00    +0.000 A 
ATOM     12  C   UNL     1      -0.520  15.821  21.973  0.00  0.00    +0.000 A 
ATOM     13  C   UNL     1      -1.797  15.356  21.479  0.00  0.00    +0.000 A 
ATOM     14  C   UNL     1      -2.204  14.147  20.697  0.00  0.00    +0.000 A 
ENDROOT
BRANCH   1  18
ATOM     15  C   UNL     1      -2.694  10.219  16.771  0.00  0.00    +0.000 A 
ATOM     16  C   UNL     1      -1.488   9.997  17.427  0.00  0.00    +0.000 A 
ATOM     17  C   UNL     1      -1.123  10.697  18.618  0.00  0.00    +0.000 A 
ATOM     18  C   UNL     1      -1.945  11.671  19.219  0.00  0.00    +0.000 A 
ATOM     19  C   UNL     1      -3.169  11.887  18.511  0.00  0.00    +0.000 A 
ATOM     20  C   UNL     1      -3.544  11.169  17.318  0.00  0.00    +0.000 A 
BRANCH  15  22
ATOM     21  C   UNL     1      -3.428  10.138  14.461  0.00  0.00    +0.000 C 
ATOM     22  O   UNL     1      -2.845   9.518  15.599  0.00  0.00    +0.000 OA
ENDBRANCH  15  22
ENDBRANCH   1  18
BRANCH   2  23
ATOM     23  C   UNL     1      -0.786  10.967  22.249  0.00  0.00    +0.000 A 
ATOM     24  N   UNL     1      -0.783  10.295  23.383  0.00  0.00    +0.000 NA
ATOM     25  N   UNL     1       0.441   9.667  23.455  0.00  0.00    +0.000 NA
ATOM     26  N   UNL     1       1.198   9.966  22.408  0.00  0.00    +0.000 NA
ATOM     27  N   UNL     1       0.442  10.774  21.657  0.00  0.00    +0.000 N 
ATOM     28  H   UNL     1       0.813  11.181  20.807  0.00  0.00    +0.000 HD
ENDBRANCH   2  23
BRANCH   3  29
ATOM     29  N   UNL     1      -2.954  12.306  23.701  0.00  0.00    +0.000 N 
ATOM     30  H   UNL     1      -2.440  11.537  24.142  0.00  0.00    +0.000 HD
ATOM     31  H   UNL     1      -2.468  13.165  23.990  0.00  0.00    +0.000 HD
ENDBRANCH   3  29
TORSDOF 4
ENDMDL
MODEL 8
REMARK VINA RESULT:      -6.5      6.737     11.263
REMARK  Name = 
REMARK  5 active torsions:
REMARK  status: ('A' for Active; 'I' for Inactive)
REMARK    1  A    between atoms: C_1  and  O_2
REMARK    2  A    between atoms: O_2  and  C_3
REMARK    3  A    between atoms: C_6  and  C_7
REMARK    4  A    between atoms: C_8  and  C_9
REMARK    5  A    between atoms: C_14  and  N_15
REMARK                            x       y       z     vdW  Elec       q    Type
REMARK                         _______ _______ _______ _____ _____    ______ ____
ROOT
ATOM      1  C   UNL     1      -1.178  12.913  19.569  0.00  0.00    +0.000 C 
ATOM      2  C   UNL     1      -0.233  14.010  20.078  0.00  0.00    +0.000 C 
ATOM      3  C   UNL     1       0.133  13.850  21.372  0.00  0.00    +0.000 C 
ATOM      4  O   UNL     1       0.103  12.566  21.932  0.00  0.00    +0.000 OA
ATOM      5  C   UNL     1      -1.138  11.909  21.825  0.00  0.00    +0.000 A 
ATOM      6  C   UNL     1      -1.495  11.311  23.018  0.00  0.00    +0.000 A 
ATOM      7  C   UNL     1      -2.625  11.782  23.635  0.00  0.00    +0.000 A 
ATOM      8  C   UNL     1      -3.375  12.787  23.029  0.00  0.00    +0.000 A 
ATOM      9  C   UNL     1      -4.218  13.460  23.936  0.00  0.00    +0.000 A 
ATOM     10  C   UNL     1      -5.047  14.486  23.523  0.00  0.00    +0.000 A 
ATOM     11  C   UNL     1      -5.031  14.802  22.174  0.00  0.00    +0.000 A 
ATOM     12  C   UNL     1      -4.126  14.168  21.249  0.00  0.00    +0.000 A 
ATOM     13  C   UNL     1      -3.173  13.152  21.639  0.00  0.00    +0.000 A 
ATOM     14  C   UNL     1      -2.030  12.505  20.925  0.00  0.00    +0.000 A 
ENDROOT
BRANCH   1  18
ATOM     15  C   UNL     1       1.766   9.879  17.857  0.00  0.00    +0.000 A 
ATOM     16  C   UNL     1       0.412   9.588  17.979  0.00  0.00    +0.000 A 
ATOM     17  C   UNL     1      -0.543  10.554  18.422  0.00  0.00    +0.000 A 
ATOM     18  C   UNL     1      -0.194  11.872  18.777  0.00  0.00    +0.000 A 
ATOM     19  C   UNL     1       1.207  12.134  18.655  0.00  0.00    +0.000 A 
ATOM     20  C   UNL     1       2.168  11.164  18.193  0.00  0.00    +0.000 A 
BRANCH  15  22
ATOM     21  C   UNL     1       2.560   7.628  18.284  0.00  0.00    +0.000 C 
ATOM     22  O   UNL     1       2.551   8.811  17.496  0.00  0.00    +0.000 OA
ENDBRANCH  15  22
ENDBRANCH   1  18
BRANCH   2  23
ATOM     23  C   UNL     1       0.252  15.114  19.338  0.00  0.00    +0.000 A 
ATOM     24  N   UNL     1       1.406  15.750  19.316  0.00  0.00    +0.000 NA
ATOM     25  N   UNL     1       1.210  16.877  18.547  0.00  0.00    +0.000 NA
ATOM     26  N   UNL     1      -0.044  16.960  18.126  0.00  0.00    +0.000 NA
ATOM     27  N   UNL     1      -0.644  15.869  18.616  0.00  0.00    +0.000 N 
ATOM     28  H   UNL     1      -1.634  15.718  18.468  0.00  0.00    +0.000 HD
ENDBRANCH   2  23
BRANCH   3  29
ATOM     29  N   UNL     1       0.316  14.890  22.262  0.00  0.00    +0.000 N 
ATOM     30  H   UNL     1       0.379  14.525  23.218  0.00  0.00    +0.000 HD
ATOM     31  H   UNL     1       1.244  15.279  22.053  0.00  0.00    +0.000 HD
ENDBRANCH   3  29
TORSDOF 4
ENDMDL
MODEL 9
REMARK VINA RESULT:      -6.3      8.144      9.872
REMARK  Name = 
REMARK  5 active torsions:
REMARK  status: ('A' for Active; 'I' for Inactive)
REMARK    1  A    between atoms: C_1  and  O_2
REMARK    2  A    between atoms: O_2  and  C_3
REMARK    3  A    between atoms: C_6  and  C_7
REMARK    4  A    between atoms: C_8  and  C_9
REMARK    5  A    between atoms: C_14  and  N_15
REMARK                            x       y       z     vdW  Elec       q    Type
REMARK                         _______ _______ _______ _____ _____    ______ ____
ROOT
ATOM      1  C   UNL     1      -1.112  12.827  19.542  0.00  0.00    +0.000 C 
ATOM      2  C   UNL     1      -0.762  12.862  21.036  0.00  0.00    +0.000 C 
ATOM      3  C   UNL     1      -0.610  14.115  21.526  0.00  0.00    +0.000 C 
ATOM      4  O   UNL     1      -1.255  15.179  20.881  0.00  0.00    +0.000 OA
ATOM      5  C   UNL     1      -0.967  15.293  19.506  0.00  0.00    +0.000 A 
ATOM      6  C   UNL     1      -0.699  16.601  19.155  0.00  0.00    +0.000 A 
ATOM      7  C   UNL     1       0.563  16.875  18.694  0.00  0.00    +0.000 A 
ATOM      8  C   UNL     1       1.487  15.842  18.559  0.00  0.00    +0.000 A 
ATOM      9  C   UNL     1       2.817  16.305  18.506  0.00  0.00    +0.000 A 
ATOM     10  C   UNL     1       3.879  15.432  18.366  0.00  0.00    +0.000 A 
ATOM     11  C   UNL     1       3.573  14.085  18.252  0.00  0.00    +0.000 A 
ATOM     12  C   UNL     1       2.224  13.593  18.371  0.00  0.00    +0.000 A 
ATOM     13  C   UNL     1       1.083  14.449  18.608  0.00  0.00    +0.000 A 
ATOM     14  C   UNL     1      -0.344  14.167  18.954  0.00  0.00    +0.000 A 
ENDROOT
BRANCH   1  18
ATOM     15  C   UNL     1      -5.550  11.777  19.632  0.00  0.00    +0.000 A 
ATOM     16  C   UNL     1      -4.961  12.531  20.641  0.00  0.00    +0.000 A 
ATOM     17  C   UNL     1      -3.597  12.953  20.586  0.00  0.00    +0.000 A 
ATOM     18  C   UNL     1      -2.738  12.637  19.516  0.00  0.00    +0.000 A 
ATOM     19  C   UNL     1      -3.369  11.848  18.503  0.00  0.00    +0.000 A 
ATOM     20  C   UNL     1      -4.750  11.435  18.551  0.00  0.00    +0.000 A 
BRANCH  15  22
ATOM     21  C   UNL     1      -7.170  10.014  20.018  0.00  0.00    +0.000 C 
ATOM     22  O   UNL     1      -6.843  11.391  19.887  0.00  0.00    +0.000 OA
ENDBRANCH  15  22
ENDBRANCH   1  18
BRANCH   2  23
ATOM     23  C   UNL     1      -0.593  11.745  21.888  0.00  0.00    +0.000 A 
ATOM     24  N   UNL     1      -0.995  11.475  23.114  0.00  0.00    +0.000 NA
ATOM     25  N   UNL     1      -0.341  10.321  23.487  0.00  0.00    +0.000 NA
ATOM     26  N   UNL     1       0.474   9.899  22.531  0.00  0.00    +0.000 NA
ATOM     27  N   UNL     1       0.324  10.780  21.536  0.00  0.00    +0.000 N 
ATOM     28  H   UNL     1       0.878  10.702  20.693  0.00  0.00    +0.000 HD
ENDBRANCH   2  23
BRANCH   3  29
ATOM     29  N   UNL     1       0.322  14.468  22.481  0.00  0.00    +0.000 N 
ATOM     30  H   UNL     1      -0.144  14.637  23.378  0.00  0.00    +0.000 HD
ATOM     31  H   UNL     1       0.906  13.634  22.627  0.00  0.00    +0.000 HD
ENDBRANCH   3  29
TORSDOF 4
ENDMDL
