MODEL 1
REMARK VINA RESULT:      -7.4      0.000      0.000
REMARK  Name = 
REMARK  7 active torsions:
REMARK  status: ('A' for Active; 'I' for Inactive)
REMARK    1  A    between atoms: C_1  and  C_2
REMARK    2  A    between atoms: C_7  and  C_8
REMARK    3  A    between atoms: C_8  and  C_9
REMARK    4  A    between atoms: C_9  and  N_10
REMARK    5  A    between atoms: C_11  and  C_13
REMARK    6  A    between atoms: C_13  and  C_14
REMARK    7  A    between atoms: C_19  and  O_20
REMARK                            x       y       z     vdW  Elec       q    Type
REMARK                         _______ _______ _______ _____ _____    ______ ____
ROOT
ATOM      1  C   UNL     1       1.350   2.672  19.050  0.00  0.00    +0.000 C 
ATOM      2  C   UNL     1       2.375   3.675  18.617  0.00  0.00    +0.000 A 
ATOM      3  C   UNL     1       2.002   4.808  17.894  0.00  0.00    +0.000 A 
ATOM      4  C   UNL     1       2.971   5.718  17.488  0.00  0.00    +0.000 A 
ATOM      5  C   UNL     1       4.319   5.502  17.808  0.00  0.00    +0.000 A 
ATOM      6  C   UNL     1       5.303   6.394  17.384  0.00  0.00    +0.000 A 
ATOM      7  C   UNL     1       6.650   6.218  17.726  0.00  0.00    +0.000 A 
ATOM      8  C   UNL     1       6.935   5.068  18.457  0.00  0.00    +0.000 A 
ATOM      9  N   UNL     1       6.011   4.178  18.878  0.00  0.00    +0.000 NA
ATOM     10  C   UNL     1       4.723   4.386  18.556  0.00  0.00    +0.000 A 
ATOM     11  C   UNL     1       3.732   3.488  18.946  0.00  0.00    +0.000 A 
ENDROOT
BRANCH   8  12
ATOM     12  O   UNL     1       8.203   4.731  18.828  0.00  0.00    +0.000 OA
ATOM     13  H   UNL     1       8.430   3.888  18.415  0.00  0.00    +0.000 HD
ENDBRANCH   8  12
BRANCH   7  14
ATOM     14  C   UNL     1       7.692   7.206  17.246  0.00  0.00    +0.000 C 
BRANCH  14  15
ATOM     15  C   UNL     1       7.543   8.611  17.855  0.00  0.00    +0.000 C 
BRANCH  15  16
ATOM     16  N   UNL     1       8.650   9.022  18.689  0.00  0.00    +0.000 N 
ATOM     17  C   UNL     1       9.043  10.349  18.724  0.00  0.00    +0.000 C 
ATOM     18  O   UNL     1       8.640  11.187  17.921  0.00  0.00    +0.000 OA
ATOM     19  H   UNL     1       9.018   8.373  19.374  0.00  0.00    +0.000 HD
BRANCH  17  20
ATOM     20  C   UNL     1       9.978  10.701  19.865  0.00  0.00    +0.000 C 
BRANCH  20  21
ATOM     21  C   UNL     1      10.569  12.053  19.644  0.00  0.00    +0.000 A 
ATOM     22  C   UNL     1      10.188  13.250  20.218  0.00  0.00    +0.000 A 
ATOM     23  C   UNL     1      11.000  14.336  19.785  0.00  0.00    +0.000 A 
ATOM     24  C   UNL     1      11.970  13.933  18.894  0.00  0.00    +0.000 A 
ATOM     25  S   UNL     1      11.899  12.253  18.584  0.00  0.00    +0.000 S 
ENDBRANCH  20  21
ENDBRANCH  17  20
ENDBRANCH  15  16
ENDBRANCH  14  15
ENDBRANCH   7  14
TORSDOF 6
ENDMDL
MODEL 2
REMARK VINA RESULT:      -7.4      1.200      1.346
REMARK  Name = 
REMARK  7 active torsions:
REMARK  status: ('A' for Active; 'I' for Inactive)
REMARK    1  A    between atoms: C_1  and  C_2
REMARK    2  A    between atoms: C_7  and  C_8
REMARK    3  A    between atoms: C_8  and  C_9
REMARK    4  A    between atoms: C_9  and  N_10
REMARK    5  A    between atoms: C_11  and  C_13
REMARK    6  A    between atoms: C_13  and  C_14
REMARK    7  A    between atoms: C_19  and  O_20
REMARK                            x       y       z     vdW  Elec       q    Type
REMARK                         _______ _______ _______ _____ _____    ______ ____
ROOT
ATOM      1  C   UNL     1       1.651   2.385  19.847  0.00  0.00    +0.000 C 
ATOM      2  C   UNL     1       2.597   3.361  19.214  0.00  0.00    +0.000 A 
ATOM      3  C   UNL     1       2.219   4.088  18.085  0.00  0.00    +0.000 A 
ATOM      4  C   UNL     1       3.117   4.976  17.505  0.00  0.00    +0.000 A 
ATOM      5  C   UNL     1       4.396   5.146  18.054  0.00  0.00    +0.000 A 
ATOM      6  C   UNL     1       5.314   6.014  17.465  0.00  0.00    +0.000 A 
ATOM      7  C   UNL     1       6.582   6.229  18.020  0.00  0.00    +0.000 A 
ATOM      8  C   UNL     1       6.875   5.471  19.151  0.00  0.00    +0.000 A 
ATOM      9  N   UNL     1       6.015   4.615  19.745  0.00  0.00    +0.000 NA
ATOM     10  C   UNL     1       4.796   4.449  19.204  0.00  0.00    +0.000 A 
ATOM     11  C   UNL     1       3.878   3.562  19.763  0.00  0.00    +0.000 A 
ENDROOT
BRANCH   8  12
ATOM     12  O   UNL     1       8.082   5.531  19.782  0.00  0.00    +0.000 OA
ATOM     13  H   UNL     1       8.760   5.196  19.181  0.00  0.00    +0.000 HD
ENDBRANCH   8  12
BRANCH   7  14
ATOM     14  C   UNL     1       7.554   7.178  17.352  0.00  0.00    +0.000 C 
BRANCH  14  15
ATOM     15  C   UNL     1       8.262   8.132  18.331  0.00  0.00    +0.000 C 
BRANCH  15  16
ATOM     16  N   UNL     1       8.241   9.521  17.931  0.00  0.00    +0.000 N 
ATOM     17  C   UNL     1       8.973  10.461  18.635  0.00  0.00    +0.000 C 
ATOM     18  O   UNL     1       9.488  10.228  19.725  0.00  0.00    +0.000 OA
ATOM     19  H   UNL     1       7.833   9.771  17.038  0.00  0.00    +0.000 HD
BRANCH  17  20
ATOM     20  C   UNL     1       9.130  11.796  17.931  0.00  0.00    +0.000 C 
BRANCH  20  21
ATOM     21  C   UNL     1       9.907  12.738  18.788  0.00  0.00    +0.000 A 
ATOM     22  C   UNL     1      11.270  12.961  18.786  0.00  0.00    +0.000 A 
ATOM     23  C   UNL     1      11.653  13.955  19.731  0.00  0.00    +0.000 A 
ATOM     24  C   UNL     1      10.573  14.454  20.423  0.00  0.00    +0.000 A 
ATOM     25  S   UNL     1       9.104  13.726  19.934  0.00  0.00    +0.000 S 
ENDBRANCH  20  21
ENDBRANCH  17  20
ENDBRANCH  15  16
ENDBRANCH  14  15
ENDBRANCH   7  14
TORSDOF 6
ENDMDL
MODEL 3
REMARK VINA RESULT:      -7.3      5.850      8.499
REMARK  Name = 
REMARK  7 active torsions:
REMARK  status: ('A' for Active; 'I' for Inactive)
REMARK    1  A    between atoms: C_1  and  C_2
REMARK    2  A    between atoms: C_7  and  C_8
REMARK    3  A    between atoms: C_8  and  C_9
REMARK    4  A    between atoms: C_9  and  N_10
REMARK    5  A    between atoms: C_11  and  C_13
REMARK    6  A    between atoms: C_13  and  C_14
REMARK    7  A    between atoms: C_19  and  O_20
REMARK                            x       y       z     vdW  Elec       q    Type
REMARK                         _______ _______ _______ _____ _____    ______ ____
ROOT
ATOM      1  C   UNL     1      -1.982  12.315  23.315  0.00  0.00    +0.000 C 
ATOM      2  C   UNL     1      -1.157  11.314  22.565  0.00  0.00    +0.000 A 
ATOM      3  C   UNL     1      -0.877  10.064  23.118  0.00  0.00    +0.000 A 
ATOM      4  C   UNL     1      -0.097   9.157  22.413  0.00  0.00    +0.000 A 
ATOM      5  C   UNL     1       0.404   9.492  21.146  0.00  0.00    +0.000 A 
ATOM      6  C   UNL     1       1.210   8.599  20.440  0.00  0.00    +0.000 A 
ATOM      7  C   UNL     1       1.687   8.898  19.158  0.00  0.00    +0.000 A 
ATOM      8  C   UNL     1       1.353  10.161  18.676  0.00  0.00    +0.000 A 
ATOM      9  N   UNL     1       0.583  11.054  19.333  0.00  0.00    +0.000 NA
ATOM     10  C   UNL     1       0.118  10.730  20.552  0.00  0.00    +0.000 A 
ATOM     11  C   UNL     1      -0.663  11.622  21.283  0.00  0.00    +0.000 A 
ENDROOT
BRANCH   8  12
ATOM     12  O   UNL     1       1.779  10.619  17.464  0.00  0.00    +0.000 OA
ATOM     13  H   UNL     1       1.292  11.425  17.252  0.00  0.00    +0.000 HD
ENDBRANCH   8  12
BRANCH   7  14
ATOM     14  C   UNL     1       2.561   7.906  18.421  0.00  0.00    +0.000 C 
BRANCH  14  15
ATOM     15  C   UNL     1       2.543   6.491  19.028  0.00  0.00    +0.000 C 
BRANCH  15  16
ATOM     16  N   UNL     1       3.220   5.491  18.234  0.00  0.00    +0.000 N 
ATOM     17  C   UNL     1       4.382   4.900  18.698  0.00  0.00    +0.000 C 
ATOM     18  O   UNL     1       5.007   5.324  19.667  0.00  0.00    +0.000 OA
ATOM     19  H   UNL     1       2.749   5.102  17.426  0.00  0.00    +0.000 HD
BRANCH  17  20
ATOM     20  C   UNL     1       4.804   3.654  17.941  0.00  0.00    +0.000 C 
BRANCH  20  21
ATOM     21  C   UNL     1       5.559   4.033  16.712  0.00  0.00    +0.000 A 
ATOM     22  C   UNL     1       5.150   3.924  15.397  0.00  0.00    +0.000 A 
ATOM     23  C   UNL     1       6.132   4.408  14.487  0.00  0.00    +0.000 A 
ATOM     24  C   UNL     1       7.257   4.865  15.136  0.00  0.00    +0.000 A 
ATOM     25  S   UNL     1       7.127   4.711  16.834  0.00  0.00    +0.000 S 
ENDBRANCH  20  21
ENDBRANCH  17  20
ENDBRANCH  15  16
ENDBRANCH  14  15
ENDBRANCH   7  14
TORSDOF 6
ENDMDL
MODEL 4
REMARK VINA RESULT:      -7.2      5.519      7.861
REMARK  Name = 
REMARK  7 active torsions:
REMARK  status: ('A' for Active; 'I' for Inactive)
REMARK    1  A    between atoms: C_1  and  C_2
REMARK    2  A    between atoms: C_7  and  C_8
REMARK    3  A    between atoms: C_8  and  C_9
REMARK    4  A    between atoms: C_9  and  N_10
REMARK    5  A    between atoms: C_11  and  C_13
REMARK    6  A    between atoms: C_13  and  C_14
REMARK    7  A    between atoms: C_19  and  O_20
REMARK                            x       y       z     vdW  Elec       q    Type
REMARK                         _______ _______ _______ _____ _____    ______ ____
ROOT
ATOM      1  C   UNL     1       1.515   2.361  21.842  0.00  0.00    +0.000 C 
ATOM      2  C   UNL     1       2.485   2.977  20.880  0.00  0.00    +0.000 A 
ATOM      3  C   UNL     1       3.669   2.321  20.545  0.00  0.00    +0.000 A 
ATOM      4  C   UNL     1       4.563   2.917  19.664  0.00  0.00    +0.000 A 
ATOM      5  C   UNL     1       4.273   4.172  19.107  0.00  0.00    +0.000 A 
ATOM      6  C   UNL     1       5.174   4.792  18.242  0.00  0.00    +0.000 A 
ATOM      7  C   UNL     1       4.887   6.025  17.645  0.00  0.00    +0.000 A 
ATOM      8  C   UNL     1       3.680   6.607  18.025  0.00  0.00    +0.000 A 
ATOM      9  N   UNL     1       2.787   6.041  18.866  0.00  0.00    +0.000 NA
ATOM     10  C   UNL     1       3.078   4.845  19.404  0.00  0.00    +0.000 A 
ATOM     11  C   UNL     1       2.203   4.226  20.294  0.00  0.00    +0.000 A 
ENDROOT
BRANCH   8  12
ATOM     12  O   UNL     1       3.278   7.826  17.568  0.00  0.00    +0.000 OA
ATOM     13  H   UNL     1       3.510   7.897  16.633  0.00  0.00    +0.000 HD
ENDBRANCH   8  12
BRANCH   7  14
ATOM     14  C   UNL     1       5.889   6.670  16.711  0.00  0.00    +0.000 C 
BRANCH  14  15
ATOM     15  C   UNL     1       7.136   5.808  16.447  0.00  0.00    +0.000 C 
BRANCH  15  16
ATOM     16  N   UNL     1       7.456   5.633  15.048  0.00  0.00    +0.000 N 
ATOM     17  C   UNL     1       6.845   4.635  14.310  0.00  0.00    +0.000 C 
ATOM     18  O   UNL     1       6.186   3.733  14.823  0.00  0.00    +0.000 OA
ATOM     19  H   UNL     1       7.993   6.349  14.572  0.00  0.00    +0.000 HD
BRANCH  17  20
ATOM     20  C   UNL     1       7.012   4.766  12.808  0.00  0.00    +0.000 C 
BRANCH  20  21
ATOM     21  C   UNL     1       6.628   3.490  12.137  0.00  0.00    +0.000 A 
ATOM     22  C   UNL     1       7.462   2.517  11.622  0.00  0.00    +0.000 A 
ATOM     23  C   UNL     1       6.737   1.421  11.074  0.00  0.00    +0.000 A 
ATOM     24  C   UNL     1       5.376   1.595  11.186  0.00  0.00    +0.000 A 
ATOM     25  S   UNL     1       4.977   3.073  11.949  0.00  0.00    +0.000 S 
ENDBRANCH  20  21
ENDBRANCH  17  20
ENDBRANCH  15  16
ENDBRANCH  14  15
ENDBRANCH   7  14
TORSDOF 6
ENDMDL
MODEL 5
REMARK VINA RESULT:      -7.2      6.229      9.281
REMARK  Name = 
REMARK  7 active torsions:
REMARK  status: ('A' for Active; 'I' for Inactive)
REMARK    1  A    between atoms: C_1  and  C_2
REMARK    2  A    between atoms: C_7  and  C_8
REMARK    3  A    between atoms: C_8  and  C_9
REMARK    4  A    between atoms: C_9  and  N_10
REMARK    5  A    between atoms: C_11  and  C_13
REMARK    6  A    between atoms: C_13  and  C_14
REMARK    7  A    between atoms: C_19  and  O_20
REMARK                            x       y       z     vdW  Elec       q    Type
REMARK                         _______ _______ _______ _____ _____    ______ ____
ROOT
ATOM      1  C   UNL     1      -1.394  11.813  23.188  0.00  0.00    +0.000 C 
ATOM      2  C   UNL     1      -0.689  10.880  22.251  0.00  0.00    +0.000 A 
ATOM      3  C   UNL     1      -0.645   9.510  22.510  0.00  0.00    +0.000 A 
ATOM      4  C   UNL     1       0.028   8.665  21.636  0.00  0.00    +0.000 A 
ATOM      5  C   UNL     1       0.655   9.185  20.494  0.00  0.00    +0.000 A 
ATOM      6  C   UNL     1       1.356   8.349  19.624  0.00  0.00    +0.000 A 
ATOM      7  C   UNL     1       1.955   8.841  18.458  0.00  0.00    +0.000 A 
ATOM      8  C   UNL     1       1.855  10.217  18.270  0.00  0.00    +0.000 A 
ATOM      9  N   UNL     1       1.194  11.058  19.095  0.00  0.00    +0.000 NA
ATOM     10  C   UNL     1       0.606  10.554  20.193  0.00  0.00    +0.000 A 
ATOM     11  C   UNL     1      -0.071  11.379  21.088  0.00  0.00    +0.000 A 
ENDROOT
BRANCH   8  12
ATOM     12  O   UNL     1       2.425  10.855  17.209  0.00  0.00    +0.000 OA
ATOM     13  H   UNL     1       1.772  11.453  16.822  0.00  0.00    +0.000 HD
ENDBRANCH   8  12
BRANCH   7  14
ATOM     14  C   UNL     1       2.709   7.905  17.537  0.00  0.00    +0.000 C 
BRANCH  14  15
ATOM     15  C   UNL     1       3.492   6.805  18.275  0.00  0.00    +0.000 C 
BRANCH  15  16
ATOM     16  N   UNL     1       2.908   5.487  18.176  0.00  0.00    +0.000 N 
ATOM     17  C   UNL     1       3.521   4.507  17.416  0.00  0.00    +0.000 C 
ATOM     18  O   UNL     1       4.439   4.743  16.634  0.00  0.00    +0.000 OA
ATOM     19  H   UNL     1       2.151   5.235  18.801  0.00  0.00    +0.000 HD
BRANCH  17  20
ATOM     20  C   UNL     1       3.002   3.102  17.657  0.00  0.00    +0.000 C 
BRANCH  20  21
ATOM     21  C   UNL     1       2.605   2.940  19.086  0.00  0.00    +0.000 A 
ATOM     22  C   UNL     1       3.415   2.997  20.203  0.00  0.00    +0.000 A 
ATOM     23  C   UNL     1       2.681   2.819  21.410  0.00  0.00    +0.000 A 
ATOM     24  C   UNL     1       1.338   2.630  21.173  0.00  0.00    +0.000 A 
ATOM     25  S   UNL     1       0.967   2.667  19.504  0.00  0.00    +0.000 S 
ENDBRANCH  20  21
ENDBRANCH  17  20
ENDBRANCH  15  16
ENDBRANCH  14  15
ENDBRANCH   7  14
TORSDOF 6
ENDMDL
MODEL 6
REMARK VINA RESULT:      -7.1      4.569      7.649
REMARK  Name = 
REMARK  7 active torsions:
REMARK  status: ('A' for Active; 'I' for Inactive)
REMARK    1  A    between atoms: C_1  and  C_2
REMARK    2  A    between atoms: C_7  and  C_8
REMARK    3  A    between atoms: C_8  and  C_9
REMARK    4  A    between atoms: C_9  and  N_10
REMARK    5  A    between atoms: C_11  and  C_13
REMARK    6  A    between atoms: C_13  and  C_14
REMARK    7  A    between atoms: C_19  and  O_20
REMARK                            x       y       z     vdW  Elec       q    Type
REMARK                         _______ _______ _______ _____ _____    ______ ____
ROOT
ATOM      1  C   UNL     1       8.570   8.007  18.401  0.00  0.00    +0.000 C 
ATOM      2  C   UNL     1       7.426   7.106  18.045  0.00  0.00    +0.000 A 
ATOM      3  C   UNL     1       6.623   7.380  16.938  0.00  0.00    +0.000 A 
ATOM      4  C   UNL     1       5.557   6.541  16.635  0.00  0.00    +0.000 A 
ATOM      5  C   UNL     1       5.293   5.420  17.435  0.00  0.00    +0.000 A 
ATOM      6  C   UNL     1       4.210   4.586  17.156  0.00  0.00    +0.000 A 
ATOM      7  C   UNL     1       3.952   3.439  17.918  0.00  0.00    +0.000 A 
ATOM      8  C   UNL     1       4.807   3.235  18.997  0.00  0.00    +0.000 A 
ATOM      9  N   UNL     1       5.859   4.024  19.304  0.00  0.00    +0.000 NA
ATOM     10  C   UNL     1       6.098   5.104  18.539  0.00  0.00    +0.000 A 
ATOM     11  C   UNL     1       7.156   5.964  18.823  0.00  0.00    +0.000 A 
ENDROOT
BRANCH   8  12
ATOM     12  O   UNL     1       4.660   2.190  19.861  0.00  0.00    +0.000 OA
ATOM     13  H   UNL     1       4.971   1.385  19.427  0.00  0.00    +0.000 HD
ENDBRANCH   8  12
BRANCH   7  14
ATOM     14  C   UNL     1       2.767   2.558  17.588  0.00  0.00    +0.000 C 
BRANCH  14  15
ATOM     15  C   UNL     1       1.425   3.097  18.115  0.00  0.00    +0.000 C 
BRANCH  15  16
ATOM     16  N   UNL     1       1.544   4.232  19.002  0.00  0.00    +0.000 N 
ATOM     17  C   UNL     1       1.482   4.057  20.373  0.00  0.00    +0.000 C 
ATOM     18  O   UNL     1       1.117   3.008  20.897  0.00  0.00    +0.000 OA
ATOM     19  H   UNL     1       1.847   5.123  18.624  0.00  0.00    +0.000 HD
BRANCH  17  20
ATOM     20  C   UNL     1       1.945   5.252  21.185  0.00  0.00    +0.000 C 
BRANCH  20  21
ATOM     21  C   UNL     1       1.929   6.482  20.341  0.00  0.00    +0.000 A 
ATOM     22  C   UNL     1       2.515   6.672  19.104  0.00  0.00    +0.000 A 
ATOM     23  C   UNL     1       2.269   7.975  18.586  0.00  0.00    +0.000 A 
ATOM     24  C   UNL     1       1.508   8.737  19.445  0.00  0.00    +0.000 A 
ATOM     25  S   UNL     1       1.093   7.882  20.867  0.00  0.00    +0.000 S 
ENDBRANCH  20  21
ENDBRANCH  17  20
ENDBRANCH  15  16
ENDBRANCH  14  15
ENDBRANCH   7  14
TORSDOF 6
ENDMDL
MODEL 7
REMARK VINA RESULT:      -7.1      5.248      7.578
REMARK  Name = 
REMARK  7 active torsions:
REMARK  status: ('A' for Active; 'I' for Inactive)
REMARK    1  A    between atoms: C_1  and  C_2
REMARK    2  A    between atoms: C_7  and  C_8
REMARK    3  A    between atoms: C_8  and  C_9
REMARK    4  A    between atoms: C_9  and  N_10
REMARK    5  A    between atoms: C_11  and  C_13
REMARK    6  A    between atoms: C_13  and  C_14
REMARK    7  A    between atoms: C_19  and  O_20
REMARK                            x       y       z     vdW  Elec       q    Type
REMARK                         _______ _______ _______ _____ _____    ______ ____
ROOT
ATOM      1  C   UNL     1      -1.606  11.664  23.413  0.00  0.00    +0.000 C 
ATOM      2  C   UNL     1      -0.824  10.759  22.509  0.00  0.00    +0.000 A 
ATOM      3  C   UNL     1      -0.582   9.433  22.866  0.00  0.00    +0.000 A 
ATOM      4  C   UNL     1       0.159   8.616  22.021  0.00  0.00    +0.000 A 
ATOM      5  C   UNL     1       0.657   9.120  20.810  0.00  0.00    +0.000 A 
ATOM      6  C   UNL     1       1.424   8.317  19.966  0.00  0.00    +0.000 A 
ATOM      7  C   UNL     1       1.897   8.788  18.735  0.00  0.00    +0.000 A 
ATOM      8  C   UNL     1       1.601  10.119  18.451  0.00  0.00    +0.000 A 
ATOM      9  N   UNL     1       0.870  10.929  19.247  0.00  0.00    +0.000 NA
ATOM     10  C   UNL     1       0.407  10.441  20.411  0.00  0.00    +0.000 A 
ATOM     11  C   UNL     1      -0.334  11.240  21.279  0.00  0.00    +0.000 A 
ENDROOT
BRANCH   8  12
ATOM     12  O   UNL     1       2.029  10.738  17.315  0.00  0.00    +0.000 OA
ATOM     13  H   UNL     1       2.016  11.693  17.462  0.00  0.00    +0.000 HD
ENDBRANCH   8  12
BRANCH   7  14
ATOM     14  C   UNL     1       2.728   7.889  17.845  0.00  0.00    +0.000 C 
BRANCH  14  15
ATOM     15  C   UNL     1       2.543   6.388  18.132  0.00  0.00    +0.000 C 
BRANCH  15  16
ATOM     16  N   UNL     1       3.721   5.729  18.649  0.00  0.00    +0.000 N 
ATOM     17  C   UNL     1       4.197   4.576  18.049  0.00  0.00    +0.000 C 
ATOM     18  O   UNL     1       3.555   3.943  17.214  0.00  0.00    +0.000 OA
ATOM     19  H   UNL     1       4.291   6.207  19.337  0.00  0.00    +0.000 HD
BRANCH  17  20
ATOM     20  C   UNL     1       5.599   4.177  18.470  0.00  0.00    +0.000 C 
BRANCH  20  21
ATOM     21  C   UNL     1       6.520   5.345  18.356  0.00  0.00    +0.000 A 
ATOM     22  C   UNL     1       7.515   5.730  19.233  0.00  0.00    +0.000 A 
ATOM     23  C   UNL     1       8.210   6.888  18.783  0.00  0.00    +0.000 A 
ATOM     24  C   UNL     1       7.719   7.351  17.582  0.00  0.00    +0.000 A 
ATOM     25  S   UNL     1       6.429   6.390  17.002  0.00  0.00    +0.000 S 
ENDBRANCH  20  21
ENDBRANCH  17  20
ENDBRANCH  15  16
ENDBRANCH  14  15
ENDBRANCH   7  14
TORSDOF 6
ENDMDL
MODEL 8
REMARK VINA RESULT:      -7.1      1.346      1.815
REMARK  Name = 
REMARK  7 active torsions:
REMARK  status: ('A' for Active; 'I' for Inactive)
REMARK    1  A    between atoms: C_1  and  C_2
REMARK    2  A    between atoms: C_7  and  C_8
REMARK    3  A    between atoms: C_8  and  C_9
REMARK    4  A    between atoms: C_9  and  N_10
REMARK    5  A    between atoms: C_11  and  C_13
REMARK    6  A    between atoms: C_13  and  C_14
REMARK    7  A    between atoms: C_19  and  O_20
REMARK                            x       y       z     vdW  Elec       q    Type
REMARK                         _______ _______ _______ _____ _____    ______ ____
ROOT
ATOM      1  C   UNL     1       0.753   2.492  18.729  0.00  0.00    +0.000 C 
ATOM      2  C   UNL     1       2.137   3.063  18.761  0.00  0.00    +0.000 A 
ATOM      3  C   UNL     1       3.049   2.667  19.740  0.00  0.00    +0.000 A 
ATOM      4  C   UNL     1       4.322   3.221  19.762  0.00  0.00    +0.000 A 
ATOM      5  C   UNL     1       4.695   4.172  18.799  0.00  0.00    +0.000 A 
ATOM      6  C   UNL     1       5.961   4.754  18.827  0.00  0.00    +0.000 A 
ATOM      7  C   UNL     1       6.367   5.675  17.852  0.00  0.00    +0.000 A 
ATOM      8  C   UNL     1       5.401   6.007  16.906  0.00  0.00    +0.000 A 
ATOM      9  N   UNL     1       4.162   5.471  16.853  0.00  0.00    +0.000 NA
ATOM     10  C   UNL     1       3.810   4.571  17.786  0.00  0.00    +0.000 A 
ATOM     11  C   UNL     1       2.538   4.003  17.792  0.00  0.00    +0.000 A 
ENDROOT
BRANCH   8  12
ATOM     12  O   UNL     1       5.624   6.922  15.920  0.00  0.00    +0.000 OA
ATOM     13  H   UNL     1       5.800   6.449  15.096  0.00  0.00    +0.000 HD
ENDBRANCH   8  12
BRANCH   7  14
ATOM     14  C   UNL     1       7.749   6.289  17.914  0.00  0.00    +0.000 C 
BRANCH  14  15
ATOM     15  C   UNL     1       7.749   7.827  17.854  0.00  0.00    +0.000 C 
BRANCH  15  16
ATOM     16  N   UNL     1       8.659   8.461  18.780  0.00  0.00    +0.000 N 
ATOM     17  C   UNL     1       8.846   9.832  18.747  0.00  0.00    +0.000 C 
ATOM     18  O   UNL     1       8.438  10.541  17.829  0.00  0.00    +0.000 OA
ATOM     19  H   UNL     1       9.022   7.926  19.559  0.00  0.00    +0.000 HD
BRANCH  17  20
ATOM     20  C   UNL     1       9.555  10.403  19.960  0.00  0.00    +0.000 C 
BRANCH  20  21
ATOM     21  C   UNL     1      10.180  11.714  19.618  0.00  0.00    +0.000 A 
ATOM     22  C   UNL     1       9.821  12.969  20.068  0.00  0.00    +0.000 A 
ATOM     23  C   UNL     1      10.664  13.990  19.544  0.00  0.00    +0.000 A 
ATOM     24  C   UNL     1      11.634  13.481  18.710  0.00  0.00    +0.000 A 
ATOM     25  S   UNL     1      11.527  11.780  18.563  0.00  0.00    +0.000 S 
ENDBRANCH  20  21
ENDBRANCH  17  20
ENDBRANCH  15  16
ENDBRANCH  14  15
ENDBRANCH   7  14
TORSDOF 6
ENDMDL
MODEL 9
REMARK VINA RESULT:      -7.1      6.685      9.884
REMARK  Name = 
REMARK  7 active torsions:
REMARK  status: ('A' for Active; 'I' for Inactive)
REMARK    1  A    between atoms: C_1  and  C_2
REMARK    2  A    between atoms: C_7  and  C_8
REMARK    3  A    between atoms: C_8  and  C_9
REMARK    4  A    between atoms: C_9  and  N_10
REMARK    5  A    between atoms: C_11  and  C_13
REMARK    6  A    between atoms: C_13  and  C_14
REMARK    7  A    between atoms: C_19  and  O_20
REMARK                            x       y       z     vdW  Elec       q    Type
REMARK                         _______ _______ _______ _____ _____    ______ ____
ROOT
ATOM      1  C   UNL     1      -5.572  11.996  17.068  0.00  0.00    +0.000 C 
ATOM      2  C   UNL     1      -4.204  11.407  17.237  0.00  0.00    +0.000 A 
ATOM      3  C   UNL     1      -3.662  10.577  16.256  0.00  0.00    +0.000 A 
ATOM      4  C   UNL     1      -2.398  10.028  16.439  0.00  0.00    +0.000 A 
ATOM      5  C   UNL     1      -1.667  10.313  17.602  0.00  0.00    +0.000 A 
ATOM      6  C   UNL     1      -0.409   9.748  17.809  0.00  0.00    +0.000 A 
ATOM      7  C   UNL     1       0.354  10.050  18.943  0.00  0.00    +0.000 A 
ATOM      8  C   UNL     1      -0.257  10.895  19.866  0.00  0.00    +0.000 A 
ATOM      9  N   UNL     1      -1.476  11.454  19.705  0.00  0.00    +0.000 NA
ATOM     10  C   UNL     1      -2.175  11.166  18.594  0.00  0.00    +0.000 A 
ATOM     11  C   UNL     1      -3.446  11.697  18.387  0.00  0.00    +0.000 A 
ENDROOT
BRANCH   8  12
ATOM     12  O   UNL     1       0.335  11.247  21.042  0.00  0.00    +0.000 OA
ATOM     13  H   UNL     1       0.521  10.445  21.546  0.00  0.00    +0.000 HD
ENDBRANCH   8  12
BRANCH   7  14
ATOM     14  C   UNL     1       1.715   9.417  19.136  0.00  0.00    +0.000 C 
BRANCH  14  15
ATOM     15  C   UNL     1       2.056   8.345  18.085  0.00  0.00    +0.000 C 
BRANCH  15  16
ATOM     16  N   UNL     1       2.371   7.046  18.636  0.00  0.00    +0.000 N 
ATOM     17  C   UNL     1       3.455   6.330  18.160  0.00  0.00    +0.000 C 
ATOM     18  O   UNL     1       4.061   6.636  17.136  0.00  0.00    +0.000 OA
ATOM     19  H   UNL     1       1.904   6.744  19.483  0.00  0.00    +0.000 HD
BRANCH  17  20
ATOM     20  C   UNL     1       3.869   5.158  19.029  0.00  0.00    +0.000 C 
BRANCH  20  21
ATOM     21  C   UNL     1       2.725   4.215  19.196  0.00  0.00    +0.000 A 
ATOM     22  C   UNL     1       1.928   4.035  20.310  0.00  0.00    +0.000 A 
ATOM     23  C   UNL     1       0.915   3.059  20.094  0.00  0.00    +0.000 A 
ATOM     24  C   UNL     1       0.973   2.525  18.826  0.00  0.00    +0.000 A 
ATOM     25  S   UNL     1       2.245   3.199  17.903  0.00  0.00    +0.000 S 
ENDBRANCH  20  21
ENDBRANCH  17  20
ENDBRANCH  15  16
ENDBRANCH  14  15
ENDBRANCH   7  14
TORSDOF 6
ENDMDL
