MODEL 1
REMARK VINA RESULT:      -7.4      0.000      0.000
REMARK  Name = 
REMARK  14 active torsions:
REMARK  status: ('A' for Active; 'I' for Inactive)
REMARK    1  A    between atoms: C_1  and  C_2
REMARK    2  A    between atoms: C_2  and  C_3
REMARK    3  A    between atoms: C_3  and  N_4
REMARK    4  A    between atoms: N_4  and  C_5
REMARK    5  A    between atoms: N_4  and  C_8
REMARK    6  A    between atoms: C_5  and  C_6
REMARK    7  A    between atoms: C_6  and  C_7
REMARK    8  A    between atoms: C_8  and  C_9
REMARK    9  A    between atoms: C_9  and  C_10
REMARK   10  A    between atoms: C_10  and  C_11
REMARK   11  A    between atoms: C_11  and  O_12
REMARK   12  A    between atoms: O_12  and  C_13
REMARK   13  A    between atoms: C_16  and  C_17
REMARK   14  A    between atoms: C_18  and  C_19
REMARK                            x       y       z     vdW  Elec       q    Type
REMARK                         _______ _______ _______ _____ _____    ______ ____
ROOT
ATOM      1  C   UNL     1       6.740   5.322  17.638  0.00  0.00    +0.000 A 
ATOM      2  C   UNL     1       6.562   6.493  16.899  0.00  0.00    +0.000 A 
ATOM      3  C   UNL     1       7.236   7.674  17.243  0.00  0.00    +0.000 A 
ATOM      4  C   UNL     1       8.102   7.714  18.338  0.00  0.00    +0.000 A 
ATOM      5  C   UNL     1       8.296   6.527  19.063  0.00  0.00    +0.000 A 
ATOM      6  C   UNL     1       7.613   5.347  18.724  0.00  0.00    +0.000 A 
ENDROOT
BRANCH   4   7
ATOM      7  C   UNL     1       8.775   8.988  18.683  0.00  0.00    +0.000 C 
ATOM      8  C   UNL     1       8.570  10.098  17.960  0.00  0.00    +0.000 C 
BRANCH   8   9
ATOM      9  C   UNL     1       9.176  11.365  18.167  0.00  0.00    +0.000 A 
ATOM     10  N   UNL     1       8.528  12.494  17.911  0.00  0.00    +0.000 NA
ATOM     11  C   UNL     1       9.409  13.500  18.178  0.00  0.00    +0.000 A 
ATOM     12  C   UNL     1       9.264  14.888  18.060  0.00  0.00    +0.000 A 
ATOM     13  C   UNL     1      10.359  15.696  18.388  0.00  0.00    +0.000 A 
ATOM     14  C   UNL     1      11.559  15.129  18.832  0.00  0.00    +0.000 A 
ATOM     15  C   UNL     1      11.712  13.737  18.964  0.00  0.00    +0.000 A 
ATOM     16  C   UNL     1      10.605  12.967  18.618  0.00  0.00    +0.000 A 
ATOM     17  O   UNL     1      10.470  11.601  18.623  0.00  0.00    +0.000 OA
ENDBRANCH   8   9
ENDBRANCH   4   7
BRANCH   1  18
ATOM     18  O   UNL     1       6.121   4.120  17.392  0.00  0.00    +0.000 OA
BRANCH  18  19
ATOM     19  C   UNL     1       4.838   4.205  16.765  0.00  0.00    +0.000 C 
BRANCH  19  20
ATOM     20  C   UNL     1       3.841   3.241  17.403  0.00  0.00    +0.000 C 
BRANCH  20  21
ATOM     21  C   UNL     1       2.374   3.646  17.237  0.00  0.00    +0.000 C 
BRANCH  21  22
ATOM     22  C   UNL     1       1.929   4.848  18.090  0.00  0.00    +0.000 C 
BRANCH  22  23
ATOM     23  N   UNL     1       2.773   5.157  19.274  0.00  0.00    +0.000 NA
BRANCH  23  24
ATOM     24  C   UNL     1       3.298   6.542  19.157  0.00  0.00    +0.000 C 
BRANCH  24  26
ATOM     25  C   UNL     1       2.188   8.575  18.071  0.00  0.00    +0.000 C 
ATOM     26  C   UNL     1       3.007   7.313  17.859  0.00  0.00    +0.000 C 
ENDBRANCH  24  26
ENDBRANCH  23  24
BRANCH  23  27
ATOM     27  C   UNL     1       1.983   5.004  20.520  0.00  0.00    +0.000 C 
BRANCH  27  28
ATOM     28  C   UNL     1       0.979   3.837  20.556  0.00  0.00    +0.000 C 
ATOM     29  C   UNL     1       1.375   2.717  21.508  0.00  0.00    +0.000 C 
ENDBRANCH  27  28
ENDBRANCH  23  27
ENDBRANCH  22  23
ENDBRANCH  21  22
ENDBRANCH  20  21
ENDBRANCH  19  20
ENDBRANCH  18  19
ENDBRANCH   1  18
TORSDOF 12
ENDMDL
MODEL 2
REMARK VINA RESULT:      -7.0      1.149      1.579
REMARK  Name = 
REMARK  14 active torsions:
REMARK  status: ('A' for Active; 'I' for Inactive)
REMARK    1  A    between atoms: C_1  and  C_2
REMARK    2  A    between atoms: C_2  and  C_3
REMARK    3  A    between atoms: C_3  and  N_4
REMARK    4  A    between atoms: N_4  and  C_5
REMARK    5  A    between atoms: N_4  and  C_8
REMARK    6  A    between atoms: C_5  and  C_6
REMARK    7  A    between atoms: C_6  and  C_7
REMARK    8  A    between atoms: C_8  and  C_9
REMARK    9  A    between atoms: C_9  and  C_10
REMARK   10  A    between atoms: C_10  and  C_11
REMARK   11  A    between atoms: C_11  and  O_12
REMARK   12  A    between atoms: O_12  and  C_13
REMARK   13  A    between atoms: C_16  and  C_17
REMARK   14  A    between atoms: C_18  and  C_19
REMARK                            x       y       z     vdW  Elec       q    Type
REMARK                         _______ _______ _______ _____ _____    ______ ____
ROOT
ATOM      1  C   UNL     1       5.821   4.681  17.998  0.00  0.00    +0.000 A 
ATOM      2  C   UNL     1       6.085   5.566  16.951  0.00  0.00    +0.000 A 
ATOM      3  C   UNL     1       6.999   6.618  17.106  0.00  0.00    +0.000 A 
ATOM      4  C   UNL     1       7.669   6.815  18.315  0.00  0.00    +0.000 A 
ATOM      5  C   UNL     1       7.418   5.908  19.359  0.00  0.00    +0.000 A 
ATOM      6  C   UNL     1       6.495   4.860  19.206  0.00  0.00    +0.000 A 
ENDROOT
BRANCH   4   7
ATOM      7  C   UNL     1       8.608   7.953  18.446  0.00  0.00    +0.000 C 
ATOM      8  C   UNL     1       8.185   9.219  18.321  0.00  0.00    +0.000 C 
BRANCH   8   9
ATOM      9  C   UNL     1       8.987  10.388  18.393  0.00  0.00    +0.000 A 
ATOM     10  N   UNL     1       9.983  10.494  19.262  0.00  0.00    +0.000 NA
ATOM     11  C   UNL     1      10.502  11.743  19.088  0.00  0.00    +0.000 A 
ATOM     12  C   UNL     1      11.549  12.391  19.753  0.00  0.00    +0.000 A 
ATOM     13  C   UNL     1      11.859  13.703  19.376  0.00  0.00    +0.000 A 
ATOM     14  C   UNL     1      11.147  14.341  18.354  0.00  0.00    +0.000 A 
ATOM     15  C   UNL     1      10.100  13.695  17.671  0.00  0.00    +0.000 A 
ATOM     16  C   UNL     1       9.814  12.396  18.083  0.00  0.00    +0.000 A 
ATOM     17  O   UNL     1       8.846  11.540  17.622  0.00  0.00    +0.000 OA
ENDBRANCH   8   9
ENDBRANCH   4   7
BRANCH   1  18
ATOM     18  O   UNL     1       4.938   3.629  17.954  0.00  0.00    +0.000 OA
BRANCH  18  19
ATOM     19  C   UNL     1       4.024   3.639  16.853  0.00  0.00    +0.000 C 
BRANCH  19  20
ATOM     20  C   UNL     1       2.647   3.126  17.269  0.00  0.00    +0.000 C 
BRANCH  20  21
ATOM     21  C   UNL     1       1.604   4.224  17.491  0.00  0.00    +0.000 C 
BRANCH  21  22
ATOM     22  C   UNL     1       1.432   4.671  18.955  0.00  0.00    +0.000 C 
BRANCH  22  23
ATOM     23  N   UNL     1       2.575   5.409  19.552  0.00  0.00    +0.000 NA
BRANCH  23  24
ATOM     24  C   UNL     1       2.203   6.836  19.728  0.00  0.00    +0.000 C 
BRANCH  24  26
ATOM     25  C   UNL     1       3.419   7.631  17.623  0.00  0.00    +0.000 C 
ATOM     26  C   UNL     1       2.167   7.729  18.477  0.00  0.00    +0.000 C 
ENDBRANCH  24  26
ENDBRANCH  23  24
BRANCH  23  27
ATOM     27  C   UNL     1       2.951   4.805  20.854  0.00  0.00    +0.000 C 
BRANCH  27  28
ATOM     28  C   UNL     1       2.000   3.728  21.410  0.00  0.00    +0.000 C 
ATOM     29  C   UNL     1       2.643   2.356  21.550  0.00  0.00    +0.000 C 
ENDBRANCH  27  28
ENDBRANCH  23  27
ENDBRANCH  22  23
ENDBRANCH  21  22
ENDBRANCH  20  21
ENDBRANCH  19  20
ENDBRANCH  18  19
ENDBRANCH   1  18
TORSDOF 12
ENDMDL
MODEL 3
REMARK VINA RESULT:      -7.0      1.293      2.787
REMARK  Name = 
REMARK  14 active torsions:
REMARK  status: ('A' for Active; 'I' for Inactive)
REMARK    1  A    between atoms: C_1  and  C_2
REMARK    2  A    between atoms: C_2  and  C_3
REMARK    3  A    between atoms: C_3  and  N_4
REMARK    4  A    between atoms: N_4  and  C_5
REMARK    5  A    between atoms: N_4  and  C_8
REMARK    6  A    between atoms: C_5  and  C_6
REMARK    7  A    between atoms: C_6  and  C_7
REMARK    8  A    between atoms: C_8  and  C_9
REMARK    9  A    between atoms: C_9  and  C_10
REMARK   10  A    between atoms: C_10  and  C_11
REMARK   11  A    between atoms: C_11  and  O_12
REMARK   12  A    between atoms: O_12  and  C_13
REMARK   13  A    between atoms: C_16  and  C_17
REMARK   14  A    between atoms: C_18  and  C_19
REMARK                            x       y       z     vdW  Elec       q    Type
REMARK                         _______ _______ _______ _____ _____    ______ ____
ROOT
ATOM      1  C   UNL     1       5.832   5.346  18.300  0.00  0.00    +0.000 A 
ATOM      2  C   UNL     1       7.078   5.480  18.917  0.00  0.00    +0.000 A 
ATOM      3  C   UNL     1       7.894   6.592  18.663  0.00  0.00    +0.000 A 
ATOM      4  C   UNL     1       7.486   7.596  17.781  0.00  0.00    +0.000 A 
ATOM      5  C   UNL     1       6.222   7.468  17.181  0.00  0.00    +0.000 A 
ATOM      6  C   UNL     1       5.409   6.350  17.429  0.00  0.00    +0.000 A 
ENDROOT
BRANCH   4   7
ATOM      7  C   UNL     1       8.389   8.742  17.521  0.00  0.00    +0.000 C 
ATOM      8  C   UNL     1       8.297   9.872  18.237  0.00  0.00    +0.000 C 
BRANCH   8   9
ATOM      9  C   UNL     1       9.078  11.046  18.066  0.00  0.00    +0.000 A 
ATOM     10  N   UNL     1      10.367  10.983  17.763  0.00  0.00    +0.000 NA
ATOM     11  C   UNL     1      10.805  12.273  17.718  0.00  0.00    +0.000 A 
ATOM     12  C   UNL     1      12.081  12.790  17.467  0.00  0.00    +0.000 A 
ATOM     13  C   UNL     1      12.251  14.179  17.505  0.00  0.00    +0.000 A 
ATOM     14  C   UNL     1      11.169  15.025  17.776  0.00  0.00    +0.000 A 
ATOM     15  C   UNL     1       9.879  14.517  18.019  0.00  0.00    +0.000 A 
ATOM     16  C   UNL     1       9.754  13.130  17.983  0.00  0.00    +0.000 A 
ATOM     17  O   UNL     1       8.639  12.360  18.202  0.00  0.00    +0.000 OA
ENDBRANCH   8   9
ENDBRANCH   4   7
BRANCH   1  18
ATOM     18  O   UNL     1       4.964   4.295  18.470  0.00  0.00    +0.000 OA
BRANCH  18  19
ATOM     19  C   UNL     1       4.730   3.494  17.307  0.00  0.00    +0.000 C 
BRANCH  19  20
ATOM     20  C   UNL     1       3.240   3.235  17.101  0.00  0.00    +0.000 C 
BRANCH  20  21
ATOM     21  C   UNL     1       2.324   4.328  17.659  0.00  0.00    +0.000 C 
BRANCH  21  22
ATOM     22  C   UNL     1       1.392   3.878  18.800  0.00  0.00    +0.000 C 
BRANCH  22  23
ATOM     23  N   UNL     1       1.440   4.691  20.042  0.00  0.00    +0.000 NA
BRANCH  23  24
ATOM     24  C   UNL     1       1.745   3.809  21.198  0.00  0.00    +0.000 C 
BRANCH  24  26
ATOM     25  C   UNL     1       3.849   2.395  20.850  0.00  0.00    +0.000 C 
ATOM     26  C   UNL     1       2.330   2.418  20.904  0.00  0.00    +0.000 C 
ENDBRANCH  24  26
ENDBRANCH  23  24
BRANCH  23  27
ATOM     27  C   UNL     1       2.462   5.758  19.918  0.00  0.00    +0.000 C 
BRANCH  27  28
ATOM     28  C   UNL     1       1.942   7.209  19.912  0.00  0.00    +0.000 C 
ATOM     29  C   UNL     1       2.383   8.012  18.697  0.00  0.00    +0.000 C 
ENDBRANCH  27  28
ENDBRANCH  23  27
ENDBRANCH  22  23
ENDBRANCH  21  22
ENDBRANCH  20  21
ENDBRANCH  19  20
ENDBRANCH  18  19
ENDBRANCH   1  18
TORSDOF 12
ENDMDL
MODEL 4
REMARK VINA RESULT:      -6.9      1.385      2.125
REMARK  Name = 
REMARK  14 active torsions:
REMARK  status: ('A' for Active; 'I' for Inactive)
REMARK    1  A    between atoms: C_1  and  C_2
REMARK    2  A    between atoms: C_2  and  C_3
REMARK    3  A    between atoms: C_3  and  N_4
REMARK    4  A    between atoms: N_4  and  C_5
REMARK    5  A    between atoms: N_4  and  C_8
REMARK    6  A    between atoms: C_5  and  C_6
REMARK    7  A    between atoms: C_6  and  C_7
REMARK    8  A    between atoms: C_8  and  C_9
REMARK    9  A    between atoms: C_9  and  C_10
REMARK   10  A    between atoms: C_10  and  C_11
REMARK   11  A    between atoms: C_11  and  O_12
REMARK   12  A    between atoms: O_12  and  C_13
REMARK   13  A    between atoms: C_16  and  C_17
REMARK   14  A    between atoms: C_18  and  C_19
REMARK                            x       y       z     vdW  Elec       q    Type
REMARK                         _______ _______ _______ _____ _____    ______ ____
ROOT
ATOM      1  C   UNL     1       6.197   5.069  18.235  0.00  0.00    +0.000 A 
ATOM      2  C   UNL     1       5.709   5.957  17.275  0.00  0.00    +0.000 A 
ATOM      3  C   UNL     1       6.318   7.203  17.066  0.00  0.00    +0.000 A 
ATOM      4  C   UNL     1       7.430   7.593  17.817  0.00  0.00    +0.000 A 
ATOM      5  C   UNL     1       7.932   6.686  18.765  0.00  0.00    +0.000 A 
ATOM      6  C   UNL     1       7.315   5.442  18.979  0.00  0.00    +0.000 A 
ENDROOT
BRANCH   4   7
ATOM      7  C   UNL     1       8.030   8.927  17.583  0.00  0.00    +0.000 C 
ATOM      8  C   UNL     1       8.786   9.521  18.517  0.00  0.00    +0.000 C 
BRANCH   8   9
ATOM      9  C   UNL     1       9.388  10.804  18.427  0.00  0.00    +0.000 A 
ATOM     10  N   UNL     1      10.460  11.015  17.676  0.00  0.00    +0.000 NA
ATOM     11  C   UNL     1      10.791  12.326  17.855  0.00  0.00    +0.000 A 
ATOM     12  C   UNL     1      11.847  13.077  17.324  0.00  0.00    +0.000 A 
ATOM     13  C   UNL     1      11.958  14.420  17.702  0.00  0.00    +0.000 A 
ATOM     14  C   UNL     1      11.030  14.996  18.578  0.00  0.00    +0.000 A 
ATOM     15  C   UNL     1       9.959  14.254  19.110  0.00  0.00    +0.000 A 
ATOM     16  C   UNL     1       9.890  12.919  18.719  0.00  0.00    +0.000 A 
ATOM     17  O   UNL     1       8.981  11.960  19.089  0.00  0.00    +0.000 OA
ENDBRANCH   8   9
ENDBRANCH   4   7
BRANCH   1  18
ATOM     18  O   UNL     1       5.668   3.834  18.524  0.00  0.00    +0.000 OA
BRANCH  18  19
ATOM     19  C   UNL     1       5.218   3.658  19.871  0.00  0.00    +0.000 C 
BRANCH  19  20
ATOM     20  C   UNL     1       4.430   2.359  20.029  0.00  0.00    +0.000 C 
BRANCH  20  21
ATOM     21  C   UNL     1       3.111   2.508  20.792  0.00  0.00    +0.000 C 
BRANCH  21  22
ATOM     22  C   UNL     1       2.645   3.960  21.009  0.00  0.00    +0.000 C 
BRANCH  22  23
ATOM     23  N   UNL     1       1.333   4.322  20.412  0.00  0.00    +0.000 NA
BRANCH  23  24
ATOM     24  C   UNL     1       1.345   5.759  20.032  0.00  0.00    +0.000 C 
BRANCH  24  26
ATOM     25  C   UNL     1       2.620   7.414  18.556  0.00  0.00    +0.000 C 
ATOM     26  C   UNL     1       2.699   6.399  19.683  0.00  0.00    +0.000 C 
ENDBRANCH  24  26
ENDBRANCH  23  24
BRANCH  23  27
ATOM     27  C   UNL     1       1.057   3.474  19.227  0.00  0.00    +0.000 C 
BRANCH  27  28
ATOM     28  C   UNL     1       1.390   4.085  17.853  0.00  0.00    +0.000 C 
ATOM     29  C   UNL     1       2.524   3.378  17.126  0.00  0.00    +0.000 C 
ENDBRANCH  27  28
ENDBRANCH  23  27
ENDBRANCH  22  23
ENDBRANCH  21  22
ENDBRANCH  20  21
ENDBRANCH  19  20
ENDBRANCH  18  19
ENDBRANCH   1  18
TORSDOF 12
ENDMDL
MODEL 5
REMARK VINA RESULT:      -6.8      1.199      2.955
REMARK  Name = 
REMARK  14 active torsions:
REMARK  status: ('A' for Active; 'I' for Inactive)
REMARK    1  A    between atoms: C_1  and  C_2
REMARK    2  A    between atoms: C_2  and  C_3
REMARK    3  A    between atoms: C_3  and  N_4
REMARK    4  A    between atoms: N_4  and  C_5
REMARK    5  A    between atoms: N_4  and  C_8
REMARK    6  A    between atoms: C_5  and  C_6
REMARK    7  A    between atoms: C_6  and  C_7
REMARK    8  A    between atoms: C_8  and  C_9
REMARK    9  A    between atoms: C_9  and  C_10
REMARK   10  A    between atoms: C_10  and  C_11
REMARK   11  A    between atoms: C_11  and  O_12
REMARK   12  A    between atoms: O_12  and  C_13
REMARK   13  A    between atoms: C_16  and  C_17
REMARK   14  A    between atoms: C_18  and  C_19
REMARK                            x       y       z     vdW  Elec       q    Type
REMARK                         _______ _______ _______ _____ _____    ______ ____
ROOT
ATOM      1  C   UNL     1       5.976   4.472  17.229  0.00  0.00    +0.000 A 
ATOM      2  C   UNL     1       6.392   4.651  18.550  0.00  0.00    +0.000 A 
ATOM      3  C   UNL     1       7.162   5.763  18.921  0.00  0.00    +0.000 A 
ATOM      4  C   UNL     1       7.540   6.722  17.979  0.00  0.00    +0.000 A 
ATOM      5  C   UNL     1       7.099   6.550  16.656  0.00  0.00    +0.000 A 
ATOM      6  C   UNL     1       6.336   5.432  16.283  0.00  0.00    +0.000 A 
ENDROOT
BRANCH   4   7
ATOM      7  C   UNL     1       8.375   7.869  18.407  0.00  0.00    +0.000 C 
ATOM      8  C   UNL     1       8.078   9.121  18.030  0.00  0.00    +0.000 C 
BRANCH   8   9
ATOM      9  C   UNL     1       8.812  10.294  18.345  0.00  0.00    +0.000 A 
ATOM     10  N   UNL     1       9.673  10.323  19.353  0.00  0.00    +0.000 NA
ATOM     11  C   UNL     1      10.158  11.597  19.396  0.00  0.00    +0.000 A 
ATOM     12  C   UNL     1      11.075  12.190  20.272  0.00  0.00    +0.000 A 
ATOM     13  C   UNL     1      11.379  13.545  20.092  0.00  0.00    +0.000 A 
ATOM     14  C   UNL     1      10.789  14.279  19.056  0.00  0.00    +0.000 A 
ATOM     15  C   UNL     1       9.874  13.691  18.164  0.00  0.00    +0.000 A 
ATOM     16  C   UNL     1       9.589  12.345  18.383  0.00  0.00    +0.000 A 
ATOM     17  O   UNL     1       8.730  11.524  17.696  0.00  0.00    +0.000 OA
ENDBRANCH   8   9
ENDBRANCH   4   7
BRANCH   1  18
ATOM     18  O   UNL     1       5.232   3.417  16.761  0.00  0.00    +0.000 OA
BRANCH  18  19
ATOM     19  C   UNL     1       4.255   2.901  17.671  0.00  0.00    +0.000 C 
BRANCH  19  20
ATOM     20  C   UNL     1       2.868   3.470  17.381  0.00  0.00    +0.000 C 
BRANCH  20  21
ATOM     21  C   UNL     1       2.718   4.961  17.697  0.00  0.00    +0.000 C 
BRANCH  21  22
ATOM     22  C   UNL     1       1.468   5.329  18.518  0.00  0.00    +0.000 C 
BRANCH  22  23
ATOM     23  N   UNL     1       1.716   5.893  19.871  0.00  0.00    +0.000 NA
BRANCH  23  24
ATOM     24  C   UNL     1       2.491   4.915  20.678  0.00  0.00    +0.000 C 
BRANCH  24  26
ATOM     25  C   UNL     1       2.634   2.465  21.401  0.00  0.00    +0.000 C 
ATOM     26  C   UNL     1       1.747   3.687  21.226  0.00  0.00    +0.000 C 
ENDBRANCH  24  26
ENDBRANCH  23  24
BRANCH  23  27
ATOM     27  C   UNL     1       2.451   7.177  19.763  0.00  0.00    +0.000 C 
BRANCH  27  28
ATOM     28  C   UNL     1       1.706   8.338  19.078  0.00  0.00    +0.000 C 
ATOM     29  C   UNL     1       2.301   8.741  17.737  0.00  0.00    +0.000 C 
ENDBRANCH  27  28
ENDBRANCH  23  27
ENDBRANCH  22  23
ENDBRANCH  21  22
ENDBRANCH  20  21
ENDBRANCH  19  20
ENDBRANCH  18  19
ENDBRANCH   1  18
TORSDOF 12
ENDMDL
MODEL 6
REMARK VINA RESULT:      -6.8      1.364      1.900
REMARK  Name = 
REMARK  14 active torsions:
REMARK  status: ('A' for Active; 'I' for Inactive)
REMARK    1  A    between atoms: C_1  and  C_2
REMARK    2  A    between atoms: C_2  and  C_3
REMARK    3  A    between atoms: C_3  and  N_4
REMARK    4  A    between atoms: N_4  and  C_5
REMARK    5  A    between atoms: N_4  and  C_8
REMARK    6  A    between atoms: C_5  and  C_6
REMARK    7  A    between atoms: C_6  and  C_7
REMARK    8  A    between atoms: C_8  and  C_9
REMARK    9  A    between atoms: C_9  and  C_10
REMARK   10  A    between atoms: C_10  and  C_11
REMARK   11  A    between atoms: C_11  and  O_12
REMARK   12  A    between atoms: O_12  and  C_13
REMARK   13  A    between atoms: C_16  and  C_17
REMARK   14  A    between atoms: C_18  and  C_19
REMARK                            x       y       z     vdW  Elec       q    Type
REMARK                         _______ _______ _______ _____ _____    ______ ____
ROOT
ATOM      1  C   UNL     1       6.188   4.753  16.528  0.00  0.00    +0.000 A 
ATOM      2  C   UNL     1       5.636   5.934  16.029  0.00  0.00    +0.000 A 
ATOM      3  C   UNL     1       6.030   7.184  16.529  0.00  0.00    +0.000 A 
ATOM      4  C   UNL     1       6.983   7.283  17.546  0.00  0.00    +0.000 A 
ATOM      5  C   UNL     1       7.553   6.092  18.027  0.00  0.00    +0.000 A 
ATOM      6  C   UNL     1       7.151   4.841  17.532  0.00  0.00    +0.000 A 
ENDROOT
BRANCH   4   7
ATOM      7  C   UNL     1       7.353   8.621  18.063  0.00  0.00    +0.000 C 
ATOM      8  C   UNL     1       8.621   9.056  18.016  0.00  0.00    +0.000 C 
BRANCH   8   9
ATOM      9  C   UNL     1       9.106  10.297  18.505  0.00  0.00    +0.000 A 
ATOM     10  N   UNL     1       9.382  10.476  19.789  0.00  0.00    +0.000 NA
ATOM     11  C   UNL     1       9.779  11.775  19.910  0.00  0.00    +0.000 A 
ATOM     12  C   UNL     1      10.162  12.506  21.041  0.00  0.00    +0.000 A 
ATOM     13  C   UNL     1      10.505  13.852  20.873  0.00  0.00    +0.000 A 
ATOM     14  C   UNL     1      10.475  14.445  19.605  0.00  0.00    +0.000 A 
ATOM     15  C   UNL     1      10.101  13.718  18.460  0.00  0.00    +0.000 A 
ATOM     16  C   UNL     1       9.756  12.385  18.670  0.00  0.00    +0.000 A 
ATOM     17  O   UNL     1       9.335  11.450  17.758  0.00  0.00    +0.000 OA
ENDBRANCH   8   9
ENDBRANCH   4   7
BRANCH   1  18
ATOM     18  O   UNL     1       5.865   3.482  16.116  0.00  0.00    +0.000 OA
BRANCH  18  19
ATOM     19  C   UNL     1       4.475   3.149  16.184  0.00  0.00    +0.000 C 
BRANCH  19  20
ATOM     20  C   UNL     1       4.075   2.714  17.592  0.00  0.00    +0.000 C 
BRANCH  20  21
ATOM     21  C   UNL     1       2.693   2.062  17.684  0.00  0.00    +0.000 C 
BRANCH  21  22
ATOM     22  C   UNL     1       1.552   3.009  18.101  0.00  0.00    +0.000 C 
BRANCH  22  23
ATOM     23  N   UNL     1       1.872   3.986  19.174  0.00  0.00    +0.000 NA
BRANCH  23  24
ATOM     24  C   UNL     1       1.892   5.357  18.603  0.00  0.00    +0.000 C 
BRANCH  24  26
ATOM     25  C   UNL     1       4.252   5.486  19.582  0.00  0.00    +0.000 C 
ATOM     26  C   UNL     1       3.146   6.215  18.839  0.00  0.00    +0.000 C 
ENDBRANCH  24  26
ENDBRANCH  23  24
BRANCH  23  27
ATOM     27  C   UNL     1       0.873   3.893  20.267  0.00  0.00    +0.000 C 
BRANCH  27  28
ATOM     28  C   UNL     1       1.187   2.898  21.400  0.00  0.00    +0.000 C 
ATOM     29  C   UNL     1       2.676   2.675  21.624  0.00  0.00    +0.000 C 
ENDBRANCH  27  28
ENDBRANCH  23  27
ENDBRANCH  22  23
ENDBRANCH  21  22
ENDBRANCH  20  21
ENDBRANCH  19  20
ENDBRANCH  18  19
ENDBRANCH   1  18
TORSDOF 12
ENDMDL
MODEL 7
REMARK VINA RESULT:      -6.8      1.471      2.715
REMARK  Name = 
REMARK  14 active torsions:
REMARK  status: ('A' for Active; 'I' for Inactive)
REMARK    1  A    between atoms: C_1  and  C_2
REMARK    2  A    between atoms: C_2  and  C_3
REMARK    3  A    between atoms: C_3  and  N_4
REMARK    4  A    between atoms: N_4  and  C_5
REMARK    5  A    between atoms: N_4  and  C_8
REMARK    6  A    between atoms: C_5  and  C_6
REMARK    7  A    between atoms: C_6  and  C_7
REMARK    8  A    between atoms: C_8  and  C_9
REMARK    9  A    between atoms: C_9  and  C_10
REMARK   10  A    between atoms: C_10  and  C_11
REMARK   11  A    between atoms: C_11  and  O_12
REMARK   12  A    between atoms: O_12  and  C_13
REMARK   13  A    between atoms: C_16  and  C_17
REMARK   14  A    between atoms: C_18  and  C_19
REMARK                            x       y       z     vdW  Elec       q    Type
REMARK                         _______ _______ _______ _____ _____    ______ ____
ROOT
ATOM      1  C   UNL     1       7.245   5.584  17.691  0.00  0.00    +0.000 A 
ATOM      2  C   UNL     1       7.052   6.599  16.752  0.00  0.00    +0.000 A 
ATOM      3  C   UNL     1       7.512   7.902  16.992  0.00  0.00    +0.000 A 
ATOM      4  C   UNL     1       8.173   8.224  18.179  0.00  0.00    +0.000 A 
ATOM      5  C   UNL     1       8.386   7.193  19.110  0.00  0.00    +0.000 A 
ATOM      6  C   UNL     1       7.917   5.890  18.873  0.00  0.00    +0.000 A 
ENDROOT
BRANCH   4   7
ATOM      7  C   UNL     1       8.621   9.618  18.404  0.00  0.00    +0.000 C 
ATOM      8  C   UNL     1       9.245   9.971  19.538  0.00  0.00    +0.000 C 
BRANCH   8   9
ATOM      9  C   UNL     1       9.693  11.272  19.885  0.00  0.00    +0.000 A 
ATOM     10  N   UNL     1       9.224  11.906  20.951  0.00  0.00    +0.000 NA
ATOM     11  C   UNL     1       9.829  13.127  20.959  0.00  0.00    +0.000 A 
ATOM     12  C   UNL     1       9.687  14.205  21.841  0.00  0.00    +0.000 A 
ATOM     13  C   UNL     1      10.429  15.365  21.591  0.00  0.00    +0.000 A 
ATOM     14  C   UNL     1      11.297  15.437  20.495  0.00  0.00    +0.000 A 
ATOM     15  C   UNL     1      11.456  14.356  19.608  0.00  0.00    +0.000 A 
ATOM     16  C   UNL     1      10.692  13.225  19.884  0.00  0.00    +0.000 A 
ATOM     17  O   UNL     1      10.622  12.043  19.191  0.00  0.00    +0.000 OA
ENDBRANCH   8   9
ENDBRANCH   4   7
BRANCH   1  18
ATOM     18  O   UNL     1       6.826   4.282  17.559  0.00  0.00    +0.000 OA
BRANCH  18  19
ATOM     19  C   UNL     1       5.458   4.039  17.901  0.00  0.00    +0.000 C 
BRANCH  19  20
ATOM     20  C   UNL     1       4.557   4.095  16.669  0.00  0.00    +0.000 C 
BRANCH  20  21
ATOM     21  C   UNL     1       3.161   3.503  16.878  0.00  0.00    +0.000 C 
BRANCH  21  22
ATOM     22  C   UNL     1       2.717   3.384  18.348  0.00  0.00    +0.000 C 
BRANCH  22  23
ATOM     23  N   UNL     1       1.797   4.442  18.841  0.00  0.00    +0.000 NA
BRANCH  23  24
ATOM     24  C   UNL     1       1.009   3.915  19.985  0.00  0.00    +0.000 C 
BRANCH  24  26
ATOM     25  C   UNL     1       2.437   2.642  21.683  0.00  0.00    +0.000 C 
ATOM     26  C   UNL     1       1.670   3.916  21.373  0.00  0.00    +0.000 C 
ENDBRANCH  24  26
ENDBRANCH  23  24
BRANCH  23  27
ATOM     27  C   UNL     1       2.567   5.642  19.248  0.00  0.00    +0.000 C 
BRANCH  27  28
ATOM     28  C   UNL     1       2.307   6.930  18.443  0.00  0.00    +0.000 C 
ATOM     29  C   UNL     1       3.541   7.468  17.734  0.00  0.00    +0.000 C 
ENDBRANCH  27  28
ENDBRANCH  23  27
ENDBRANCH  22  23
ENDBRANCH  21  22
ENDBRANCH  20  21
ENDBRANCH  19  20
ENDBRANCH  18  19
ENDBRANCH   1  18
TORSDOF 12
ENDMDL
MODEL 8
REMARK VINA RESULT:      -6.8      1.763      3.027
REMARK  Name = 
REMARK  14 active torsions:
REMARK  status: ('A' for Active; 'I' for Inactive)
REMARK    1  A    between atoms: C_1  and  C_2
REMARK    2  A    between atoms: C_2  and  C_3
REMARK    3  A    between atoms: C_3  and  N_4
REMARK    4  A    between atoms: N_4  and  C_5
REMARK    5  A    between atoms: N_4  and  C_8
REMARK    6  A    between atoms: C_5  and  C_6
REMARK    7  A    between atoms: C_6  and  C_7
REMARK    8  A    between atoms: C_8  and  C_9
REMARK    9  A    between atoms: C_9  and  C_10
REMARK   10  A    between atoms: C_10  and  C_11
REMARK   11  A    between atoms: C_11  and  O_12
REMARK   12  A    between atoms: O_12  and  C_13
REMARK   13  A    between atoms: C_16  and  C_17
REMARK   14  A    between atoms: C_18  and  C_19
REMARK                            x       y       z     vdW  Elec       q    Type
REMARK                         _______ _______ _______ _____ _____    ______ ____
ROOT
ATOM      1  C   UNL     1       5.145   4.800  16.838  0.00  0.00    +0.000 A 
ATOM      2  C   UNL     1       6.056   4.489  17.849  0.00  0.00    +0.000 A 
ATOM      3  C   UNL     1       7.019   5.420  18.265  0.00  0.00    +0.000 A 
ATOM      4  C   UNL     1       7.098   6.684  17.676  0.00  0.00    +0.000 A 
ATOM      5  C   UNL     1       6.163   7.001  16.676  0.00  0.00    +0.000 A 
ATOM      6  C   UNL     1       5.205   6.065  16.254  0.00  0.00    +0.000 A 
ENDROOT
BRANCH   4   7
ATOM      7  C   UNL     1       8.145   7.630  18.128  0.00  0.00    +0.000 C 
ATOM      8  C   UNL     1       7.993   8.954  17.983  0.00  0.00    +0.000 C 
BRANCH   8   9
ATOM      9  C   UNL     1       8.931   9.957  18.343  0.00  0.00    +0.000 A 
ATOM     10  N   UNL     1       9.044  10.383  19.594  0.00  0.00    +0.000 NA
ATOM     11  C   UNL     1       9.994  11.361  19.573  0.00  0.00    +0.000 A 
ATOM     12  C   UNL     1      10.491  12.166  20.605  0.00  0.00    +0.000 A 
ATOM     13  C   UNL     1      11.465  13.120  20.288  0.00  0.00    +0.000 A 
ATOM     14  C   UNL     1      11.935  13.254  18.976  0.00  0.00    +0.000 A 
ATOM     15  C   UNL     1      11.450  12.443  17.933  0.00  0.00    +0.000 A 
ATOM     16  C   UNL     1      10.474  11.515  18.286  0.00  0.00    +0.000 A 
ATOM     17  O   UNL     1       9.809  10.618  17.488  0.00  0.00    +0.000 OA
ENDBRANCH   8   9
ENDBRANCH   4   7
BRANCH   1  18
ATOM     18  O   UNL     1       4.174   3.959  16.351  0.00  0.00    +0.000 OA
BRANCH  18  19
ATOM     19  C   UNL     1       3.519   3.144  17.327  0.00  0.00    +0.000 C 
BRANCH  19  20
ATOM     20  C   UNL     1       2.102   3.639  17.607  0.00  0.00    +0.000 C 
BRANCH  20  21
ATOM     21  C   UNL     1       1.280   2.724  18.519  0.00  0.00    +0.000 C 
BRANCH  21  22
ATOM     22  C   UNL     1       0.570   3.435  19.686  0.00  0.00    +0.000 C 
BRANCH  22  23
ATOM     23  N   UNL     1       1.333   3.526  20.958  0.00  0.00    +0.000 NA
BRANCH  23  24
ATOM     24  C   UNL     1       2.312   2.411  21.026  0.00  0.00    +0.000 C 
BRANCH  24  26
ATOM     25  C   UNL     1       4.633   1.693  20.225  0.00  0.00    +0.000 C 
ATOM     26  C   UNL     1       3.806   2.759  20.923  0.00  0.00    +0.000 C 
ENDBRANCH  24  26
ENDBRANCH  23  24
BRANCH  23  27
ATOM     27  C   UNL     1       2.027   4.834  21.047  0.00  0.00    +0.000 C 
BRANCH  27  28
ATOM     28  C   UNL     1       1.339   6.024  20.351  0.00  0.00    +0.000 C 
ATOM     29  C   UNL     1       1.703   7.376  20.948  0.00  0.00    +0.000 C 
ENDBRANCH  27  28
ENDBRANCH  23  27
ENDBRANCH  22  23
ENDBRANCH  21  22
ENDBRANCH  20  21
ENDBRANCH  19  20
ENDBRANCH  18  19
ENDBRANCH   1  18
TORSDOF 12
ENDMDL
MODEL 9
REMARK VINA RESULT:      -6.7      1.504      2.675
REMARK  Name = 
REMARK  14 active torsions:
REMARK  status: ('A' for Active; 'I' for Inactive)
REMARK    1  A    between atoms: C_1  and  C_2
REMARK    2  A    between atoms: C_2  and  C_3
REMARK    3  A    between atoms: C_3  and  N_4
REMARK    4  A    between atoms: N_4  and  C_5
REMARK    5  A    between atoms: N_4  and  C_8
REMARK    6  A    between atoms: C_5  and  C_6
REMARK    7  A    between atoms: C_6  and  C_7
REMARK    8  A    between atoms: C_8  and  C_9
REMARK    9  A    between atoms: C_9  and  C_10
REMARK   10  A    between atoms: C_10  and  C_11
REMARK   11  A    between atoms: C_11  and  O_12
REMARK   12  A    between atoms: O_12  and  C_13
REMARK   13  A    between atoms: C_16  and  C_17
REMARK   14  A    between atoms: C_18  and  C_19
REMARK                            x       y       z     vdW  Elec       q    Type
REMARK                         _______ _______ _______ _____ _____    ______ ____
ROOT
ATOM      1  C   UNL     1       6.963   5.432  17.427  0.00  0.00    +0.000 A 
ATOM      2  C   UNL     1       7.879   5.770  18.425  0.00  0.00    +0.000 A 
ATOM      3  C   UNL     1       8.269   7.101  18.628  0.00  0.00    +0.000 A 
ATOM      4  C   UNL     1       7.755   8.129  17.833  0.00  0.00    +0.000 A 
ATOM      5  C   UNL     1       6.816   7.787  16.847  0.00  0.00    +0.000 A 
ATOM      6  C   UNL     1       6.433   6.452  16.638  0.00  0.00    +0.000 A 
ENDROOT
BRANCH   4   7
ATOM      7  C   UNL     1       8.211   9.520  18.064  0.00  0.00    +0.000 C 
ATOM      8  C   UNL     1       9.182   9.793  18.948  0.00  0.00    +0.000 C 
BRANCH   8   9
ATOM      9  C   UNL     1       9.683  11.079  19.281  0.00  0.00    +0.000 A 
ATOM     10  N   UNL     1      10.766  11.574  18.697  0.00  0.00    +0.000 NA
ATOM     11  C   UNL     1      10.983  12.789  19.277  0.00  0.00    +0.000 A 
ATOM     12  C   UNL     1      11.998  13.729  19.062  0.00  0.00    +0.000 A 
ATOM     13  C   UNL     1      11.986  14.901  19.827  0.00  0.00    +0.000 A 
ATOM     14  C   UNL     1      10.979  15.127  20.772  0.00  0.00    +0.000 A 
ATOM     15  C   UNL     1       9.948  14.194  20.990  0.00  0.00    +0.000 A 
ATOM     16  C   UNL     1      10.002  13.037  20.218  0.00  0.00    +0.000 A 
ATOM     17  O   UNL     1       9.157  11.955  20.228  0.00  0.00    +0.000 OA
ENDBRANCH   8   9
ENDBRANCH   4   7
BRANCH   1  18
ATOM     18  O   UNL     1       6.525   4.162  17.140  0.00  0.00    +0.000 OA
BRANCH  18  19
ATOM     19  C   UNL     1       5.110   4.018  16.987  0.00  0.00    +0.000 C 
BRANCH  19  20
ATOM     20  C   UNL     1       4.486   3.330  18.198  0.00  0.00    +0.000 C 
BRANCH  20  21
ATOM     21  C   UNL     1       4.487   4.174  19.476  0.00  0.00    +0.000 C 
BRANCH  21  22
ATOM     22  C   UNL     1       3.966   5.613  19.305  0.00  0.00    +0.000 C 
BRANCH  22  23
ATOM     23  N   UNL     1       2.513   5.815  19.543  0.00  0.00    +0.000 NA
BRANCH  23  24
ATOM     24  C   UNL     1       2.059   4.903  20.624  0.00  0.00    +0.000 C 
BRANCH  24  26
ATOM     25  C   UNL     1       0.828   3.271  19.085  0.00  0.00    +0.000 C 
ATOM     26  C   UNL     1       0.790   4.071  20.377  0.00  0.00    +0.000 C 
ENDBRANCH  24  26
ENDBRANCH  23  24
BRANCH  23  27
ATOM     27  C   UNL     1       2.244   7.228  19.907  0.00  0.00    +0.000 C 
BRANCH  27  28
ATOM     28  C   UNL     1       1.273   7.460  21.080  0.00  0.00    +0.000 C 
ATOM     29  C   UNL     1       1.155   8.919  21.497  0.00  0.00    +0.000 C 
ENDBRANCH  27  28
ENDBRANCH  23  27
ENDBRANCH  22  23
ENDBRANCH  21  22
ENDBRANCH  20  21
ENDBRANCH  19  20
ENDBRANCH  18  19
ENDBRANCH   1  18
TORSDOF 12
ENDMDL
