MODEL 1
REMARK VINA RESULT:      -8.6      0.000      0.000
REMARK  Name = 
REMARK  8 active torsions:
REMARK  status: ('A' for Active; 'I' for Inactive)
REMARK    1  A    between atoms: C_1  and  O_2
REMARK    2  A    between atoms: O_2  and  C_3
REMARK    3  A    between atoms: C_7  and  C_8
REMARK    4  A    between atoms: N_14  and  C_15
REMARK    5  A    between atoms: C_20  and  O_21
REMARK    6  A    between atoms: O_21  and  C_22
REMARK    7  A    between atoms: C_27  and  O_28
REMARK    8  A    between atoms: O_28  and  C_29
REMARK                            x       y       z     vdW  Elec       q    Type
REMARK                         _______ _______ _______ _____ _____    ______ ____
ROOT
ATOM      1  C   UNL     1       6.140   5.118  16.403  0.00  0.00    +0.000 A 
ATOM      2  C   UNL     1       5.191   4.113  16.650  0.00  0.00    +0.000 A 
ATOM      3  C   UNL     1       4.072   4.319  17.449  0.00  0.00    +0.000 A 
ATOM      4  N   UNL     1       3.247   3.288  17.686  0.00  0.00    +0.000 NA
ATOM      5  C   UNL     1       2.204   3.519  18.493  0.00  0.00    +0.000 A 
ATOM      6  C   UNL     1       1.298   2.370  18.820  0.00  0.00    +0.000 C 
ATOM      7  N   UNL     1       1.908   4.704  19.049  0.00  0.00    +0.000 NA
ATOM      8  C   UNL     1       2.705   5.755  18.785  0.00  0.00    +0.000 A 
ATOM      9  N   UNL     1       2.285   6.964  19.301  0.00  0.00    +0.000 N 
ATOM     10  C   UNL     1       2.476   8.280  18.666  0.00  0.00    +0.000 C 
ATOM     11  C   UNL     1       1.253   9.215  18.852  0.00  0.00    +0.000 C 
ATOM     12  N   UNL     1       0.909   9.266  20.276  0.00  0.00    +0.000 N 
ATOM     13  C   UNL     1       0.598   7.928  20.840  0.00  0.00    +0.000 C 
ATOM     14  C   UNL     1       1.820   6.997  20.696  0.00  0.00    +0.000 C 
ATOM     15  C   UNL     1       3.871   5.584  18.010  0.00  0.00    +0.000 A 
ATOM     16  C   UNL     1       4.851   6.578  17.788  0.00  0.00    +0.000 A 
ATOM     17  C   UNL     1       5.958   6.378  16.973  0.00  0.00    +0.000 A 
ENDROOT
BRANCH  12  18
ATOM     18  C   UNL     1       0.442  10.403  20.925  0.00  0.00    +0.000 A 
ATOM     19  C   UNL     1      -0.380  10.192  22.055  0.00  0.00    +0.000 A 
ATOM     20  C   UNL     1      -0.939  11.234  22.791  0.00  0.00    +0.000 A 
ATOM     21  C   UNL     1      -0.682  12.540  22.418  0.00  0.00    +0.000 A 
ATOM     22  C   UNL     1       0.159  12.796  21.336  0.00  0.00    +0.000 A 
ATOM     23  C   UNL     1       0.750  11.747  20.602  0.00  0.00    +0.000 A 
BRANCH  23  24
ATOM     24  O   UNL     1       1.580  12.004  19.530  0.00  0.00    +0.000 OA
ATOM     25  C   UNL     1       1.211  13.107  18.701  0.00  0.00    +0.000 C 
ENDBRANCH  23  24
ENDBRANCH  12  18
BRANCH   1  27
ATOM     26  C   UNL     1       6.888   4.642  14.210  0.00  0.00    +0.000 C 
ATOM     27  O   UNL     1       7.187   4.737  15.602  0.00  0.00    +0.000 OA
ENDBRANCH   1  27
BRANCH  17  28
ATOM     28  O   UNL     1       6.821   7.392  16.661  0.00  0.00    +0.000 OA
ATOM     29  C   UNL     1       7.764   7.758  17.662  0.00  0.00    +0.000 C 
ENDBRANCH  17  28
TORSDOF 4
ENDMDL
MODEL 2
REMARK VINA RESULT:      -8.5      1.289      1.396
REMARK  Name = 
REMARK  8 active torsions:
REMARK  status: ('A' for Active; 'I' for Inactive)
REMARK    1  A    between atoms: C_1  and  O_2
REMARK    2  A    between atoms: O_2  and  C_3
REMARK    3  A    between atoms: C_7  and  C_8
REMARK    4  A    between atoms: N_14  and  C_15
REMARK    5  A    between atoms: C_20  and  O_21
REMARK    6  A    between atoms: O_21  and  C_22
REMARK    7  A    between atoms: C_27  and  O_28
REMARK    8  A    between atoms: O_28  and  C_29
REMARK                            x       y       z     vdW  Elec       q    Type
REMARK                         _______ _______ _______ _____ _____    ______ ____
ROOT
ATOM      1  C   UNL     1       5.858   4.995  17.180  0.00  0.00    +0.000 A 
ATOM      2  C   UNL     1       4.943   4.127  17.797  0.00  0.00    +0.000 A 
ATOM      3  C   UNL     1       3.842   4.585  18.513  0.00  0.00    +0.000 A 
ATOM      4  N   UNL     1       3.051   3.692  19.124  0.00  0.00    +0.000 NA
ATOM      5  C   UNL     1       2.024   4.176  19.835  0.00  0.00    +0.000 A 
ATOM      6  C   UNL     1       1.158   3.203  20.576  0.00  0.00    +0.000 C 
ATOM      7  N   UNL     1       1.715   5.477  19.950  0.00  0.00    +0.000 NA
ATOM      8  C   UNL     1       2.477   6.379  19.307  0.00  0.00    +0.000 A 
ATOM      9  N   UNL     1       2.041   7.686  19.380  0.00  0.00    +0.000 N 
ATOM     10  C   UNL     1       2.179   8.698  18.318  0.00  0.00    +0.000 C 
ATOM     11  C   UNL     1       0.939   9.621  18.207  0.00  0.00    +0.000 C 
ATOM     12  N   UNL     1       0.634  10.164  19.535  0.00  0.00    +0.000 N 
ATOM     13  C   UNL     1       0.373   9.106  20.542  0.00  0.00    +0.000 C 
ATOM     14  C   UNL     1       1.613   8.201  20.691  0.00  0.00    +0.000 C 
ATOM     15  C   UNL     1       3.624   5.963  18.600  0.00  0.00    +0.000 A 
ATOM     16  C   UNL     1       4.572   6.830  18.010  0.00  0.00    +0.000 A 
ATOM     17  C   UNL     1       5.661   6.372  17.278  0.00  0.00    +0.000 A 
ENDROOT
BRANCH  12  18
ATOM     18  C   UNL     1       0.155  11.450  19.760  0.00  0.00    +0.000 A 
ATOM     19  C   UNL     1      -1.205  11.564  20.122  0.00  0.00    +0.000 A 
ATOM     20  C   UNL     1      -1.828  12.787  20.356  0.00  0.00    +0.000 A 
ATOM     21  C   UNL     1      -1.095  13.953  20.242  0.00  0.00    +0.000 A 
ATOM     22  C   UNL     1       0.262  13.887  19.929  0.00  0.00    +0.000 A 
ATOM     23  C   UNL     1       0.907  12.650  19.716  0.00  0.00    +0.000 A 
BRANCH  23  24
ATOM     24  O   UNL     1       2.249  12.589  19.405  0.00  0.00    +0.000 OA
ATOM     25  C   UNL     1       2.619  13.096  18.122  0.00  0.00    +0.000 C 
ENDBRANCH  23  24
ENDBRANCH  12  18
BRANCH   1  27
ATOM     26  C   UNL     1       6.620   3.984  15.182  0.00  0.00    +0.000 C 
ATOM     27  O   UNL     1       6.892   4.372  16.528  0.00  0.00    +0.000 OA
ENDBRANCH   1  27
BRANCH  17  28
ATOM     28  O   UNL     1       6.488   7.224  16.601  0.00  0.00    +0.000 OA
ATOM     29  C   UNL     1       7.511   7.859  17.360  0.00  0.00    +0.000 C 
ENDBRANCH  17  28
TORSDOF 4
ENDMDL
MODEL 3
REMARK VINA RESULT:      -8.5      1.477      1.749
REMARK  Name = 
REMARK  8 active torsions:
REMARK  status: ('A' for Active; 'I' for Inactive)
REMARK    1  A    between atoms: C_1  and  O_2
REMARK    2  A    between atoms: O_2  and  C_3
REMARK    3  A    between atoms: C_7  and  C_8
REMARK    4  A    between atoms: N_14  and  C_15
REMARK    5  A    between atoms: C_20  and  O_21
REMARK    6  A    between atoms: O_21  and  C_22
REMARK    7  A    between atoms: C_27  and  O_28
REMARK    8  A    between atoms: O_28  and  C_29
REMARK                            x       y       z     vdW  Elec       q    Type
REMARK                         _______ _______ _______ _____ _____    ______ ____
ROOT
ATOM      1  C   UNL     1       5.797   4.914  17.097  0.00  0.00    +0.000 A 
ATOM      2  C   UNL     1       4.864   4.049  17.693  0.00  0.00    +0.000 A 
ATOM      3  C   UNL     1       3.777   4.511  18.427  0.00  0.00    +0.000 A 
ATOM      4  N   UNL     1       2.968   3.619  19.016  0.00  0.00    +0.000 NA
ATOM      5  C   UNL     1       1.956   4.106  19.746  0.00  0.00    +0.000 A 
ATOM      6  C   UNL     1       1.071   3.131  20.462  0.00  0.00    +0.000 C 
ATOM      7  N   UNL     1       1.677   5.409  19.900  0.00  0.00    +0.000 NA
ATOM      8  C   UNL     1       2.457   6.312  19.280  0.00  0.00    +0.000 A 
ATOM      9  N   UNL     1       2.052   7.626  19.394  0.00  0.00    +0.000 N 
ATOM     10  C   UNL     1       2.210   8.666  18.361  0.00  0.00    +0.000 C 
ATOM     11  C   UNL     1       0.990   9.620  18.283  0.00  0.00    +0.000 C 
ATOM     12  N   UNL     1       0.704  10.131  19.627  0.00  0.00    +0.000 N 
ATOM     13  C   UNL     1       0.422   9.050  20.605  0.00  0.00    +0.000 C 
ATOM     14  C   UNL     1       1.642   8.112  20.721  0.00  0.00    +0.000 C 
ATOM     15  C   UNL     1       3.592   5.891  18.556  0.00  0.00    +0.000 A 
ATOM     16  C   UNL     1       4.557   6.753  17.986  0.00  0.00    +0.000 A 
ATOM     17  C   UNL     1       5.632   6.291  17.236  0.00  0.00    +0.000 A 
ENDROOT
BRANCH  12  18
ATOM     18  C   UNL     1       0.256  11.420  19.892  0.00  0.00    +0.000 A 
ATOM     19  C   UNL     1       1.187  12.303  20.484  0.00  0.00    +0.000 A 
ATOM     20  C   UNL     1       0.875  13.616  20.827  0.00  0.00    +0.000 A 
ATOM     21  C   UNL     1      -0.396  14.098  20.575  0.00  0.00    +0.000 A 
ATOM     22  C   UNL     1      -1.334  13.276  19.952  0.00  0.00    +0.000 A 
ATOM     23  C   UNL     1      -1.019  11.953  19.578  0.00  0.00    +0.000 A 
BRANCH  23  24
ATOM     24  O   UNL     1      -1.950  11.142  18.964  0.00  0.00    +0.000 OA
ATOM     25  C   UNL     1      -2.232  11.437  17.595  0.00  0.00    +0.000 C 
ENDBRANCH  23  24
ENDBRANCH  12  18
BRANCH   1  27
ATOM     26  C   UNL     1       6.595   4.101  15.024  0.00  0.00    +0.000 C 
ATOM     27  O   UNL     1       6.814   4.286  16.422  0.00  0.00    +0.000 OA
ENDBRANCH   1  27
BRANCH  17  28
ATOM     28  O   UNL     1       6.476   7.144  16.580  0.00  0.00    +0.000 OA
ATOM     29  C   UNL     1       7.515   7.735  17.353  0.00  0.00    +0.000 C 
ENDBRANCH  17  28
TORSDOF 4
ENDMDL
MODEL 4
REMARK VINA RESULT:      -8.4      0.951      1.764
REMARK  Name = 
REMARK  8 active torsions:
REMARK  status: ('A' for Active; 'I' for Inactive)
REMARK    1  A    between atoms: C_1  and  O_2
REMARK    2  A    between atoms: O_2  and  C_3
REMARK    3  A    between atoms: C_7  and  C_8
REMARK    4  A    between atoms: N_14  and  C_15
REMARK    5  A    between atoms: C_20  and  O_21
REMARK    6  A    between atoms: O_21  and  C_22
REMARK    7  A    between atoms: C_27  and  O_28
REMARK    8  A    between atoms: O_28  and  C_29
REMARK                            x       y       z     vdW  Elec       q    Type
REMARK                         _______ _______ _______ _____ _____    ______ ____
ROOT
ATOM      1  C   UNL     1       5.911   4.770  16.619  0.00  0.00    +0.000 A 
ATOM      2  C   UNL     1       4.898   3.898  17.051  0.00  0.00    +0.000 A 
ATOM      3  C   UNL     1       3.801   4.332  17.787  0.00  0.00    +0.000 A 
ATOM      4  N   UNL     1       2.910   3.426  18.215  0.00  0.00    +0.000 NA
ATOM      5  C   UNL     1       1.890   3.880  18.954  0.00  0.00    +0.000 A 
ATOM      6  C   UNL     1       0.911   2.880  19.494  0.00  0.00    +0.000 C 
ATOM      7  N   UNL     1       1.679   5.167  19.265  0.00  0.00    +0.000 NA
ATOM      8  C   UNL     1       2.543   6.090  18.807  0.00  0.00    +0.000 A 
ATOM      9  N   UNL     1       2.209   7.402  19.073  0.00  0.00    +0.000 N 
ATOM     10  C   UNL     1       2.483   8.553  18.194  0.00  0.00    +0.000 C 
ATOM     11  C   UNL     1       1.327   9.586  18.184  0.00  0.00    +0.000 C 
ATOM     12  N   UNL     1       0.997   9.938  19.569  0.00  0.00    +0.000 N 
ATOM     13  C   UNL     1       0.600   8.761  20.382  0.00  0.00    +0.000 C 
ATOM     14  C   UNL     1       1.755   7.740  20.431  0.00  0.00    +0.000 C 
ATOM     15  C   UNL     1       3.689   5.693  18.088  0.00  0.00    +0.000 A 
ATOM     16  C   UNL     1       4.732   6.556  17.683  0.00  0.00    +0.000 A 
ATOM     17  C   UNL     1       5.819   6.126  16.930  0.00  0.00    +0.000 A 
ENDROOT
BRANCH  12  18
ATOM     18  C   UNL     1       0.611  11.209  19.980  0.00  0.00    +0.000 A 
ATOM     19  C   UNL     1       0.458  12.181  18.966  0.00  0.00    +0.000 A 
ATOM     20  C   UNL     1       0.099  13.500  19.229  0.00  0.00    +0.000 A 
ATOM     21  C   UNL     1      -0.131  13.893  20.534  0.00  0.00    +0.000 A 
ATOM     22  C   UNL     1      -0.034  12.957  21.563  0.00  0.00    +0.000 A 
ATOM     23  C   UNL     1       0.304  11.612  21.303  0.00  0.00    +0.000 A 
BRANCH  23  24
ATOM     24  O   UNL     1       0.400  10.689  22.323  0.00  0.00    +0.000 OA
ATOM     25  C   UNL     1      -0.792  10.458  23.075  0.00  0.00    +0.000 C 
ENDBRANCH  23  24
ENDBRANCH  12  18
BRANCH   1  27
ATOM     26  C   UNL     1       6.708   4.054  14.510  0.00  0.00    +0.000 C 
ATOM     27  O   UNL     1       6.925   4.170  15.916  0.00  0.00    +0.000 OA
ENDBRANCH   1  27
BRANCH  17  28
ATOM     28  O   UNL     1       6.745   7.000  16.432  0.00  0.00    +0.000 OA
ATOM     29  C   UNL     1       7.523   7.718  17.384  0.00  0.00    +0.000 C 
ENDBRANCH  17  28
TORSDOF 4
ENDMDL
MODEL 5
REMARK VINA RESULT:      -7.3      2.832      4.263
REMARK  Name = 
REMARK  8 active torsions:
REMARK  status: ('A' for Active; 'I' for Inactive)
REMARK    1  A    between atoms: C_1  and  O_2
REMARK    2  A    between atoms: O_2  and  C_3
REMARK    3  A    between atoms: C_7  and  C_8
REMARK    4  A    between atoms: N_14  and  C_15
REMARK    5  A    between atoms: C_20  and  O_21
REMARK    6  A    between atoms: O_21  and  C_22
REMARK    7  A    between atoms: C_27  and  O_28
REMARK    8  A    between atoms: O_28  and  C_29
REMARK                            x       y       z     vdW  Elec       q    Type
REMARK                         _______ _______ _______ _____ _____    ______ ____
ROOT
ATOM      1  C   UNL     1       3.677   2.623  19.226  0.00  0.00    +0.000 A 
ATOM      2  C   UNL     1       4.769   3.336  18.705  0.00  0.00    +0.000 A 
ATOM      3  C   UNL     1       4.701   4.690  18.398  0.00  0.00    +0.000 A 
ATOM      4  N   UNL     1       5.770   5.282  17.846  0.00  0.00    +0.000 NA
ATOM      5  C   UNL     1       5.650   6.578  17.530  0.00  0.00    +0.000 A 
ATOM      6  C   UNL     1       6.810   7.250  16.858  0.00  0.00    +0.000 C 
ATOM      7  N   UNL     1       4.560   7.327  17.754  0.00  0.00    +0.000 NA
ATOM      8  C   UNL     1       3.497   6.754  18.346  0.00  0.00    +0.000 A 
ATOM      9  N   UNL     1       2.452   7.605  18.644  0.00  0.00    +0.000 N 
ATOM     10  C   UNL     1       1.562   7.494  19.813  0.00  0.00    +0.000 C 
ATOM     11  C   UNL     1       1.192   8.873  20.416  0.00  0.00    +0.000 C 
ATOM     12  N   UNL     1       0.690   9.738  19.343  0.00  0.00    +0.000 N 
ATOM     13  C   UNL     1       1.675   9.926  18.248  0.00  0.00    +0.000 C 
ATOM     14  C   UNL     1       2.024   8.563  17.613  0.00  0.00    +0.000 C 
ATOM     15  C   UNL     1       3.507   5.375  18.641  0.00  0.00    +0.000 A 
ATOM     16  C   UNL     1       2.402   4.642  19.129  0.00  0.00    +0.000 A 
ATOM     17  C   UNL     1       2.475   3.292  19.454  0.00  0.00    +0.000 A 
ENDROOT
BRANCH  12  18
ATOM     18  C   UNL     1      -0.332  10.666  19.504  0.00  0.00    +0.000 A 
ATOM     19  C   UNL     1      -0.269  11.482  20.656  0.00  0.00    +0.000 A 
ATOM     20  C   UNL     1      -1.234  12.439  20.961  0.00  0.00    +0.000 A 
ATOM     21  C   UNL     1      -2.305  12.618  20.105  0.00  0.00    +0.000 A 
ATOM     22  C   UNL     1      -2.385  11.866  18.934  0.00  0.00    +0.000 A 
ATOM     23  C   UNL     1      -1.399  10.913  18.604  0.00  0.00    +0.000 A 
BRANCH  23  24
ATOM     24  O   UNL     1      -1.483  10.169  17.446  0.00  0.00    +0.000 OA
ATOM     25  C   UNL     1      -2.508  10.551  16.528  0.00  0.00    +0.000 C 
ENDBRANCH  23  24
ENDBRANCH  12  18
BRANCH   1  27
ATOM     26  C   UNL     1       4.911   1.012  20.442  0.00  0.00    +0.000 C 
ATOM     27  O   UNL     1       3.916   1.292  19.458  0.00  0.00    +0.000 OA
ENDBRANCH   1  27
BRANCH  17  28
ATOM     28  O   UNL     1       1.436   2.634  20.052  0.00  0.00    +0.000 OA
ATOM     29  C   UNL     1       1.335   2.751  21.467  0.00  0.00    +0.000 C 
ENDBRANCH  17  28
TORSDOF 4
ENDMDL
MODEL 6
REMARK VINA RESULT:      -7.3      2.731      4.200
REMARK  Name = 
REMARK  8 active torsions:
REMARK  status: ('A' for Active; 'I' for Inactive)
REMARK    1  A    between atoms: C_1  and  O_2
REMARK    2  A    between atoms: O_2  and  C_3
REMARK    3  A    between atoms: C_7  and  C_8
REMARK    4  A    between atoms: N_14  and  C_15
REMARK    5  A    between atoms: C_20  and  O_21
REMARK    6  A    between atoms: O_21  and  C_22
REMARK    7  A    between atoms: C_27  and  O_28
REMARK    8  A    between atoms: O_28  and  C_29
REMARK                            x       y       z     vdW  Elec       q    Type
REMARK                         _______ _______ _______ _____ _____    ______ ____
ROOT
ATOM      1  C   UNL     1       3.974   2.664  19.451  0.00  0.00    +0.000 A 
ATOM      2  C   UNL     1       5.053   3.393  18.924  0.00  0.00    +0.000 A 
ATOM      3  C   UNL     1       4.946   4.732  18.563  0.00  0.00    +0.000 A 
ATOM      4  N   UNL     1       6.006   5.339  18.009  0.00  0.00    +0.000 NA
ATOM      5  C   UNL     1       5.849   6.617  17.640  0.00  0.00    +0.000 A 
ATOM      6  C   UNL     1       6.999   7.301  16.965  0.00  0.00    +0.000 C 
ATOM      7  N   UNL     1       4.730   7.336  17.814  0.00  0.00    +0.000 NA
ATOM      8  C   UNL     1       3.675   6.750  18.407  0.00  0.00    +0.000 A 
ATOM      9  N   UNL     1       2.596   7.575  18.652  0.00  0.00    +0.000 N 
ATOM     10  C   UNL     1       1.686   7.478  19.807  0.00  0.00    +0.000 C 
ATOM     11  C   UNL     1       1.258   8.866  20.348  0.00  0.00    +0.000 C 
ATOM     12  N   UNL     1       0.750   9.672  19.233  0.00  0.00    +0.000 N 
ATOM     13  C   UNL     1       1.749   9.851  18.151  0.00  0.00    +0.000 C 
ATOM     14  C   UNL     1       2.157   8.478  17.577  0.00  0.00    +0.000 C 
ATOM     15  C   UNL     1       3.725   5.384  18.756  0.00  0.00    +0.000 A 
ATOM     16  C   UNL     1       2.635   4.632  19.250  0.00  0.00    +0.000 A 
ATOM     17  C   UNL     1       2.747   3.300  19.629  0.00  0.00    +0.000 A 
ENDROOT
BRANCH  12  18
ATOM     18  C   UNL     1      -0.307  10.570  19.338  0.00  0.00    +0.000 A 
ATOM     19  C   UNL     1      -1.439  10.309  18.535  0.00  0.00    +0.000 A 
ATOM     20  C   UNL     1      -2.562  11.133  18.518  0.00  0.00    +0.000 A 
ATOM     21  C   UNL     1      -2.591  12.256  19.324  0.00  0.00    +0.000 A 
ATOM     22  C   UNL     1      -1.513  12.528  20.165  0.00  0.00    +0.000 A 
ATOM     23  C   UNL     1      -0.383  11.685  20.209  0.00  0.00    +0.000 A 
BRANCH  23  24
ATOM     24  O   UNL     1       0.682  11.959  21.041  0.00  0.00    +0.000 OA
ATOM     25  C   UNL     1       1.606  12.943  20.574  0.00  0.00    +0.000 C 
ENDBRANCH  23  24
ENDBRANCH  12  18
BRANCH   1  27
ATOM     26  C   UNL     1       5.137   1.142  20.839  0.00  0.00    +0.000 C 
ATOM     27  O   UNL     1       4.254   1.351  19.738  0.00  0.00    +0.000 OA
ENDBRANCH   1  27
BRANCH  17  28
ATOM     28  O   UNL     1       1.718   2.630  20.232  0.00  0.00    +0.000 OA
ATOM     29  C   UNL     1       1.589   2.791  21.640  0.00  0.00    +0.000 C 
ENDBRANCH  17  28
TORSDOF 4
ENDMDL
MODEL 7
REMARK VINA RESULT:      -6.9      1.487      2.200
REMARK  Name = 
REMARK  8 active torsions:
REMARK  status: ('A' for Active; 'I' for Inactive)
REMARK    1  A    between atoms: C_1  and  O_2
REMARK    2  A    between atoms: O_2  and  C_3
REMARK    3  A    between atoms: C_7  and  C_8
REMARK    4  A    between atoms: N_14  and  C_15
REMARK    5  A    between atoms: C_20  and  O_21
REMARK    6  A    between atoms: O_21  and  C_22
REMARK    7  A    between atoms: C_27  and  O_28
REMARK    8  A    between atoms: O_28  and  C_29
REMARK                            x       y       z     vdW  Elec       q    Type
REMARK                         _______ _______ _______ _____ _____    ______ ____
ROOT
ATOM      1  C   UNL     1       5.480   4.658  17.200  0.00  0.00    +0.000 A 
ATOM      2  C   UNL     1       4.679   3.863  18.036  0.00  0.00    +0.000 A 
ATOM      3  C   UNL     1       3.689   4.397  18.853  0.00  0.00    +0.000 A 
ATOM      4  N   UNL     1       3.010   3.576  19.668  0.00  0.00    +0.000 NA
ATOM      5  C   UNL     1       2.093   4.136  20.467  0.00  0.00    +0.000 A 
ATOM      6  C   UNL     1       1.360   3.249  21.429  0.00  0.00    +0.000 C 
ATOM      7  N   UNL     1       1.783   5.441  20.486  0.00  0.00    +0.000 NA
ATOM      8  C   UNL     1       2.428   6.267  19.644  0.00  0.00    +0.000 A 
ATOM      9  N   UNL     1       1.988   7.575  19.639  0.00  0.00    +0.000 N 
ATOM     10  C   UNL     1       1.952   8.465  18.466  0.00  0.00    +0.000 C 
ATOM     11  C   UNL     1       0.695   9.372  18.441  0.00  0.00    +0.000 C 
ATOM     12  N   UNL     1       0.581  10.056  19.733  0.00  0.00    +0.000 N 
ATOM     13  C   UNL     1       0.488   9.114  20.876  0.00  0.00    +0.000 C 
ATOM     14  C   UNL     1       1.751   8.230  20.936  0.00  0.00    +0.000 C 
ATOM     15  C   UNL     1       3.465   5.776  18.823  0.00  0.00    +0.000 A 
ATOM     16  C   UNL     1       4.302   6.573  18.009  0.00  0.00    +0.000 A 
ATOM     17  C   UNL     1       5.277   6.037  17.177  0.00  0.00    +0.000 A 
ENDROOT
BRANCH  12  18
ATOM     18  C   UNL     1       0.121  11.359  19.887  0.00  0.00    +0.000 A 
ATOM     19  C   UNL     1      -0.125  12.087  18.701  0.00  0.00    +0.000 A 
ATOM     20  C   UNL     1      -0.565  13.408  18.699  0.00  0.00    +0.000 A 
ATOM     21  C   UNL     1      -0.785  14.050  19.903  0.00  0.00    +0.000 A 
ATOM     22  C   UNL     1      -0.598  13.358  21.098  0.00  0.00    +0.000 A 
ATOM     23  C   UNL     1      -0.177  12.011  21.109  0.00  0.00    +0.000 A 
BRANCH  23  24
ATOM     24  O   UNL     1       0.009  11.330  22.294  0.00  0.00    +0.000 OA
ATOM     25  C   UNL     1      -1.165  11.092  23.072  0.00  0.00    +0.000 C 
ENDBRANCH  23  24
ENDBRANCH  12  18
BRANCH   1  27
ATOM     26  C   UNL     1       6.004   3.574  15.164  0.00  0.00    +0.000 C 
ATOM     27  O   UNL     1       6.416   3.966  16.473  0.00  0.00    +0.000 OA
ENDBRANCH   1  27
BRANCH  17  28
ATOM     28  O   UNL     1       5.982   6.810  16.297  0.00  0.00    +0.000 OA
ATOM     29  C   UNL     1       5.383   7.040  15.026  0.00  0.00    +0.000 C 
ENDBRANCH  17  28
TORSDOF 4
ENDMDL
MODEL 8
REMARK VINA RESULT:      -6.9      2.528      8.636
REMARK  Name = 
REMARK  8 active torsions:
REMARK  status: ('A' for Active; 'I' for Inactive)
REMARK    1  A    between atoms: C_1  and  O_2
REMARK    2  A    between atoms: O_2  and  C_3
REMARK    3  A    between atoms: C_7  and  C_8
REMARK    4  A    between atoms: N_14  and  C_15
REMARK    5  A    between atoms: C_20  and  O_21
REMARK    6  A    between atoms: O_21  and  C_22
REMARK    7  A    between atoms: C_27  and  O_28
REMARK    8  A    between atoms: O_28  and  C_29
REMARK                            x       y       z     vdW  Elec       q    Type
REMARK                         _______ _______ _______ _____ _____    ______ ____
ROOT
ATOM      1  C   UNL     1      -2.050  11.419  18.833  0.00  0.00    +0.000 A 
ATOM      2  C   UNL     1      -1.604  11.325  20.162  0.00  0.00    +0.000 A 
ATOM      3  C   UNL     1      -0.596  10.450  20.553  0.00  0.00    +0.000 A 
ATOM      4  N   UNL     1      -0.272  10.377  21.852  0.00  0.00    +0.000 NA
ATOM      5  C   UNL     1       0.676   9.494  22.192  0.00  0.00    +0.000 A 
ATOM      6  C   UNL     1       1.017   9.350  23.645  0.00  0.00    +0.000 C 
ATOM      7  N   UNL     1       1.341   8.709  21.330  0.00  0.00    +0.000 NA
ATOM      8  C   UNL     1       1.053   8.804  20.020  0.00  0.00    +0.000 A 
ATOM      9  N   UNL     1       1.846   8.050  19.180  0.00  0.00    +0.000 N 
ATOM     10  C   UNL     1       2.260   8.430  17.818  0.00  0.00    +0.000 C 
ATOM     11  C   UNL     1       3.719   8.014  17.499  0.00  0.00    +0.000 C 
ATOM     12  N   UNL     1       3.884   6.591  17.814  0.00  0.00    +0.000 N 
ATOM     13  C   UNL     1       3.581   6.279  19.233  0.00  0.00    +0.000 C 
ATOM     14  C   UNL     1       2.120   6.653  19.556  0.00  0.00    +0.000 C 
ATOM     15  C   UNL     1       0.014   9.651  19.582  0.00  0.00    +0.000 A 
ATOM     16  C   UNL     1      -0.469   9.724  18.255  0.00  0.00    +0.000 A 
ATOM     17  C   UNL     1      -1.462  10.612  17.861  0.00  0.00    +0.000 A 
ENDROOT
BRANCH  12  18
ATOM     18  C   UNL     1       4.677   5.717  17.079  0.00  0.00    +0.000 A 
ATOM     19  C   UNL     1       5.939   6.201  16.670  0.00  0.00    +0.000 A 
ATOM     20  C   UNL     1       6.830   5.448  15.910  0.00  0.00    +0.000 A 
ATOM     21  C   UNL     1       6.485   4.162  15.538  0.00  0.00    +0.000 A 
ATOM     22  C   UNL     1       5.268   3.627  15.957  0.00  0.00    +0.000 A 
ATOM     23  C   UNL     1       4.370   4.374  16.749  0.00  0.00    +0.000 A 
BRANCH  23  24
ATOM     24  O   UNL     1       3.166   3.841  17.160  0.00  0.00    +0.000 OA
ATOM     25  C   UNL     1       3.236   2.597  17.857  0.00  0.00    +0.000 C 
ENDBRANCH  23  24
ENDBRANCH  12  18
BRANCH   1  27
ATOM     26  C   UNL     1      -4.383  11.812  18.792  0.00  0.00    +0.000 C 
ATOM     27  O   UNL     1      -3.061  12.325  18.629  0.00  0.00    +0.000 OA
ENDBRANCH   1  27
BRANCH  17  28
ATOM     28  O   UNL     1      -1.818  10.764  16.549  0.00  0.00    +0.000 OA
ATOM     29  C   UNL     1      -2.777   9.845  16.037  0.00  0.00    +0.000 C 
ENDBRANCH  17  28
TORSDOF 4
ENDMDL
MODEL 9
REMARK VINA RESULT:      -6.9      3.666      9.057
REMARK  Name = 
REMARK  8 active torsions:
REMARK  status: ('A' for Active; 'I' for Inactive)
REMARK    1  A    between atoms: C_1  and  O_2
REMARK    2  A    between atoms: O_2  and  C_3
REMARK    3  A    between atoms: C_7  and  C_8
REMARK    4  A    between atoms: N_14  and  C_15
REMARK    5  A    between atoms: C_20  and  O_21
REMARK    6  A    between atoms: O_21  and  C_22
REMARK    7  A    between atoms: C_27  and  O_28
REMARK    8  A    between atoms: O_28  and  C_29
REMARK                            x       y       z     vdW  Elec       q    Type
REMARK                         _______ _______ _______ _____ _____    ______ ____
ROOT
ATOM      1  C   UNL     1      -4.132  11.713  17.567  0.00  0.00    +0.000 A 
ATOM      2  C   UNL     1      -3.670  12.341  18.736  0.00  0.00    +0.000 A 
ATOM      3  C   UNL     1      -2.552  11.897  19.432  0.00  0.00    +0.000 A 
ATOM      4  N   UNL     1      -2.213  12.515  20.573  0.00  0.00    +0.000 NA
ATOM      5  C   UNL     1      -1.153  12.032  21.234  0.00  0.00    +0.000 A 
ATOM      6  C   UNL     1      -0.788  12.668  22.542  0.00  0.00    +0.000 C 
ATOM      7  N   UNL     1      -0.393  11.006  20.823  0.00  0.00    +0.000 NA
ATOM      8  C   UNL     1      -0.698  10.405  19.659  0.00  0.00    +0.000 A 
ATOM      9  N   UNL     1       0.185   9.430  19.244  0.00  0.00    +0.000 N 
ATOM     10  C   UNL     1       0.537   9.130  17.844  0.00  0.00    +0.000 C 
ATOM     11  C   UNL     1       2.037   8.780  17.667  0.00  0.00    +0.000 C 
ATOM     12  N   UNL     1       2.394   7.731  18.627  0.00  0.00    +0.000 N 
ATOM     13  C   UNL     1       2.143   8.130  20.034  0.00  0.00    +0.000 C 
ATOM     14  C   UNL     1       0.646   8.446  20.235  0.00  0.00    +0.000 C 
ATOM     15  C   UNL     1      -1.844  10.798  18.937  0.00  0.00    +0.000 A 
ATOM     16  C   UNL     1      -2.339  10.148  17.784  0.00  0.00    +0.000 A 
ATOM     17  C   UNL     1      -3.445  10.603  17.076  0.00  0.00    +0.000 A 
ENDROOT
BRANCH  12  18
ATOM     18  C   UNL     1       3.294   6.705  18.361  0.00  0.00    +0.000 A 
ATOM     19  C   UNL     1       4.413   7.037  17.566  0.00  0.00    +0.000 A 
ATOM     20  C   UNL     1       5.385   6.109  17.200  0.00  0.00    +0.000 A 
ATOM     21  C   UNL     1       5.270   4.801  17.632  0.00  0.00    +0.000 A 
ATOM     22  C   UNL     1       4.204   4.438  18.455  0.00  0.00    +0.000 A 
ATOM     23  C   UNL     1       3.230   5.377  18.852  0.00  0.00    +0.000 A 
BRANCH  23  24
ATOM     24  O   UNL     1       2.176   5.014  19.665  0.00  0.00    +0.000 OA
ATOM     25  C   UNL     1       1.413   3.886  19.236  0.00  0.00    +0.000 C 
ENDBRANCH  23  24
ENDBRANCH  12  18
BRANCH   1  27
ATOM     26  C   UNL     1      -6.472  12.022  17.721  0.00  0.00    +0.000 C 
ATOM     27  O   UNL     1      -5.256  12.275  17.018  0.00  0.00    +0.000 OA
ENDBRANCH   1  27
BRANCH  17  28
ATOM     28  O   UNL     1      -3.825  10.043  15.888  0.00  0.00    +0.000 OA
ATOM     29  C   UNL     1      -3.047  10.381  14.745  0.00  0.00    +0.000 C 
ENDBRANCH  17  28
TORSDOF 4
ENDMDL
