MODEL 1
REMARK VINA RESULT:      -8.1      0.000      0.000
REMARK  Name = 
REMARK  3 active torsions:
REMARK  status: ('A' for Active; 'I' for Inactive)
REMARK    1  A    between atoms: C_1  and  C_2
REMARK    2  A    between atoms: N_14  and  C_15
REMARK    3  A    between atoms: C_15  and  C_16
REMARK                            x       y       z     vdW  Elec       q    Type
REMARK                         _______ _______ _______ _____ _____    ______ ____
ROOT
ATOM      1  C   UNL     1       0.756   8.534  21.458  0.00  0.00    +0.000 C 
ATOM      2  C   UNL     1       1.390   8.510  20.097  0.00  0.00    +0.000 A 
ATOM      3  C   UNL     1       2.150   7.419  19.651  0.00  0.00    +0.000 A 
ATOM      4  N   UNL     1       2.490   6.250  20.302  0.00  0.00    +0.000 N 
ATOM      5  C   UNL     1       3.249   5.438  19.498  0.00  0.00    +0.000 A 
ATOM      6  C   UNL     1       3.800   4.181  19.769  0.00  0.00    +0.000 A 
ATOM      7  C   UNL     1       4.529   3.564  18.751  0.00  0.00    +0.000 A 
ATOM      8  C   UNL     1       4.700   4.186  17.517  0.00  0.00    +0.000 A 
ATOM      9  C   UNL     1       4.148   5.449  17.267  0.00  0.00    +0.000 A 
ATOM     10  C   UNL     1       3.405   6.094  18.280  0.00  0.00    +0.000 A 
ATOM     11  C   UNL     1       2.722   7.346  18.384  0.00  0.00    +0.000 A 
ATOM     12  C   UNL     1       2.532   8.430  17.520  0.00  0.00    +0.000 A 
ATOM     13  C   UNL     1       1.822   9.526  17.990  0.00  0.00    +0.000 A 
ATOM     14  N   UNL     1       1.287   9.564  19.238  0.00  0.00    +0.000 N 
ATOM     15  H   UNL     1       2.235   6.005  21.248  0.00  0.00    +0.000 HD
ENDROOT
BRANCH  14  16
ATOM     16  C   UNL     1       0.626  10.839  19.654  0.00  0.00    +0.000 C 
BRANCH  16  17
ATOM     17  C   UNL     1      -0.814  10.964  19.213  0.00  0.00    +0.000 A 
ATOM     18  C   UNL     1      -1.368  10.236  18.148  0.00  0.00    +0.000 A 
ATOM     19  C   UNL     1      -2.661  10.514  17.692  0.00  0.00    +0.000 A 
ATOM     20  C   UNL     1      -3.425  11.496  18.314  0.00  0.00    +0.000 A 
ATOM     21 CL   UNL     1      -4.971  11.906  17.684  0.00  0.00    +0.000 Cl
ATOM     22  C   UNL     1      -2.930  12.166  19.428  0.00  0.00    +0.000 A 
ATOM     23  C   UNL     1      -1.634  11.897  19.879  0.00  0.00    +0.000 A 
ENDBRANCH  16  17
ENDBRANCH  14  16
TORSDOF 2
ENDMDL
MODEL 2
REMARK VINA RESULT:      -8.0      0.238      1.051
REMARK  Name = 
REMARK  3 active torsions:
REMARK  status: ('A' for Active; 'I' for Inactive)
REMARK    1  A    between atoms: C_1  and  C_2
REMARK    2  A    between atoms: N_14  and  C_15
REMARK    3  A    between atoms: C_15  and  C_16
REMARK                            x       y       z     vdW  Elec       q    Type
REMARK                         _______ _______ _______ _____ _____    ______ ____
ROOT
ATOM      1  C   UNL     1       0.695   8.554  21.494  0.00  0.00    +0.000 C 
ATOM      2  C   UNL     1       1.339   8.525  20.137  0.00  0.00    +0.000 A 
ATOM      3  C   UNL     1       2.094   7.428  19.697  0.00  0.00    +0.000 A 
ATOM      4  N   UNL     1       2.421   6.257  20.350  0.00  0.00    +0.000 N 
ATOM      5  C   UNL     1       3.180   5.439  19.552  0.00  0.00    +0.000 A 
ATOM      6  C   UNL     1       3.720   4.178  19.827  0.00  0.00    +0.000 A 
ATOM      7  C   UNL     1       4.451   3.556  18.815  0.00  0.00    +0.000 A 
ATOM      8  C   UNL     1       4.636   4.176  17.582  0.00  0.00    +0.000 A 
ATOM      9  C   UNL     1       4.094   5.444  17.328  0.00  0.00    +0.000 A 
ATOM     10  C   UNL     1       3.349   6.093  18.335  0.00  0.00    +0.000 A 
ATOM     11  C   UNL     1       2.674   7.351  18.434  0.00  0.00    +0.000 A 
ATOM     12  C   UNL     1       2.498   8.435  17.568  0.00  0.00    +0.000 A 
ATOM     13  C   UNL     1       1.793   9.536  18.033  0.00  0.00    +0.000 A 
ATOM     14  N   UNL     1       1.249   9.579  19.278  0.00  0.00    +0.000 N 
ATOM     15  H   UNL     1       2.158   6.014  21.295  0.00  0.00    +0.000 HD
ENDROOT
BRANCH  14  16
ATOM     16  C   UNL     1       0.595  10.859  19.689  0.00  0.00    +0.000 C 
BRANCH  16  17
ATOM     17  C   UNL     1      -0.790  11.060  19.116  0.00  0.00    +0.000 A 
ATOM     18  C   UNL     1      -1.704  12.006  19.606  0.00  0.00    +0.000 A 
ATOM     19  C   UNL     1      -3.022  12.032  19.135  0.00  0.00    +0.000 A 
ATOM     20  C   UNL     1      -3.429  11.140  18.148  0.00  0.00    +0.000 A 
ATOM     21 CL   UNL     1      -5.073  11.108  17.649  0.00  0.00    +0.000 Cl
ATOM     22  C   UNL     1      -2.515  10.256  17.585  0.00  0.00    +0.000 A 
ATOM     23  C   UNL     1      -1.201  10.221  18.061  0.00  0.00    +0.000 A 
ENDBRANCH  16  17
ENDBRANCH  14  16
TORSDOF 2
ENDMDL
MODEL 3
REMARK VINA RESULT:      -7.9      3.557      6.054
REMARK  Name = 
REMARK  3 active torsions:
REMARK  status: ('A' for Active; 'I' for Inactive)
REMARK    1  A    between atoms: C_1  and  C_2
REMARK    2  A    between atoms: N_14  and  C_15
REMARK    3  A    between atoms: C_15  and  C_16
REMARK                            x       y       z     vdW  Elec       q    Type
REMARK                         _______ _______ _______ _____ _____    ______ ____
ROOT
ATOM      1  C   UNL     1       6.688   6.389  18.331  0.00  0.00    +0.000 C 
ATOM      2  C   UNL     1       5.779   5.493  17.538  0.00  0.00    +0.000 A 
ATOM      3  C   UNL     1       6.063   5.135  16.213  0.00  0.00    +0.000 A 
ATOM      4  N   UNL     1       7.112   5.511  15.397  0.00  0.00    +0.000 N 
ATOM      5  C   UNL     1       7.013   4.924  14.161  0.00  0.00    +0.000 A 
ATOM      6  C   UNL     1       7.857   5.041  13.050  0.00  0.00    +0.000 A 
ATOM      7  C   UNL     1       7.521   4.314  11.907  0.00  0.00    +0.000 A 
ATOM      8  C   UNL     1       6.386   3.508  11.881  0.00  0.00    +0.000 A 
ATOM      9  C   UNL     1       5.549   3.410  13.001  0.00  0.00    +0.000 A 
ATOM     10  C   UNL     1       5.868   4.135  14.170  0.00  0.00    +0.000 A 
ATOM     11  C   UNL     1       5.265   4.279  15.459  0.00  0.00    +0.000 A 
ATOM     12  C   UNL     1       4.113   3.762  16.062  0.00  0.00    +0.000 A 
ATOM     13  C   UNL     1       3.815   4.165  17.356  0.00  0.00    +0.000 A 
ATOM     14  N   UNL     1       4.615   5.011  18.057  0.00  0.00    +0.000 N 
ATOM     15  H   UNL     1       7.861   6.140  15.650  0.00  0.00    +0.000 HD
ENDROOT
BRANCH  14  16
ATOM     16  C   UNL     1       4.134   5.438  19.406  0.00  0.00    +0.000 C 
BRANCH  16  17
ATOM     17  C   UNL     1       3.097   6.538  19.376  0.00  0.00    +0.000 A 
ATOM     18  C   UNL     1       2.907   7.398  18.283  0.00  0.00    +0.000 A 
ATOM     19  C   UNL     1       2.040   8.492  18.381  0.00  0.00    +0.000 A 
ATOM     20  C   UNL     1       1.329   8.718  19.556  0.00  0.00    +0.000 A 
ATOM     21 CL   UNL     1       0.348  10.121  19.707  0.00  0.00    +0.000 Cl
ATOM     22  C   UNL     1       1.434   7.827  20.618  0.00  0.00    +0.000 A 
ATOM     23  C   UNL     1       2.308   6.739  20.526  0.00  0.00    +0.000 A 
ENDBRANCH  16  17
ENDBRANCH  14  16
TORSDOF 2
ENDMDL
MODEL 4
REMARK VINA RESULT:      -7.9      1.189      2.315
REMARK  Name = 
REMARK  3 active torsions:
REMARK  status: ('A' for Active; 'I' for Inactive)
REMARK    1  A    between atoms: C_1  and  C_2
REMARK    2  A    between atoms: N_14  and  C_15
REMARK    3  A    between atoms: C_15  and  C_16
REMARK                            x       y       z     vdW  Elec       q    Type
REMARK                         _______ _______ _______ _____ _____    ______ ____
ROOT
ATOM      1  C   UNL     1       2.533   8.941  17.581  0.00  0.00    +0.000 C 
ATOM      2  C   UNL     1       2.000   8.371  18.865  0.00  0.00    +0.000 A 
ATOM      3  C   UNL     1       2.224   7.037  19.233  0.00  0.00    +0.000 A 
ATOM      4  N   UNL     1       2.884   6.028  18.558  0.00  0.00    +0.000 N 
ATOM      5  C   UNL     1       2.878   4.862  19.280  0.00  0.00    +0.000 A 
ATOM      6  C   UNL     1       3.425   3.615  18.960  0.00  0.00    +0.000 A 
ATOM      7  C   UNL     1       3.281   2.590  19.897  0.00  0.00    +0.000 A 
ATOM      8  C   UNL     1       2.614   2.808  21.100  0.00  0.00    +0.000 A 
ATOM      9  C   UNL     1       2.066   4.063  21.398  0.00  0.00    +0.000 A 
ATOM     10  C   UNL     1       2.199   5.117  20.468  0.00  0.00    +0.000 A 
ATOM     11  C   UNL     1       1.778   6.484  20.430  0.00  0.00    +0.000 A 
ATOM     12  C   UNL     1       1.059   7.309  21.301  0.00  0.00    +0.000 A 
ATOM     13  C   UNL     1       0.799   8.612  20.903  0.00  0.00    +0.000 A 
ATOM     14  N   UNL     1       1.243   9.113  19.721  0.00  0.00    +0.000 N 
ATOM     15  H   UNL     1       3.314   6.111  17.648  0.00  0.00    +0.000 HD
ENDROOT
BRANCH  14  16
ATOM     16  C   UNL     1       0.816  10.503  19.370  0.00  0.00    +0.000 C 
BRANCH  16  17
ATOM     17  C   UNL     1      -0.576  10.597  18.787  0.00  0.00    +0.000 A 
ATOM     18  C   UNL     1      -1.000   9.867  17.665  0.00  0.00    +0.000 A 
ATOM     19  C   UNL     1      -2.248  10.118  17.084  0.00  0.00    +0.000 A 
ATOM     20  C   UNL     1      -3.097  11.072  17.636  0.00  0.00    +0.000 A 
ATOM     21 CL   UNL     1      -4.582  11.449  16.858  0.00  0.00    +0.000 Cl
ATOM     22  C   UNL     1      -2.733  11.740  18.800  0.00  0.00    +0.000 A 
ATOM     23  C   UNL     1      -1.483  11.499  19.377  0.00  0.00    +0.000 A 
ENDBRANCH  16  17
ENDBRANCH  14  16
TORSDOF 2
ENDMDL
MODEL 5
REMARK VINA RESULT:      -7.7      3.735      7.902
REMARK  Name = 
REMARK  3 active torsions:
REMARK  status: ('A' for Active; 'I' for Inactive)
REMARK    1  A    between atoms: C_1  and  C_2
REMARK    2  A    between atoms: N_14  and  C_15
REMARK    3  A    between atoms: C_15  and  C_16
REMARK                            x       y       z     vdW  Elec       q    Type
REMARK                         _______ _______ _______ _____ _____    ______ ____
ROOT
ATOM      1  C   UNL     1       2.981   4.389  20.663  0.00  0.00    +0.000 C 
ATOM      2  C   UNL     1       2.979   5.515  19.668  0.00  0.00    +0.000 A 
ATOM      3  C   UNL     1       2.287   6.712  19.904  0.00  0.00    +0.000 A 
ATOM      4  N   UNL     1       1.495   7.083  20.972  0.00  0.00    +0.000 N 
ATOM      5  C   UNL     1       1.004   8.353  20.807  0.00  0.00    +0.000 A 
ATOM      6  C   UNL     1       0.167   9.100  21.644  0.00  0.00    +0.000 A 
ATOM      7  C   UNL     1      -0.172  10.389  21.232  0.00  0.00    +0.000 A 
ATOM      8  C   UNL     1       0.305  10.903  20.029  0.00  0.00    +0.000 A 
ATOM      9  C   UNL     1       1.135  10.137  19.200  0.00  0.00    +0.000 A 
ATOM     10  C   UNL     1       1.495   8.830  19.596  0.00  0.00    +0.000 A 
ATOM     11  C   UNL     1       2.292   7.789  19.023  0.00  0.00    +0.000 A 
ATOM     12  C   UNL     1       3.022   7.659  17.837  0.00  0.00    +0.000 A 
ATOM     13  C   UNL     1       3.661   6.452  17.592  0.00  0.00    +0.000 A 
ATOM     14  N   UNL     1       3.624   5.417  18.472  0.00  0.00    +0.000 N 
ATOM     15  H   UNL     1       1.283   6.510  21.777  0.00  0.00    +0.000 HD
ENDROOT
BRANCH  14  16
ATOM     16  C   UNL     1       4.276   4.141  18.047  0.00  0.00    +0.000 C 
BRANCH  16  17
ATOM     17  C   UNL     1       5.255   4.294  16.904  0.00  0.00    +0.000 A 
ATOM     18  C   UNL     1       6.590   4.692  17.072  0.00  0.00    +0.000 A 
ATOM     19  C   UNL     1       7.396   4.965  15.961  0.00  0.00    +0.000 A 
ATOM     20  C   UNL     1       6.889   4.811  14.674  0.00  0.00    +0.000 A 
ATOM     21 CL   UNL     1       7.848   5.248  13.317  0.00  0.00    +0.000 Cl
ATOM     22  C   UNL     1       5.597   4.330  14.486  0.00  0.00    +0.000 A 
ATOM     23  C   UNL     1       4.787   4.067  15.594  0.00  0.00    +0.000 A 
ENDBRANCH  16  17
ENDBRANCH  14  16
TORSDOF 2
ENDMDL
MODEL 6
REMARK VINA RESULT:      -7.7      4.108      6.800
REMARK  Name = 
REMARK  3 active torsions:
REMARK  status: ('A' for Active; 'I' for Inactive)
REMARK    1  A    between atoms: C_1  and  C_2
REMARK    2  A    between atoms: N_14  and  C_15
REMARK    3  A    between atoms: C_15  and  C_16
REMARK                            x       y       z     vdW  Elec       q    Type
REMARK                         _______ _______ _______ _____ _____    ______ ____
ROOT
ATOM      1  C   UNL     1       7.191   5.668  18.510  0.00  0.00    +0.000 C 
ATOM      2  C   UNL     1       6.263   4.863  17.645  0.00  0.00    +0.000 A 
ATOM      3  C   UNL     1       6.454   4.744  16.261  0.00  0.00    +0.000 A 
ATOM      4  N   UNL     1       7.415   5.308  15.446  0.00  0.00    +0.000 N 
ATOM      5  C   UNL     1       7.243   4.928  14.140  0.00  0.00    +0.000 A 
ATOM      6  C   UNL     1       7.987   5.274  13.006  0.00  0.00    +0.000 A 
ATOM      7  C   UNL     1       7.593   4.725  11.785  0.00  0.00    +0.000 A 
ATOM      8  C   UNL     1       6.496   3.870  11.706  0.00  0.00    +0.000 A 
ATOM      9  C   UNL     1       5.758   3.542  12.851  0.00  0.00    +0.000 A 
ATOM     10  C   UNL     1       6.138   4.082  14.099  0.00  0.00    +0.000 A 
ATOM     11  C   UNL     1       5.636   3.979  15.435  0.00  0.00    +0.000 A 
ATOM     12  C   UNL     1       4.562   3.304  16.025  0.00  0.00    +0.000 A 
ATOM     13  C   UNL     1       4.352   3.471  17.386  0.00  0.00    +0.000 A 
ATOM     14  N   UNL     1       5.167   4.236  18.159  0.00  0.00    +0.000 N 
ATOM     15  H   UNL     1       8.152   5.930  15.747  0.00  0.00    +0.000 HD
ENDROOT
BRANCH  14  16
ATOM     16  C   UNL     1       4.778   4.408  19.592  0.00  0.00    +0.000 C 
BRANCH  16  17
ATOM     17  C   UNL     1       3.574   5.297  19.807  0.00  0.00    +0.000 A 
ATOM     18  C   UNL     1       3.432   6.567  19.227  0.00  0.00    +0.000 A 
ATOM     19  C   UNL     1       2.369   7.401  19.591  0.00  0.00    +0.000 A 
ATOM     20  C   UNL     1       1.419   6.962  20.509  0.00  0.00    +0.000 A 
ATOM     21 CL   UNL     1       0.176   8.027  21.031  0.00  0.00    +0.000 Cl
ATOM     22  C   UNL     1       1.492   5.673  21.026  0.00  0.00    +0.000 A 
ATOM     23  C   UNL     1       2.559   4.842  20.672  0.00  0.00    +0.000 A 
ENDBRANCH  16  17
ENDBRANCH  14  16
TORSDOF 2
ENDMDL
MODEL 7
REMARK VINA RESULT:      -7.6      5.704      7.742
REMARK  Name = 
REMARK  3 active torsions:
REMARK  status: ('A' for Active; 'I' for Inactive)
REMARK    1  A    between atoms: C_1  and  C_2
REMARK    2  A    between atoms: N_14  and  C_15
REMARK    3  A    between atoms: C_15  and  C_16
REMARK                            x       y       z     vdW  Elec       q    Type
REMARK                         _______ _______ _______ _____ _____    ______ ____
ROOT
ATOM      1  C   UNL     1       7.338   6.442  18.008  0.00  0.00    +0.000 C 
ATOM      2  C   UNL     1       6.372   5.521  17.319  0.00  0.00    +0.000 A 
ATOM      3  C   UNL     1       6.518   5.168  15.969  0.00  0.00    +0.000 A 
ATOM      4  N   UNL     1       7.459   5.571  15.043  0.00  0.00    +0.000 N 
ATOM      5  C   UNL     1       7.241   4.980  13.825  0.00  0.00    +0.000 A 
ATOM      6  C   UNL     1       7.953   5.119  12.628  0.00  0.00    +0.000 A 
ATOM      7  C   UNL     1       7.513   4.380  11.528  0.00  0.00    +0.000 A 
ATOM      8  C   UNL     1       6.405   3.543  11.627  0.00  0.00    +0.000 A 
ATOM      9  C   UNL     1       5.700   3.424  12.832  0.00  0.00    +0.000 A 
ATOM     10  C   UNL     1       6.126   4.159  13.960  0.00  0.00    +0.000 A 
ATOM     11  C   UNL     1       5.665   4.289  15.308  0.00  0.00    +0.000 A 
ATOM     12  C   UNL     1       4.602   3.741  16.034  0.00  0.00    +0.000 A 
ATOM     13  C   UNL     1       4.438   4.137  17.354  0.00  0.00    +0.000 A 
ATOM     14  N   UNL     1       5.286   5.007  17.962  0.00  0.00    +0.000 N 
ATOM     15  H   UNL     1       8.213   6.222  15.213  0.00  0.00    +0.000 HD
ENDROOT
BRANCH  14  16
ATOM     16  C   UNL     1       4.945   5.423  19.357  0.00  0.00    +0.000 C 
BRANCH  16  17
ATOM     17  C   UNL     1       3.833   4.618  19.991  0.00  0.00    +0.000 A 
ATOM     18  C   UNL     1       2.573   5.149  20.309  0.00  0.00    +0.000 A 
ATOM     19  C   UNL     1       1.646   4.395  21.036  0.00  0.00    +0.000 A 
ATOM     20  C   UNL     1       1.953   3.093  21.422  0.00  0.00    +0.000 A 
ATOM     21 CL   UNL     1       0.854   2.210  22.404  0.00  0.00    +0.000 Cl
ATOM     22  C   UNL     1       3.160   2.518  21.039  0.00  0.00    +0.000 A 
ATOM     23  C   UNL     1       4.092   3.273  20.322  0.00  0.00    +0.000 A 
ENDBRANCH  16  17
ENDBRANCH  14  16
TORSDOF 2
ENDMDL
MODEL 8
REMARK VINA RESULT:      -7.6      1.222      2.546
REMARK  Name = 
REMARK  3 active torsions:
REMARK  status: ('A' for Active; 'I' for Inactive)
REMARK    1  A    between atoms: C_1  and  C_2
REMARK    2  A    between atoms: N_14  and  C_15
REMARK    3  A    between atoms: C_15  and  C_16
REMARK                            x       y       z     vdW  Elec       q    Type
REMARK                         _______ _______ _______ _____ _____    ______ ____
ROOT
ATOM      1  C   UNL     1       2.630   8.911  17.466  0.00  0.00    +0.000 C 
ATOM      2  C   UNL     1       2.083   8.396  18.767  0.00  0.00    +0.000 A 
ATOM      3  C   UNL     1       2.230   7.057  19.156  0.00  0.00    +0.000 A 
ATOM      4  N   UNL     1       2.815   5.998  18.489  0.00  0.00    +0.000 N 
ATOM      5  C   UNL     1       2.748   4.847  19.232  0.00  0.00    +0.000 A 
ATOM      6  C   UNL     1       3.212   3.563  18.926  0.00  0.00    +0.000 A 
ATOM      7  C   UNL     1       3.020   2.564  19.882  0.00  0.00    +0.000 A 
ATOM      8  C   UNL     1       2.386   2.844  21.090  0.00  0.00    +0.000 A 
ATOM      9  C   UNL     1       1.921   4.135  21.375  0.00  0.00    +0.000 A 
ATOM     10  C   UNL     1       2.105   5.163  20.424  0.00  0.00    +0.000 A 
ATOM     11  C   UNL     1       1.769   6.553  20.368  0.00  0.00    +0.000 A 
ATOM     12  C   UNL     1       1.115   7.435  21.235  0.00  0.00    +0.000 A 
ATOM     13  C   UNL     1       0.930   8.745  20.818  0.00  0.00    +0.000 A 
ATOM     14  N   UNL     1       1.386   9.198  19.621  0.00  0.00    +0.000 N 
ATOM     15  H   UNL     1       3.235   6.039  17.571  0.00  0.00    +0.000 HD
ENDROOT
BRANCH  14  16
ATOM     16  C   UNL     1       1.041  10.605  19.251  0.00  0.00    +0.000 C 
BRANCH  16  17
ATOM     17  C   UNL     1      -0.390  10.796  18.801  0.00  0.00    +0.000 A 
ATOM     18  C   UNL     1      -1.268  11.729  19.376  0.00  0.00    +0.000 A 
ATOM     19  C   UNL     1      -2.621  11.746  19.020  0.00  0.00    +0.000 A 
ATOM     20  C   UNL     1      -3.103  10.857  18.063  0.00  0.00    +0.000 A 
ATOM     21 CL   UNL     1      -4.783  10.811  17.707  0.00  0.00    +0.000 Cl
ATOM     22  C   UNL     1      -2.231   9.987  17.417  0.00  0.00    +0.000 A 
ATOM     23  C   UNL     1      -0.881   9.961  17.778  0.00  0.00    +0.000 A 
ENDBRANCH  16  17
ENDBRANCH  14  16
TORSDOF 2
ENDMDL
MODEL 9
REMARK VINA RESULT:      -7.5      3.516      6.025
REMARK  Name = 
REMARK  3 active torsions:
REMARK  status: ('A' for Active; 'I' for Inactive)
REMARK    1  A    between atoms: C_1  and  C_2
REMARK    2  A    between atoms: N_14  and  C_15
REMARK    3  A    between atoms: C_15  and  C_16
REMARK                            x       y       z     vdW  Elec       q    Type
REMARK                         _______ _______ _______ _____ _____    ______ ____
ROOT
ATOM      1  C   UNL     1       6.681   6.435  18.314  0.00  0.00    +0.000 C 
ATOM      2  C   UNL     1       5.758   5.556  17.518  0.00  0.00    +0.000 A 
ATOM      3  C   UNL     1       6.048   5.177  16.200  0.00  0.00    +0.000 A 
ATOM      4  N   UNL     1       7.117   5.516  15.394  0.00  0.00    +0.000 N 
ATOM      5  C   UNL     1       7.017   4.920  14.162  0.00  0.00    +0.000 A 
ATOM      6  C   UNL     1       7.877   5.003  13.061  0.00  0.00    +0.000 A 
ATOM      7  C   UNL     1       7.536   4.273  11.922  0.00  0.00    +0.000 A 
ATOM      8  C   UNL     1       6.380   3.498  11.889  0.00  0.00    +0.000 A 
ATOM      9  C   UNL     1       5.527   3.434  12.999  0.00  0.00    +0.000 A 
ATOM     10  C   UNL     1       5.851   4.162  14.165  0.00  0.00    +0.000 A 
ATOM     11  C   UNL     1       5.236   4.336  15.445  0.00  0.00    +0.000 A 
ATOM     12  C   UNL     1       4.064   3.856  16.039  0.00  0.00    +0.000 A 
ATOM     13  C   UNL     1       3.761   4.280  17.325  0.00  0.00    +0.000 A 
ATOM     14  N   UNL     1       4.574   5.111  18.027  0.00  0.00    +0.000 N 
ATOM     15  H   UNL     1       7.879   6.128  15.650  0.00  0.00    +0.000 HD
ENDROOT
BRANCH  14  16
ATOM     16  C   UNL     1       4.088   5.565  19.366  0.00  0.00    +0.000 C 
BRANCH  16  17
ATOM     17  C   UNL     1       3.166   6.762  19.319  0.00  0.00    +0.000 A 
ATOM     18  C   UNL     1       2.328   7.140  20.379  0.00  0.00    +0.000 A 
ATOM     19  C   UNL     1       1.386   8.162  20.213  0.00  0.00    +0.000 A 
ATOM     20  C   UNL     1       1.297   8.839  19.000  0.00  0.00    +0.000 A 
ATOM     21 CL   UNL     1       0.070  10.020  18.767  0.00  0.00    +0.000 Cl
ATOM     22  C   UNL     1       2.180   8.541  17.968  0.00  0.00    +0.000 A 
ATOM     23  C   UNL     1       3.113   7.514  18.128  0.00  0.00    +0.000 A 
ENDBRANCH  16  17
ENDBRANCH  14  16
TORSDOF 2
ENDMDL
