MODEL 1
REMARK VINA RESULT:      -8.6      0.000      0.000
REMARK  Name = 
REMARK  3 active torsions:
REMARK  status: ('A' for Active; 'I' for Inactive)
REMARK    1  A    between atoms: C_1  and  C_2
REMARK    2  A    between atoms: C_9  and  N_10
REMARK    3  A    between atoms: C_15  and  C_16
REMARK                            x       y       z     vdW  Elec       q    Type
REMARK                         _______ _______ _______ _____ _____    ______ ____
ROOT
ATOM      1  N   UNL     1       2.871   4.466  19.736  0.00  0.00    +0.000 N 
ATOM      2  C   UNL     1       2.135   3.654  20.601  0.00  0.00    +0.000 C 
ATOM      3  O   UNL     1       1.078   3.961  21.146  0.00  0.00    +0.000 OA
ATOM      4  C   UNL     1       2.751   2.279  20.762  0.00  0.00    +0.000 C 
ATOM      5  S   UNL     1       4.248   2.236  19.757  0.00  0.00    +0.000 S 
ATOM      6  C   UNL     1       4.256   4.037  19.538  0.00  0.00    +0.000 C 
ENDROOT
BRANCH   1  15
ATOM      7  C   UNL     1       1.455  10.719  17.819  0.00  0.00    +0.000 C 
ATOM      8  C   UNL     1       1.346   9.955  19.105  0.00  0.00    +0.000 A 
ATOM      9  C   UNL     1       0.898  10.548  20.222  0.00  0.00    +0.000 A 
ATOM     10  C   UNL     1       0.794   9.868  21.521  0.00  0.00    +0.000 A 
ATOM     11  O   UNL     1       0.344  10.447  22.502  0.00  0.00    +0.000 OA
ATOM     12  O   UNL     1       1.242   8.564  21.571  0.00  0.00    +0.000 OA
ATOM     13  C   UNL     1       1.695   7.907  20.414  0.00  0.00    +0.000 A 
ATOM     14  C   UNL     1       2.074   6.577  20.587  0.00  0.00    +0.000 A 
ATOM     15  C   UNL     1       2.493   5.814  19.502  0.00  0.00    +0.000 A 
ATOM     16  C   UNL     1       2.582   6.428  18.250  0.00  0.00    +0.000 A 
ATOM     17  C   UNL     1       2.208   7.781  18.089  0.00  0.00    +0.000 A 
ATOM     18  C   UNL     1       1.748   8.541  19.175  0.00  0.00    +0.000 A 
ENDBRANCH   1  15
BRANCH   6  19
ATOM     19  C   UNL     1       4.910   4.463  18.237  0.00  0.00    +0.000 A 
ATOM     20  C   UNL     1       6.098   5.225  18.259  0.00  0.00    +0.000 A 
ATOM     21  C   UNL     1       6.833   5.449  17.093  0.00  0.00    +0.000 A 
ATOM     22  C   UNL     1       6.363   4.963  15.878  0.00  0.00    +0.000 A 
ATOM     23 CL   UNL     1       7.302   5.171  14.453  0.00  0.00    +0.000 Cl
ATOM     24  C   UNL     1       5.147   4.292  15.813  0.00  0.00    +0.000 A 
ATOM     25  C   UNL     1       4.424   4.043  16.984  0.00  0.00    +0.000 A 
ATOM     26 CL   UNL     1       2.932   3.187  16.808  0.00  0.00    +0.000 Cl
ENDBRANCH   6  19
TORSDOF 2
ENDMDL
MODEL 2
REMARK VINA RESULT:      -7.9      1.091      1.466
REMARK  Name = 
REMARK  3 active torsions:
REMARK  status: ('A' for Active; 'I' for Inactive)
REMARK    1  A    between atoms: C_1  and  C_2
REMARK    2  A    between atoms: C_9  and  N_10
REMARK    3  A    between atoms: C_15  and  C_16
REMARK                            x       y       z     vdW  Elec       q    Type
REMARK                         _______ _______ _______ _____ _____    ______ ____
ROOT
ATOM      1  N   UNL     1       2.935   4.198  19.746  0.00  0.00    +0.000 N 
ATOM      2  C   UNL     1       2.164   3.428  20.619  0.00  0.00    +0.000 C 
ATOM      3  O   UNL     1       1.103   3.774  21.133  0.00  0.00    +0.000 OA
ATOM      4  C   UNL     1       2.744   2.045  20.830  0.00  0.00    +0.000 C 
ATOM      5  S   UNL     1       4.259   1.939  19.858  0.00  0.00    +0.000 S 
ATOM      6  C   UNL     1       4.313   3.732  19.589  0.00  0.00    +0.000 C 
ENDROOT
BRANCH   1  15
ATOM      7  C   UNL     1       1.706  10.425  17.628  0.00  0.00    +0.000 C 
ATOM      8  C   UNL     1       1.549   9.699  18.931  0.00  0.00    +0.000 A 
ATOM      9  C   UNL     1       1.088  10.333  20.021  0.00  0.00    +0.000 A 
ATOM     10  C   UNL     1       0.938   9.691  21.334  0.00  0.00    +0.000 A 
ATOM     11  O   UNL     1       0.477  10.306  22.288  0.00  0.00    +0.000 OA
ATOM     12  O   UNL     1       1.355   8.379  21.431  0.00  0.00    +0.000 OA
ATOM     13  C   UNL     1       1.820   7.682  20.303  0.00  0.00    +0.000 A 
ATOM     14  C   UNL     1       2.165   6.349  20.521  0.00  0.00    +0.000 A 
ATOM     15  C   UNL     1       2.593   5.547  19.467  0.00  0.00    +0.000 A 
ATOM     16  C   UNL     1       2.726   6.125  18.202  0.00  0.00    +0.000 A 
ATOM     17  C   UNL     1       2.386   7.480  17.995  0.00  0.00    +0.000 A 
ATOM     18  C   UNL     1       1.917   8.280  19.049  0.00  0.00    +0.000 A 
ENDBRANCH   1  15
BRANCH   6  19
ATOM     19  C   UNL     1       5.002   4.106  18.291  0.00  0.00    +0.000 A 
ATOM     20  C   UNL     1       4.495   3.636  17.060  0.00  0.00    +0.000 A 
ATOM     21  C   UNL     1       4.976   4.130  15.845  0.00  0.00    +0.000 A 
ATOM     22  C   UNL     1       6.009   5.060  15.840  0.00  0.00    +0.000 A 
ATOM     23 CL   UNL     1       6.552   5.728  14.352  0.00  0.00    +0.000 Cl
ATOM     24  C   UNL     1       6.593   5.468  17.035  0.00  0.00    +0.000 A 
ATOM     25  C   UNL     1       6.094   4.995  18.253  0.00  0.00    +0.000 A 
ATOM     26 CL   UNL     1       6.871   5.569  19.686  0.00  0.00    +0.000 Cl
ENDBRANCH   6  19
TORSDOF 2
ENDMDL
MODEL 3
REMARK VINA RESULT:      -7.9      9.150     10.922
REMARK  Name = 
REMARK  3 active torsions:
REMARK  status: ('A' for Active; 'I' for Inactive)
REMARK    1  A    between atoms: C_1  and  C_2
REMARK    2  A    between atoms: C_9  and  N_10
REMARK    3  A    between atoms: C_15  and  C_16
REMARK                            x       y       z     vdW  Elec       q    Type
REMARK                         _______ _______ _______ _____ _____    ______ ____
ROOT
ATOM      1  N   UNL     1      10.282  13.244  19.664  0.00  0.00    +0.000 N 
ATOM      2  C   UNL     1      11.375  12.386  19.529  0.00  0.00    +0.000 C 
ATOM      3  O   UNL     1      11.860  11.696  20.422  0.00  0.00    +0.000 OA
ATOM      4  C   UNL     1      11.890  12.332  18.105  0.00  0.00    +0.000 C 
ATOM      5  S   UNL     1      10.870  13.445  17.118  0.00  0.00    +0.000 S 
ATOM      6  C   UNL     1      10.150  14.226  18.589  0.00  0.00    +0.000 C 
ENDROOT
BRANCH   1  15
ATOM      7  C   UNL     1       8.161  14.963  25.774  0.00  0.00    +0.000 C 
ATOM      8  C   UNL     1       7.785  13.903  24.781  0.00  0.00    +0.000 A 
ATOM      9  C   UNL     1       6.830  13.004  25.063  0.00  0.00    +0.000 A 
ATOM     10  C   UNL     1       6.433  11.923  24.150  0.00  0.00    +0.000 A 
ATOM     11  O   UNL     1       5.529  11.150  24.442  0.00  0.00    +0.000 OA
ATOM     12  O   UNL     1       7.139  11.823  22.968  0.00  0.00    +0.000 OA
ATOM     13  C   UNL     1       8.128  12.764  22.634  0.00  0.00    +0.000 A 
ATOM     14  C   UNL     1       8.735  12.582  21.392  0.00  0.00    +0.000 A 
ATOM     15  C   UNL     1       9.694  13.480  20.935  0.00  0.00    +0.000 A 
ATOM     16  C   UNL     1      10.078  14.529  21.773  0.00  0.00    +0.000 A 
ATOM     17  C   UNL     1       9.466  14.697  23.035  0.00  0.00    +0.000 A 
ATOM     18  C   UNL     1       8.470  13.814  23.482  0.00  0.00    +0.000 A 
ENDBRANCH   1  15
BRANCH   6  19
ATOM     19  C   UNL     1       8.753  14.761  18.339  0.00  0.00    +0.000 A 
ATOM     20  C   UNL     1       7.763  13.921  17.784  0.00  0.00    +0.000 A 
ATOM     21  C   UNL     1       6.423  14.317  17.739  0.00  0.00    +0.000 A 
ATOM     22  C   UNL     1       6.062  15.578  18.197  0.00  0.00    +0.000 A 
ATOM     23 CL   UNL     1       4.406  16.040  18.214  0.00  0.00    +0.000 Cl
ATOM     24  C   UNL     1       7.031  16.463  18.659  0.00  0.00    +0.000 A 
ATOM     25  C   UNL     1       8.368  16.058  18.730  0.00  0.00    +0.000 A 
ATOM     26 CL   UNL     1       9.499  17.218  19.333  0.00  0.00    +0.000 Cl
ENDBRANCH   6  19
TORSDOF 2
ENDMDL
MODEL 4
REMARK VINA RESULT:      -7.8      4.674      7.904
REMARK  Name = 
REMARK  3 active torsions:
REMARK  status: ('A' for Active; 'I' for Inactive)
REMARK    1  A    between atoms: C_1  and  C_2
REMARK    2  A    between atoms: C_9  and  N_10
REMARK    3  A    between atoms: C_15  and  C_16
REMARK                            x       y       z     vdW  Elec       q    Type
REMARK                         _______ _______ _______ _____ _____    ______ ____
ROOT
ATOM      1  N   UNL     1      -0.061  11.176  20.046  0.00  0.00    +0.000 N 
ATOM      2  C   UNL     1       0.346  11.989  21.105  0.00  0.00    +0.000 C 
ATOM      3  O   UNL     1       1.451  11.968  21.642  0.00  0.00    +0.000 OA
ATOM      4  C   UNL     1      -0.720  12.987  21.507  0.00  0.00    +0.000 C 
ATOM      5  S   UNL     1      -2.148  12.712  20.439  0.00  0.00    +0.000 S 
ATOM      6  C   UNL     1      -1.510  11.118  19.853  0.00  0.00    +0.000 C 
ENDROOT
BRANCH   1  15
ATOM      7  C   UNL     1       3.945   6.752  17.019  0.00  0.00    +0.000 C 
ATOM      8  C   UNL     1       3.167   6.773  18.301  0.00  0.00    +0.000 A 
ATOM      9  C   UNL     1       3.163   5.710  19.121  0.00  0.00    +0.000 A 
ATOM     10  C   UNL     1       2.400   5.652  20.375  0.00  0.00    +0.000 A 
ATOM     11  O   UNL     1       2.459   4.669  21.105  0.00  0.00    +0.000 OA
ATOM     12  O   UNL     1       1.612   6.746  20.670  0.00  0.00    +0.000 OA
ATOM     13  C   UNL     1       1.614   7.883  19.844  0.00  0.00    +0.000 A 
ATOM     14  C   UNL     1       0.814   8.940  20.276  0.00  0.00    +0.000 A 
ATOM     15  C   UNL     1       0.774  10.134  19.564  0.00  0.00    +0.000 A 
ATOM     16  C   UNL     1       1.505  10.227  18.377  0.00  0.00    +0.000 A 
ATOM     17  C   UNL     1       2.303   9.145  17.942  0.00  0.00    +0.000 A 
ATOM     18  C   UNL     1       2.374   7.953  18.680  0.00  0.00    +0.000 A 
ENDBRANCH   1  15
BRANCH   6  19
ATOM     19  C   UNL     1      -1.986  10.779  18.454  0.00  0.00    +0.000 A 
ATOM     20  C   UNL     1      -2.777   9.629  18.235  0.00  0.00    +0.000 A 
ATOM     21  C   UNL     1      -3.403   9.407  17.006  0.00  0.00    +0.000 A 
ATOM     22  C   UNL     1      -3.204  10.301  15.961  0.00  0.00    +0.000 A 
ATOM     23 CL   UNL     1      -4.032  10.073  14.471  0.00  0.00    +0.000 Cl
ATOM     24  C   UNL     1      -2.353  11.390  16.119  0.00  0.00    +0.000 A 
ATOM     25  C   UNL     1      -1.748  11.628  17.357  0.00  0.00    +0.000 A 
ATOM     26 CL   UNL     1      -0.720  13.015  17.465  0.00  0.00    +0.000 Cl
ENDBRANCH   6  19
TORSDOF 2
ENDMDL
MODEL 5
REMARK VINA RESULT:      -7.8      2.269      4.036
REMARK  Name = 
REMARK  3 active torsions:
REMARK  status: ('A' for Active; 'I' for Inactive)
REMARK    1  A    between atoms: C_1  and  C_2
REMARK    2  A    between atoms: C_9  and  N_10
REMARK    3  A    between atoms: C_15  and  C_16
REMARK                            x       y       z     vdW  Elec       q    Type
REMARK                         _______ _______ _______ _____ _____    ______ ____
ROOT
ATOM      1  N   UNL     1       4.439   6.087  17.698  0.00  0.00    +0.000 N 
ATOM      2  C   UNL     1       5.593   6.545  17.059  0.00  0.00    +0.000 C 
ATOM      3  O   UNL     1       5.875   7.722  16.846  0.00  0.00    +0.000 OA
ATOM      4  C   UNL     1       6.535   5.416  16.696  0.00  0.00    +0.000 C 
ATOM      5  S   UNL     1       5.765   3.876  17.230  0.00  0.00    +0.000 S 
ATOM      6  C   UNL     1       4.153   4.669  17.483  0.00  0.00    +0.000 C 
ENDROOT
BRANCH   1  15
ATOM      7  C   UNL     1      -0.389  10.636  18.581  0.00  0.00    +0.000 C 
ATOM      8  C   UNL     1       0.346   9.684  19.477  0.00  0.00    +0.000 A 
ATOM      9  C   UNL     1       0.095   9.646  20.795  0.00  0.00    +0.000 A 
ATOM     10  C   UNL     1       0.798   8.761  21.733  0.00  0.00    +0.000 A 
ATOM     11  O   UNL     1       0.504   8.741  22.922  0.00  0.00    +0.000 OA
ATOM     12  O   UNL     1       1.804   7.977  21.206  0.00  0.00    +0.000 OA
ATOM     13  C   UNL     1       2.075   7.977  19.827  0.00  0.00    +0.000 A 
ATOM     14  C   UNL     1       3.082   7.106  19.413  0.00  0.00    +0.000 A 
ATOM     15  C   UNL     1       3.403   6.986  18.064  0.00  0.00    +0.000 A 
ATOM     16  C   UNL     1       2.737   7.801  17.145  0.00  0.00    +0.000 A 
ATOM     17  C   UNL     1       1.727   8.689  17.578  0.00  0.00    +0.000 A 
ATOM     18  C   UNL     1       1.375   8.783  18.933  0.00  0.00    +0.000 A 
ENDBRANCH   1  15
BRANCH   6  19
ATOM     19  C   UNL     1       3.327   3.982  18.553  0.00  0.00    +0.000 A 
ATOM     20  C   UNL     1       3.961   3.406  19.675  0.00  0.00    +0.000 A 
ATOM     21  C   UNL     1       3.221   2.957  20.771  0.00  0.00    +0.000 A 
ATOM     22  C   UNL     1       1.833   3.027  20.741  0.00  0.00    +0.000 A 
ATOM     23 CL   UNL     1       0.922   2.548  22.117  0.00  0.00    +0.000 Cl
ATOM     24  C   UNL     1       1.178   3.502  19.609  0.00  0.00    +0.000 A 
ATOM     25  C   UNL     1       1.919   3.976  18.522  0.00  0.00    +0.000 A 
ATOM     26 CL   UNL     1       1.020   4.563  17.167  0.00  0.00    +0.000 Cl
ENDBRANCH   6  19
TORSDOF 2
ENDMDL
MODEL 6
REMARK VINA RESULT:      -7.7      7.510      9.373
REMARK  Name = 
REMARK  3 active torsions:
REMARK  status: ('A' for Active; 'I' for Inactive)
REMARK    1  A    between atoms: C_1  and  C_2
REMARK    2  A    between atoms: C_9  and  N_10
REMARK    3  A    between atoms: C_15  and  C_16
REMARK                            x       y       z     vdW  Elec       q    Type
REMARK                         _______ _______ _______ _____ _____    ______ ____
ROOT
ATOM      1  N   UNL     1      -0.523  13.594  21.772  0.00  0.00    +0.000 N 
ATOM      2  C   UNL     1      -0.682  14.270  22.983  0.00  0.00    +0.000 C 
ATOM      3  O   UNL     1      -0.060  15.269  23.334  0.00  0.00    +0.000 OA
ATOM      4  C   UNL     1      -1.784  13.672  23.834  0.00  0.00    +0.000 C 
ATOM      5  S   UNL     1      -2.465  12.269  22.929  0.00  0.00    +0.000 S 
ATOM      6  C   UNL     1      -1.080  12.241  21.758  0.00  0.00    +0.000 C 
ENDROOT
BRANCH   1  15
ATOM      7  C   UNL     1       4.795  14.686  17.860  0.00  0.00    +0.000 C 
ATOM      8  C   UNL     1       3.478  15.371  18.073  0.00  0.00    +0.000 A 
ATOM      9  C   UNL     1       3.171  16.494  17.405  0.00  0.00    +0.000 A 
ATOM     10  C   UNL     1       1.913  17.232  17.587  0.00  0.00    +0.000 A 
ATOM     11  O   UNL     1       1.667  18.233  16.925  0.00  0.00    +0.000 OA
ATOM     12  O   UNL     1       1.046  16.746  18.544  0.00  0.00    +0.000 OA
ATOM     13  C   UNL     1       1.328  15.560  19.243  0.00  0.00    +0.000 A 
ATOM     14  C   UNL     1       0.351  15.149  20.148  0.00  0.00    +0.000 A 
ATOM     15  C   UNL     1       0.501  13.963  20.861  0.00  0.00    +0.000 A 
ATOM     16  C   UNL     1       1.678  13.229  20.694  0.00  0.00    +0.000 A 
ATOM     17  C   UNL     1       2.668  13.663  19.783  0.00  0.00    +0.000 A 
ATOM     18  C   UNL     1       2.501  14.838  19.035  0.00  0.00    +0.000 A 
ENDBRANCH   1  15
BRANCH   6  19
ATOM     19  C   UNL     1      -1.476  11.694  20.400  0.00  0.00    +0.000 A 
ATOM     20  C   UNL     1      -2.555  12.267  19.694  0.00  0.00    +0.000 A 
ATOM     21  C   UNL     1      -2.808  11.928  18.362  0.00  0.00    +0.000 A 
ATOM     22  C   UNL     1      -2.020  10.972  17.734  0.00  0.00    +0.000 A 
ATOM     23 CL   UNL     1      -2.278  10.607  16.074  0.00  0.00    +0.000 Cl
ATOM     24  C   UNL     1      -1.010  10.321  18.436  0.00  0.00    +0.000 A 
ATOM     25  C   UNL     1      -0.739  10.679  19.760  0.00  0.00    +0.000 A 
ATOM     26 CL   UNL     1       0.544   9.828  20.547  0.00  0.00    +0.000 Cl
ENDBRANCH   6  19
TORSDOF 2
ENDMDL
MODEL 7
REMARK VINA RESULT:      -7.5      5.698      8.267
REMARK  Name = 
REMARK  3 active torsions:
REMARK  status: ('A' for Active; 'I' for Inactive)
REMARK    1  A    between atoms: C_1  and  C_2
REMARK    2  A    between atoms: C_9  and  N_10
REMARK    3  A    between atoms: C_15  and  C_16
REMARK                            x       y       z     vdW  Elec       q    Type
REMARK                         _______ _______ _______ _____ _____    ______ ____
ROOT
ATOM      1  N   UNL     1       0.154  10.335  21.513  0.00  0.00    +0.000 N 
ATOM      2  C   UNL     1       0.925   9.545  22.368  0.00  0.00    +0.000 C 
ATOM      3  O   UNL     1       0.973   9.649  23.591  0.00  0.00    +0.000 OA
ATOM      4  C   UNL     1       1.677   8.459  21.626  0.00  0.00    +0.000 C 
ATOM      5  S   UNL     1       1.285   8.632  19.874  0.00  0.00    +0.000 S 
ATOM      6  C   UNL     1       0.562  10.279  20.109  0.00  0.00    +0.000 C 
ENDROOT
BRANCH   1  15
ATOM      7  C   UNL     1      -2.537  16.043  23.738  0.00  0.00    +0.000 C 
ATOM      8  C   UNL     1      -2.993  14.616  23.662  0.00  0.00    +0.000 A 
ATOM      9  C   UNL     1      -4.193  14.251  24.138  0.00  0.00    +0.000 A 
ATOM     10  C   UNL     1      -4.689  12.868  24.122  0.00  0.00    +0.000 A 
ATOM     11  O   UNL     1      -5.809  12.594  24.538  0.00  0.00    +0.000 OA
ATOM     12  O   UNL     1      -3.826  11.908  23.634  0.00  0.00    +0.000 OA
ATOM     13  C   UNL     1      -2.573  12.262  23.106  0.00  0.00    +0.000 A 
ATOM     14  C   UNL     1      -1.814  11.208  22.600  0.00  0.00    +0.000 A 
ATOM     15  C   UNL     1      -0.577  11.446  22.009  0.00  0.00    +0.000 A 
ATOM     16  C   UNL     1      -0.088  12.754  21.991  0.00  0.00    +0.000 A 
ATOM     17  C   UNL     1      -0.859  13.814  22.519  0.00  0.00    +0.000 A 
ATOM     18  C   UNL     1      -2.124  13.581  23.080  0.00  0.00    +0.000 A 
ENDBRANCH   1  15
BRANCH   6  19
ATOM     19  C   UNL     1      -0.513  10.595  19.087  0.00  0.00    +0.000 A 
ATOM     20  C   UNL     1      -1.510   9.640  18.791  0.00  0.00    +0.000 A 
ATOM     21  C   UNL     1      -2.625   9.977  18.019  0.00  0.00    +0.000 A 
ATOM     22  C   UNL     1      -2.732  11.255  17.485  0.00  0.00    +0.000 A 
ATOM     23 CL   UNL     1      -4.138  11.697  16.599  0.00  0.00    +0.000 Cl
ATOM     24  C   UNL     1      -1.717  12.186  17.680  0.00  0.00    +0.000 A 
ATOM     25  C   UNL     1      -0.614  11.859  18.475  0.00  0.00    +0.000 A 
ATOM     26 CL   UNL     1       0.590  13.084  18.676  0.00  0.00    +0.000 Cl
ENDBRANCH   6  19
TORSDOF 2
ENDMDL
MODEL 8
REMARK VINA RESULT:      -7.5      8.668     10.500
REMARK  Name = 
REMARK  3 active torsions:
REMARK  status: ('A' for Active; 'I' for Inactive)
REMARK    1  A    between atoms: C_1  and  C_2
REMARK    2  A    between atoms: C_9  and  N_10
REMARK    3  A    between atoms: C_15  and  C_16
REMARK                            x       y       z     vdW  Elec       q    Type
REMARK                         _______ _______ _______ _____ _____    ______ ____
ROOT
ATOM      1  N   UNL     1       9.715  15.858  19.661  0.00  0.00    +0.000 N 
ATOM      2  C   UNL     1      10.186  17.097  20.098  0.00  0.00    +0.000 C 
ATOM      3  O   UNL     1       9.489  18.060  20.409  0.00  0.00    +0.000 OA
ATOM      4  C   UNL     1      11.695  17.127  20.223  0.00  0.00    +0.000 C 
ATOM      5  S   UNL     1      12.311  15.507  19.724  0.00  0.00    +0.000 S 
ATOM      6  C   UNL     1      10.720  15.033  18.992  0.00  0.00    +0.000 C 
ENDROOT
BRANCH   1  15
ATOM      7  C   UNL     1       3.357  15.152  17.693  0.00  0.00    +0.000 C 
ATOM      8  C   UNL     1       4.079  15.043  19.003  0.00  0.00    +0.000 A 
ATOM      9  C   UNL     1       3.413  14.768  20.136  0.00  0.00    +0.000 A 
ATOM     10  C   UNL     1       4.052  14.675  21.455  0.00  0.00    +0.000 A 
ATOM     11  O   UNL     1       3.402  14.385  22.453  0.00  0.00    +0.000 OA
ATOM     12  O   UNL     1       5.405  14.946  21.506  0.00  0.00    +0.000 OA
ATOM     13  C   UNL     1       6.134  15.213  20.336  0.00  0.00    +0.000 A 
ATOM     14  C   UNL     1       7.501  15.422  20.514  0.00  0.00    +0.000 A 
ATOM     15  C   UNL     1       8.331  15.648  19.421  0.00  0.00    +0.000 A 
ATOM     16  C   UNL     1       7.755  15.721  18.150  0.00  0.00    +0.000 A 
ATOM     17  C   UNL     1       6.366  15.521  17.982  0.00  0.00    +0.000 A 
ATOM     18  C   UNL     1       5.533  15.254  19.080  0.00  0.00    +0.000 A 
ENDBRANCH   1  15
BRANCH   6  19
ATOM     19  C   UNL     1      10.486  13.534  19.025  0.00  0.00    +0.000 A 
ATOM     20  C   UNL     1      10.053  12.913  20.216  0.00  0.00    +0.000 A 
ATOM     21  C   UNL     1       9.629  11.581  20.222  0.00  0.00    +0.000 A 
ATOM     22  C   UNL     1       9.684  10.836  19.051  0.00  0.00    +0.000 A 
ATOM     23 CL   UNL     1       9.093   9.222  19.035  0.00  0.00    +0.000 Cl
ATOM     24  C   UNL     1      10.197  11.395  17.885  0.00  0.00    +0.000 A 
ATOM     25  C   UNL     1      10.596  12.735  17.871  0.00  0.00    +0.000 A 
ATOM     26 CL   UNL     1      11.205  13.348  16.374  0.00  0.00    +0.000 Cl
ENDBRANCH   6  19
TORSDOF 2
ENDMDL
MODEL 9
REMARK VINA RESULT:      -7.5      7.670     11.461
REMARK  Name = 
REMARK  3 active torsions:
REMARK  status: ('A' for Active; 'I' for Inactive)
REMARK    1  A    between atoms: C_1  and  C_2
REMARK    2  A    between atoms: C_9  and  N_10
REMARK    3  A    between atoms: C_15  and  C_16
REMARK                            x       y       z     vdW  Elec       q    Type
REMARK                         _______ _______ _______ _____ _____    ______ ____
ROOT
ATOM      1  N   UNL     1      -3.706  14.566  20.949  0.00  0.00    +0.000 N 
ATOM      2  C   UNL     1      -3.182  15.859  20.902  0.00  0.00    +0.000 C 
ATOM      3  O   UNL     1      -1.998  16.158  21.037  0.00  0.00    +0.000 OA
ATOM      4  C   UNL     1      -4.241  16.897  20.592  0.00  0.00    +0.000 C 
ATOM      5  S   UNL     1      -5.813  16.031  20.419  0.00  0.00    +0.000 S 
ATOM      6  C   UNL     1      -5.153  14.509  21.153  0.00  0.00    +0.000 C 
ENDROOT
BRANCH   1  15
ATOM      7  C   UNL     1      -0.006   9.557  23.399  0.00  0.00    +0.000 C 
ATOM      8  C   UNL     1      -0.246  10.127  22.032  0.00  0.00    +0.000 A 
ATOM      9  C   UNL     1       0.384   9.626  20.958  0.00  0.00    +0.000 A 
ATOM     10  C   UNL     1       0.218  10.154  19.596  0.00  0.00    +0.000 A 
ATOM     11  O   UNL     1       0.789   9.637  18.645  0.00  0.00    +0.000 OA
ATOM     12  O   UNL     1      -0.596  11.261  19.459  0.00  0.00    +0.000 OA
ATOM     13  C   UNL     1      -1.287  11.793  20.561  0.00  0.00    +0.000 A 
ATOM     14  C   UNL     1      -2.114  12.880  20.283  0.00  0.00    +0.000 A 
ATOM     15  C   UNL     1      -2.884  13.458  21.287  0.00  0.00    +0.000 A 
ATOM     16  C   UNL     1      -2.763  12.964  22.588  0.00  0.00    +0.000 A 
ATOM     17  C   UNL     1      -1.911  11.870  22.861  0.00  0.00    +0.000 A 
ATOM     18  C   UNL     1      -1.163  11.261  21.841  0.00  0.00    +0.000 A 
ENDBRANCH   1  15
BRANCH   6  19
ATOM     19  C   UNL     1      -5.853  13.264  20.641  0.00  0.00    +0.000 A 
ATOM     20  C   UNL     1      -5.636  12.825  19.317  0.00  0.00    +0.000 A 
ATOM     21  C   UNL     1      -6.095  11.578  18.886  0.00  0.00    +0.000 A 
ATOM     22  C   UNL     1      -6.824  10.774  19.755  0.00  0.00    +0.000 A 
ATOM     23 CL   UNL     1      -7.324   9.207  19.254  0.00  0.00    +0.000 Cl
ATOM     24  C   UNL     1      -7.134  11.223  21.034  0.00  0.00    +0.000 A 
ATOM     25  C   UNL     1      -6.653  12.460  21.475  0.00  0.00    +0.000 A 
ATOM     26 CL   UNL     1      -7.075  12.928  23.085  0.00  0.00    +0.000 Cl
ENDBRANCH   6  19
TORSDOF 2
ENDMDL
