MODEL 1
REMARK VINA RESULT:      -8.8      0.000      0.000
REMARK  Name = 
REMARK  5 active torsions:
REMARK  status: ('A' for Active; 'I' for Inactive)
REMARK    1  A    between atoms: O_1  and  C_2
REMARK    2  A    between atoms: C_2  and  C_3
REMARK    3  A    between atoms: C_2  and  C_10
REMARK    4  A    between atoms: C_3  and  C_4
REMARK    5  A    between atoms: C_20  and  C_21
REMARK                            x       y       z     vdW  Elec       q    Type
REMARK                         _______ _______ _______ _____ _____    ______ ____
ROOT
ATOM      1  C   UNL     1       4.182   5.321  16.883  0.00  0.00    +0.000 A 
ATOM      2  C   UNL     1       3.763   6.633  17.117  0.00  0.00    +0.000 A 
ATOM      3  C   UNL     1       2.956   6.987  18.183  0.00  0.00    +0.000 A 
ATOM      4  C   UNL     1       2.586   8.346  18.250  0.00  0.00    +0.000 A 
ATOM      5  C   UNL     1       1.794   8.822  19.277  0.00  0.00    +0.000 A 
ATOM      6 CL   UNL     1       1.343  10.477  19.344  0.00  0.00    +0.000 Cl
ATOM      7  C   UNL     1       1.384   7.946  20.252  0.00  0.00    +0.000 A 
ATOM      8  C   UNL     1       1.768   6.595  20.179  0.00  0.00    +0.000 A 
ATOM      9  C   UNL     1       2.546   6.017  19.138  0.00  0.00    +0.000 A 
ATOM     10  C   UNL     1       2.936   4.588  18.951  0.00  0.00    +0.000 A 
ATOM     11  C   UNL     1       2.622   3.420  19.789  0.00  0.00    +0.000 A 
ATOM     12  C   UNL     1       3.092   2.122  19.432  0.00  0.00    +0.000 A 
ATOM     13  C   UNL     1       3.789   1.887  18.281  0.00  0.00    +0.000 A 
ATOM     14  C   UNL     1       4.067   2.961  17.455  0.00  0.00    +0.000 A 
ATOM     15  C   UNL     1       3.736   4.296  17.770  0.00  0.00    +0.000 A 
ENDROOT
BRANCH  11  16
ATOM     16  C   UNL     1       1.819   3.288  21.083  0.00  0.00    +0.000 C 
ATOM     17  F   UNL     1       1.676   2.094  21.685  0.00  0.00    +0.000 F 
ATOM     18  F   UNL     1       2.354   4.080  22.066  0.00  0.00    +0.000 F 
ATOM     19  F   UNL     1       0.546   3.759  20.918  0.00  0.00    +0.000 F 
ENDBRANCH  11  16
BRANCH   1  20
ATOM     20  C   UNL     1       5.048   5.092  15.626  0.00  0.00    +0.000 C 
BRANCH  20  21
ATOM     21  O   UNL     1       5.160   6.295  14.846  0.00  0.00    +0.000 OA
ATOM     22  H   UNL     1       5.317   6.045  13.920  0.00  0.00    +0.000 HD
ENDBRANCH  20  21
BRANCH  20  23
ATOM     23  C   UNL     1       6.465   4.505  15.812  0.00  0.00    +0.000 C 
BRANCH  23  24
ATOM     24  C   UNL     1       7.433   5.227  16.766  0.00  0.00    +0.000 C 
ATOM     25  C   UNL     1       7.263   4.829  18.241  0.00  0.00    +0.000 C 
ATOM     26  C   UNL     1       8.133   5.689  19.158  0.00  0.00    +0.000 C 
ATOM     27  C   UNL     1       7.891   7.172  18.904  0.00  0.00    +0.000 C 
ATOM     28  C   UNL     1       8.033   7.504  17.424  0.00  0.00    +0.000 C 
ATOM     29  N   UNL     1       7.155   6.670  16.605  0.00  0.00    +0.000 NA
ATOM     30  H   UNL     1       7.274   6.936  15.628  0.00  0.00    +0.000 HD
ENDBRANCH  23  24
ENDBRANCH  20  23
ENDBRANCH   1  20
TORSDOF 5
ENDMDL
MODEL 2
REMARK VINA RESULT:      -8.5      3.405      6.296
REMARK  Name = 
REMARK  5 active torsions:
REMARK  status: ('A' for Active; 'I' for Inactive)
REMARK    1  A    between atoms: O_1  and  C_2
REMARK    2  A    between atoms: C_2  and  C_3
REMARK    3  A    between atoms: C_2  and  C_10
REMARK    4  A    between atoms: C_3  and  C_4
REMARK    5  A    between atoms: C_20  and  C_21
REMARK                            x       y       z     vdW  Elec       q    Type
REMARK                         _______ _______ _______ _____ _____    ______ ____
ROOT
ATOM      1  C   UNL     1       2.848   7.592  18.078  0.00  0.00    +0.000 A 
ATOM      2  C   UNL     1       3.726   7.400  17.008  0.00  0.00    +0.000 A 
ATOM      3  C   UNL     1       4.406   6.216  16.794  0.00  0.00    +0.000 A 
ATOM      4  C   UNL     1       5.289   6.202  15.695  0.00  0.00    +0.000 A 
ATOM      5  C   UNL     1       6.014   5.072  15.372  0.00  0.00    +0.000 A 
ATOM      6 CL   UNL     1       7.091   5.069  14.036  0.00  0.00    +0.000 Cl
ATOM      7  C   UNL     1       5.846   3.943  16.137  0.00  0.00    +0.000 A 
ATOM      8  C   UNL     1       4.956   3.966  17.225  0.00  0.00    +0.000 A 
ATOM      9  C   UNL     1       4.203   5.096  17.648  0.00  0.00    +0.000 A 
ATOM     10  C   UNL     1       3.295   5.224  18.826  0.00  0.00    +0.000 A 
ATOM     11  C   UNL     1       2.945   4.220  19.844  0.00  0.00    +0.000 A 
ATOM     12  C   UNL     1       2.049   4.543  20.905  0.00  0.00    +0.000 A 
ATOM     13  C   UNL     1       1.531   5.797  21.069  0.00  0.00    +0.000 A 
ATOM     14  C   UNL     1       1.872   6.770  20.147  0.00  0.00    +0.000 A 
ATOM     15  C   UNL     1       2.666   6.524  19.007  0.00  0.00    +0.000 A 
ENDROOT
BRANCH  11  16
ATOM     16  C   UNL     1       3.381   2.766  20.025  0.00  0.00    +0.000 C 
ATOM     17  F   UNL     1       4.684   2.446  20.114  0.00  0.00    +0.000 F 
ATOM     18  F   UNL     1       2.843   2.240  21.171  0.00  0.00    +0.000 F 
ATOM     19  F   UNL     1       2.887   1.980  19.021  0.00  0.00    +0.000 F 
ENDBRANCH  11  16
BRANCH   1  20
ATOM     20  C   UNL     1       2.199   8.988  18.192  0.00  0.00    +0.000 C 
BRANCH  20  21
ATOM     21  O   UNL     1       2.917   9.959  17.411  0.00  0.00    +0.000 OA
ATOM     22  H   UNL     1       3.863   9.738  17.442  0.00  0.00    +0.000 HD
ENDBRANCH  20  21
BRANCH  20  23
ATOM     23  C   UNL     1       0.696   9.123  17.866  0.00  0.00    +0.000 C 
BRANCH  23  24
ATOM     24  C   UNL     1      -0.033  10.406  18.308  0.00  0.00    +0.000 C 
ATOM     25  C   UNL     1      -0.502  10.380  19.771  0.00  0.00    +0.000 C 
ATOM     26  C   UNL     1      -1.355  11.603  20.108  0.00  0.00    +0.000 C 
ATOM     27  C   UNL     1      -2.499  11.758  19.114  0.00  0.00    +0.000 C 
ATOM     28  C   UNL     1      -1.984  11.738  17.680  0.00  0.00    +0.000 C 
ATOM     29  N   UNL     1      -1.203  10.532  17.413  0.00  0.00    +0.000 NA
ATOM     30  H   UNL     1      -0.892  10.555  16.442  0.00  0.00    +0.000 HD
ENDBRANCH  23  24
ENDBRANCH  20  23
ENDBRANCH   1  20
TORSDOF 5
ENDMDL
MODEL 3
REMARK VINA RESULT:      -8.5      3.320      6.206
REMARK  Name = 
REMARK  5 active torsions:
REMARK  status: ('A' for Active; 'I' for Inactive)
REMARK    1  A    between atoms: O_1  and  C_2
REMARK    2  A    between atoms: C_2  and  C_3
REMARK    3  A    between atoms: C_2  and  C_10
REMARK    4  A    between atoms: C_3  and  C_4
REMARK    5  A    between atoms: C_20  and  C_21
REMARK                            x       y       z     vdW  Elec       q    Type
REMARK                         _______ _______ _______ _____ _____    ______ ____
ROOT
ATOM      1  C   UNL     1       2.899   7.518  18.038  0.00  0.00    +0.000 A 
ATOM      2  C   UNL     1       3.773   7.329  16.964  0.00  0.00    +0.000 A 
ATOM      3  C   UNL     1       4.439   6.138  16.735  0.00  0.00    +0.000 A 
ATOM      4  C   UNL     1       5.320   6.128  15.635  0.00  0.00    +0.000 A 
ATOM      5  C   UNL     1       6.031   4.992  15.298  0.00  0.00    +0.000 A 
ATOM      6 CL   UNL     1       7.107   4.992  13.961  0.00  0.00    +0.000 Cl
ATOM      7  C   UNL     1       5.850   3.856  16.049  0.00  0.00    +0.000 A 
ATOM      8  C   UNL     1       4.962   3.877  17.139  0.00  0.00    +0.000 A 
ATOM      9  C   UNL     1       4.223   5.012  17.576  0.00  0.00    +0.000 A 
ATOM     10  C   UNL     1       3.318   5.136  18.757  0.00  0.00    +0.000 A 
ATOM     11  C   UNL     1       2.956   4.124  19.763  0.00  0.00    +0.000 A 
ATOM     12  C   UNL     1       2.066   4.446  20.829  0.00  0.00    +0.000 A 
ATOM     13  C   UNL     1       1.564   5.704  21.009  0.00  0.00    +0.000 A 
ATOM     14  C   UNL     1       1.916   6.684  20.098  0.00  0.00    +0.000 A 
ATOM     15  C   UNL     1       2.705   6.442  18.954  0.00  0.00    +0.000 A 
ENDROOT
BRANCH  11  16
ATOM     16  C   UNL     1       3.375   2.664  19.926  0.00  0.00    +0.000 C 
ATOM     17  F   UNL     1       3.089   1.756  18.975  0.00  0.00    +0.000 F 
ATOM     18  F   UNL     1       4.735   2.563  20.065  0.00  0.00    +0.000 F 
ATOM     19  F   UNL     1       2.872   2.139  21.084  0.00  0.00    +0.000 F 
ENDBRANCH  11  16
BRANCH   1  20
ATOM     20  C   UNL     1       2.268   8.921  18.169  0.00  0.00    +0.000 C 
BRANCH  20  21
ATOM     21  O   UNL     1       3.029   9.903  17.445  0.00  0.00    +0.000 OA
ATOM     22  H   UNL     1       3.699   9.440  16.914  0.00  0.00    +0.000 HD
ENDBRANCH  20  21
BRANCH  20  23
ATOM     23  C   UNL     1       0.780   9.091  17.792  0.00  0.00    +0.000 C 
BRANCH  23  24
ATOM     24  C   UNL     1      -0.039  10.169  18.523  0.00  0.00    +0.000 C 
ATOM     25  C   UNL     1      -1.445  10.383  17.940  0.00  0.00    +0.000 C 
ATOM     26  C   UNL     1      -2.150  11.569  18.597  0.00  0.00    +0.000 C 
ATOM     27  C   UNL     1      -1.280  12.819  18.541  0.00  0.00    +0.000 C 
ATOM     28  C   UNL     1       0.112  12.541  19.095  0.00  0.00    +0.000 C 
ATOM     29  N   UNL     1       0.744  11.418  18.405  0.00  0.00    +0.000 NA
ATOM     30  H   UNL     1       1.674  11.278  18.798  0.00  0.00    +0.000 HD
ENDBRANCH  23  24
ENDBRANCH  20  23
ENDBRANCH   1  20
TORSDOF 5
ENDMDL
MODEL 4
REMARK VINA RESULT:      -8.5      3.250      6.014
REMARK  Name = 
REMARK  5 active torsions:
REMARK  status: ('A' for Active; 'I' for Inactive)
REMARK    1  A    between atoms: O_1  and  C_2
REMARK    2  A    between atoms: C_2  and  C_3
REMARK    3  A    between atoms: C_2  and  C_10
REMARK    4  A    between atoms: C_3  and  C_4
REMARK    5  A    between atoms: C_20  and  C_21
REMARK                            x       y       z     vdW  Elec       q    Type
REMARK                         _______ _______ _______ _____ _____    ______ ____
ROOT
ATOM      1  C   UNL     1       2.920   7.242  18.230  0.00  0.00    +0.000 A 
ATOM      2  C   UNL     1       3.871   7.212  17.206  0.00  0.00    +0.000 A 
ATOM      3  C   UNL     1       4.463   6.044  16.762  0.00  0.00    +0.000 A 
ATOM      4  C   UNL     1       5.436   6.193  15.753  0.00  0.00    +0.000 A 
ATOM      5  C   UNL     1       6.086   5.097  15.219  0.00  0.00    +0.000 A 
ATOM      6 CL   UNL     1       7.275   5.291  13.996  0.00  0.00    +0.000 Cl
ATOM      7  C   UNL     1       5.753   3.846  15.678  0.00  0.00    +0.000 A 
ATOM      8  C   UNL     1       4.775   3.710  16.679  0.00  0.00    +0.000 A 
ATOM      9  C   UNL     1       4.088   4.786  17.308  0.00  0.00    +0.000 A 
ATOM     10  C   UNL     1       3.092   4.732  18.419  0.00  0.00    +0.000 A 
ATOM     11  C   UNL     1       2.566   3.562  19.142  0.00  0.00    +0.000 A 
ATOM     12  C   UNL     1       1.611   3.724  20.187  0.00  0.00    +0.000 A 
ATOM     13  C   UNL     1       1.190   4.953  20.611  0.00  0.00    +0.000 A 
ATOM     14  C   UNL     1       1.696   6.072  19.974  0.00  0.00    +0.000 A 
ATOM     15  C   UNL     1       2.564   6.014  18.864  0.00  0.00    +0.000 A 
ENDROOT
BRANCH  11  16
ATOM     16  C   UNL     1       2.857   2.069  18.999  0.00  0.00    +0.000 C 
ATOM     17  F   UNL     1       2.980   1.505  17.784  0.00  0.00    +0.000 F 
ATOM     18  F   UNL     1       4.035   1.744  19.622  0.00  0.00    +0.000 F 
ATOM     19  F   UNL     1       1.910   1.323  19.645  0.00  0.00    +0.000 F 
ENDBRANCH  11  16
BRANCH   1  20
ATOM     20  C   UNL     1       2.387   8.635  18.631  0.00  0.00    +0.000 C 
BRANCH  20  21
ATOM     21  O   UNL     1       2.383   9.532  17.508  0.00  0.00    +0.000 OA
ATOM     22  H   UNL     1       2.808  10.363  17.778  0.00  0.00    +0.000 HD
ENDBRANCH  20  21
BRANCH  20  23
ATOM     23  C   UNL     1       1.007   8.718  19.319  0.00  0.00    +0.000 C 
BRANCH  23  24
ATOM     24  C   UNL     1       0.894   9.514  20.632  0.00  0.00    +0.000 C 
ATOM     25  C   UNL     1       0.134   8.772  21.744  0.00  0.00    +0.000 C 
ATOM     26  C   UNL     1      -0.087   9.666  22.964  0.00  0.00    +0.000 C 
ATOM     27  C   UNL     1      -0.743  10.982  22.563  0.00  0.00    +0.000 C 
ATOM     28  C   UNL     1       0.027  11.654  21.433  0.00  0.00    +0.000 C 
ATOM     29  N   UNL     1       0.178  10.760  20.287  0.00  0.00    +0.000 NA
ATOM     30  H   UNL     1       0.685  11.255  19.553  0.00  0.00    +0.000 HD
ENDBRANCH  23  24
ENDBRANCH  20  23
ENDBRANCH   1  20
TORSDOF 5
ENDMDL
MODEL 5
REMARK VINA RESULT:      -8.4      1.613      2.623
REMARK  Name = 
REMARK  5 active torsions:
REMARK  status: ('A' for Active; 'I' for Inactive)
REMARK    1  A    between atoms: O_1  and  C_2
REMARK    2  A    between atoms: C_2  and  C_3
REMARK    3  A    between atoms: C_2  and  C_10
REMARK    4  A    between atoms: C_3  and  C_4
REMARK    5  A    between atoms: C_20  and  C_21
REMARK                            x       y       z     vdW  Elec       q    Type
REMARK                         _______ _______ _______ _____ _____    ______ ____
ROOT
ATOM      1  C   UNL     1       4.013   5.623  17.242  0.00  0.00    +0.000 A 
ATOM      2  C   UNL     1       3.505   6.875  17.600  0.00  0.00    +0.000 A 
ATOM      3  C   UNL     1       2.703   7.074  18.708  0.00  0.00    +0.000 A 
ATOM      4  C   UNL     1       2.236   8.391  18.902  0.00  0.00    +0.000 A 
ATOM      5  C   UNL     1       1.438   8.715  19.982  0.00  0.00    +0.000 A 
ATOM      6 CL   UNL     1       0.869  10.319  20.203  0.00  0.00    +0.000 Cl
ATOM      7  C   UNL     1       1.119   7.730  20.884  0.00  0.00    +0.000 A 
ATOM      8  C   UNL     1       1.598   6.423  20.685  0.00  0.00    +0.000 A 
ATOM      9  C   UNL     1       2.389   5.997  19.582  0.00  0.00    +0.000 A 
ATOM     10  C   UNL     1       2.878   4.622  19.261  0.00  0.00    +0.000 A 
ATOM     11  C   UNL     1       2.671   3.366  19.999  0.00  0.00    +0.000 A 
ATOM     12  C   UNL     1       3.226   2.143  19.520  0.00  0.00    +0.000 A 
ATOM     13  C   UNL     1       3.907   2.061  18.339  0.00  0.00    +0.000 A 
ATOM     14  C   UNL     1       4.085   3.221  17.606  0.00  0.00    +0.000 A 
ATOM     15  C   UNL     1       3.666   4.495  18.044  0.00  0.00    +0.000 A 
ENDROOT
BRANCH  11  16
ATOM     16  C   UNL     1       1.914   3.063  21.291  0.00  0.00    +0.000 C 
ATOM     17  F   UNL     1       1.978   1.844  21.856  0.00  0.00    +0.000 F 
ATOM     18  F   UNL     1       2.319   3.903  22.297  0.00  0.00    +0.000 F 
ATOM     19  F   UNL     1       0.579   3.320  21.147  0.00  0.00    +0.000 F 
ENDBRANCH  11  16
BRANCH   1  20
ATOM     20  C   UNL     1       4.861   5.570  15.953  0.00  0.00    +0.000 C 
BRANCH  20  21
ATOM     21  O   UNL     1       5.008   6.877  15.373  0.00  0.00    +0.000 OA
ATOM     22  H   UNL     1       4.850   7.539  16.068  0.00  0.00    +0.000 HD
ENDBRANCH  20  21
BRANCH  20  23
ATOM     23  C   UNL     1       6.258   4.915  16.025  0.00  0.00    +0.000 C 
BRANCH  23  24
ATOM     24  C   UNL     1       6.915   4.453  14.711  0.00  0.00    +0.000 C 
ATOM     25  C   UNL     1       7.653   5.572  13.960  0.00  0.00    +0.000 C 
ATOM     26  C   UNL     1       8.145   5.098  12.592  0.00  0.00    +0.000 C 
ATOM     27  C   UNL     1       7.007   4.484  11.787  0.00  0.00    +0.000 C 
ATOM     28  C   UNL     1       6.285   3.410  12.592  0.00  0.00    +0.000 C 
ATOM     29  N   UNL     1       5.813   3.933  13.872  0.00  0.00    +0.000 NA
ATOM     30  H   UNL     1       5.327   3.186  14.369  0.00  0.00    +0.000 HD
ENDBRANCH  23  24
ENDBRANCH  20  23
ENDBRANCH   1  20
TORSDOF 5
ENDMDL
MODEL 6
REMARK VINA RESULT:      -8.3      1.758      2.788
REMARK  Name = 
REMARK  5 active torsions:
REMARK  status: ('A' for Active; 'I' for Inactive)
REMARK    1  A    between atoms: O_1  and  C_2
REMARK    2  A    between atoms: C_2  and  C_3
REMARK    3  A    between atoms: C_2  and  C_10
REMARK    4  A    between atoms: C_3  and  C_4
REMARK    5  A    between atoms: C_20  and  C_21
REMARK                            x       y       z     vdW  Elec       q    Type
REMARK                         _______ _______ _______ _____ _____    ______ ____
ROOT
ATOM      1  C   UNL     1       4.130   6.194  17.453  0.00  0.00    +0.000 A 
ATOM      2  C   UNL     1       3.487   7.385  17.801  0.00  0.00    +0.000 A 
ATOM      3  C   UNL     1       2.601   7.481  18.859  0.00  0.00    +0.000 A 
ATOM      4  C   UNL     1       2.004   8.744  19.048  0.00  0.00    +0.000 A 
ATOM      5  C   UNL     1       1.113   8.967  20.080  0.00  0.00    +0.000 A 
ATOM      6 CL   UNL     1       0.385  10.507  20.296  0.00  0.00    +0.000 Cl
ATOM      7  C   UNL     1       0.830   7.934  20.940  0.00  0.00    +0.000 A 
ATOM      8  C   UNL     1       1.440   6.682  20.746  0.00  0.00    +0.000 A 
ATOM      9  C   UNL     1       2.335   6.358  19.689  0.00  0.00    +0.000 A 
ATOM     10  C   UNL     1       2.968   5.042  19.374  0.00  0.00    +0.000 A 
ATOM     11  C   UNL     1       2.832   3.754  20.072  0.00  0.00    +0.000 A 
ATOM     12  C   UNL     1       3.526   2.599  19.605  0.00  0.00    +0.000 A 
ATOM     13  C   UNL     1       4.286   2.610  18.469  0.00  0.00    +0.000 A 
ATOM     14  C   UNL     1       4.401   3.800  17.773  0.00  0.00    +0.000 A 
ATOM     15  C   UNL     1       3.839   5.019  18.208  0.00  0.00    +0.000 A 
ENDROOT
BRANCH  11  16
ATOM     16  C   UNL     1       2.027   3.350  21.306  0.00  0.00    +0.000 C 
ATOM     17  F   UNL     1       2.101   2.100  21.797  0.00  0.00    +0.000 F 
ATOM     18  F   UNL     1       2.361   4.135  22.379  0.00  0.00    +0.000 F 
ATOM     19  F   UNL     1       0.693   3.580  21.115  0.00  0.00    +0.000 F 
ENDBRANCH  11  16
BRANCH   1  20
ATOM     20  C   UNL     1       5.058   6.251  16.221  0.00  0.00    +0.000 C 
BRANCH  20  21
ATOM     21  O   UNL     1       6.201   7.088  16.469  0.00  0.00    +0.000 OA
ATOM     22  H   UNL     1       6.924   6.528  16.798  0.00  0.00    +0.000 HD
ENDBRANCH  20  21
BRANCH  20  23
ATOM     23  C   UNL     1       5.559   4.918  15.622  0.00  0.00    +0.000 C 
BRANCH  23  24
ATOM     24  C   UNL     1       5.823   4.854  14.106  0.00  0.00    +0.000 C 
ATOM     25  C   UNL     1       5.526   3.481  13.482  0.00  0.00    +0.000 C 
ATOM     26  C   UNL     1       5.956   3.427  12.016  0.00  0.00    +0.000 C 
ATOM     27  C   UNL     1       7.410   3.856  11.860  0.00  0.00    +0.000 C 
ATOM     28  C   UNL     1       7.658   5.202  12.529  0.00  0.00    +0.000 C 
ATOM     29  N   UNL     1       7.255   5.179  13.933  0.00  0.00    +0.000 NA
ATOM     30  H   UNL     1       7.451   6.093  14.342  0.00  0.00    +0.000 HD
ENDBRANCH  23  24
ENDBRANCH  20  23
ENDBRANCH   1  20
TORSDOF 5
ENDMDL
MODEL 7
REMARK VINA RESULT:      -8.0      3.186      6.068
REMARK  Name = 
REMARK  5 active torsions:
REMARK  status: ('A' for Active; 'I' for Inactive)
REMARK    1  A    between atoms: O_1  and  C_2
REMARK    2  A    between atoms: C_2  and  C_3
REMARK    3  A    between atoms: C_2  and  C_10
REMARK    4  A    between atoms: C_3  and  C_4
REMARK    5  A    between atoms: C_20  and  C_21
REMARK                            x       y       z     vdW  Elec       q    Type
REMARK                         _______ _______ _______ _____ _____    ______ ____
ROOT
ATOM      1  C   UNL     1       2.844   7.601  18.108  0.00  0.00    +0.000 A 
ATOM      2  C   UNL     1       3.722   7.412  17.039  0.00  0.00    +0.000 A 
ATOM      3  C   UNL     1       4.375   6.215  16.802  0.00  0.00    +0.000 A 
ATOM      4  C   UNL     1       5.263   6.205  15.707  0.00  0.00    +0.000 A 
ATOM      5  C   UNL     1       5.962   5.064  15.364  0.00  0.00    +0.000 A 
ATOM      6 CL   UNL     1       7.046   5.064  14.034  0.00  0.00    +0.000 Cl
ATOM      7  C   UNL     1       5.762   3.923  16.102  0.00  0.00    +0.000 A 
ATOM      8  C   UNL     1       4.867   3.944  17.186  0.00  0.00    +0.000 A 
ATOM      9  C   UNL     1       4.140   5.083  17.630  0.00  0.00    +0.000 A 
ATOM     10  C   UNL     1       3.228   5.207  18.807  0.00  0.00    +0.000 A 
ATOM     11  C   UNL     1       2.848   4.190  19.800  0.00  0.00    +0.000 A 
ATOM     12  C   UNL     1       1.954   4.512  20.863  0.00  0.00    +0.000 A 
ATOM     13  C   UNL     1       1.466   5.774  21.052  0.00  0.00    +0.000 A 
ATOM     14  C   UNL     1       1.837   6.759  20.154  0.00  0.00    +0.000 A 
ATOM     15  C   UNL     1       2.630   6.518  19.013  0.00  0.00    +0.000 A 
ENDROOT
BRANCH  11  16
ATOM     16  C   UNL     1       3.247   2.723  19.951  0.00  0.00    +0.000 C 
ATOM     17  F   UNL     1       4.541   2.368  20.046  0.00  0.00    +0.000 F 
ATOM     18  F   UNL     1       2.683   2.182  21.078  0.00  0.00    +0.000 F 
ATOM     19  F   UNL     1       2.746   1.972  18.924  0.00  0.00    +0.000 F 
ENDBRANCH  11  16
BRANCH   1  20
ATOM     20  C   UNL     1       2.229   9.010  18.250  0.00  0.00    +0.000 C 
BRANCH  20  21
ATOM     21  O   UNL     1       2.921   9.964  17.425  0.00  0.00    +0.000 OA
ATOM     22  H   UNL     1       2.358  10.750  17.329  0.00  0.00    +0.000 HD
ENDBRANCH  20  21
BRANCH  20  23
ATOM     23  C   UNL     1       0.712   9.173  18.006  0.00  0.00    +0.000 C 
BRANCH  23  24
ATOM     24  C   UNL     1      -0.082  10.096  18.948  0.00  0.00    +0.000 C 
ATOM     25  C   UNL     1       0.169  11.593  18.706  0.00  0.00    +0.000 C 
ATOM     26  C   UNL     1      -0.516  12.455  19.767  0.00  0.00    +0.000 C 
ATOM     27  C   UNL     1      -0.130  11.999  21.170  0.00  0.00    +0.000 C 
ATOM     28  C   UNL     1      -0.362  10.503  21.342  0.00  0.00    +0.000 C 
ATOM     29  N   UNL     1       0.342   9.735  20.317  0.00  0.00    +0.000 NA
ATOM     30  H   UNL     1       0.170   8.743  20.480  0.00  0.00    +0.000 HD
ENDBRANCH  23  24
ENDBRANCH  20  23
ENDBRANCH   1  20
TORSDOF 5
ENDMDL
MODEL 8
REMARK VINA RESULT:      -7.8      3.364      6.163
REMARK  Name = 
REMARK  5 active torsions:
REMARK  status: ('A' for Active; 'I' for Inactive)
REMARK    1  A    between atoms: O_1  and  C_2
REMARK    2  A    between atoms: C_2  and  C_3
REMARK    3  A    between atoms: C_2  and  C_10
REMARK    4  A    between atoms: C_3  and  C_4
REMARK    5  A    between atoms: C_20  and  C_21
REMARK                            x       y       z     vdW  Elec       q    Type
REMARK                         _______ _______ _______ _____ _____    ______ ____
ROOT
ATOM      1  C   UNL     1       2.774   7.113  18.380  0.00  0.00    +0.000 A 
ATOM      2  C   UNL     1       3.765   7.158  17.395  0.00  0.00    +0.000 A 
ATOM      3  C   UNL     1       4.376   6.026  16.889  0.00  0.00    +0.000 A 
ATOM      4  C   UNL     1       5.389   6.248  15.933  0.00  0.00    +0.000 A 
ATOM      5  C   UNL     1       6.061   5.194  15.346  0.00  0.00    +0.000 A 
ATOM      6 CL   UNL     1       7.298   5.476  14.189  0.00  0.00    +0.000 Cl
ATOM      7  C   UNL     1       5.712   3.913  15.697  0.00  0.00    +0.000 A 
ATOM      8  C   UNL     1       4.694   3.704  16.644  0.00  0.00    +0.000 A 
ATOM      9  C   UNL     1       3.981   4.731  17.324  0.00  0.00    +0.000 A 
ATOM     10  C   UNL     1       2.941   4.595  18.388  0.00  0.00    +0.000 A 
ATOM     11  C   UNL     1       2.389   3.376  18.999  0.00  0.00    +0.000 A 
ATOM     12  C   UNL     1       1.392   3.461  20.014  0.00  0.00    +0.000 A 
ATOM     13  C   UNL     1       0.953   4.656  20.512  0.00  0.00    +0.000 A 
ATOM     14  C   UNL     1       1.482   5.818  19.981  0.00  0.00    +0.000 A 
ATOM     15  C   UNL     1       2.395   5.842  18.905  0.00  0.00    +0.000 A 
ENDROOT
BRANCH  11  16
ATOM     16  C   UNL     1       2.687   1.897  18.757  0.00  0.00    +0.000 C 
ATOM     17  F   UNL     1       3.881   1.373  19.088  0.00  0.00    +0.000 F 
ATOM     18  F   UNL     1       1.793   1.107  19.433  0.00  0.00    +0.000 F 
ATOM     19  F   UNL     1       2.506   1.572  17.442  0.00  0.00    +0.000 F 
ENDBRANCH  11  16
BRANCH   1  20
ATOM     20  C   UNL     1       2.224   8.473  18.862  0.00  0.00    +0.000 C 
BRANCH  20  21
ATOM     21  O   UNL     1       1.034   8.836  18.141  0.00  0.00    +0.000 OA
ATOM     22  H   UNL     1       0.331   9.023  18.786  0.00  0.00    +0.000 HD
ENDBRANCH  20  21
BRANCH  20  23
ATOM     23  C   UNL     1       1.948   8.655  20.370  0.00  0.00    +0.000 C 
BRANCH  23  24
ATOM     24  C   UNL     1       0.676   9.413  20.792  0.00  0.00    +0.000 C 
ATOM     25  C   UNL     1       0.788  10.940  20.652  0.00  0.00    +0.000 C 
ATOM     26  C   UNL     1      -0.436  11.648  21.232  0.00  0.00    +0.000 C 
ATOM     27  C   UNL     1      -0.700  11.194  22.663  0.00  0.00    +0.000 C 
ATOM     28  C   UNL     1      -0.762   9.674  22.751  0.00  0.00    +0.000 C 
ATOM     29  N   UNL     1       0.448   9.059  22.209  0.00  0.00    +0.000 NA
ATOM     30  H   UNL     1       0.367   8.047  22.302  0.00  0.00    +0.000 HD
ENDBRANCH  23  24
ENDBRANCH  20  23
ENDBRANCH   1  20
TORSDOF 5
ENDMDL
MODEL 9
REMARK VINA RESULT:      -7.8      3.312      5.946
REMARK  Name = 
REMARK  5 active torsions:
REMARK  status: ('A' for Active; 'I' for Inactive)
REMARK    1  A    between atoms: O_1  and  C_2
REMARK    2  A    between atoms: C_2  and  C_3
REMARK    3  A    between atoms: C_2  and  C_10
REMARK    4  A    between atoms: C_3  and  C_4
REMARK    5  A    between atoms: C_20  and  C_21
REMARK                            x       y       z     vdW  Elec       q    Type
REMARK                         _______ _______ _______ _____ _____    ______ ____
ROOT
ATOM      1  C   UNL     1       2.548   6.857  18.563  0.00  0.00    +0.000 A 
ATOM      2  C   UNL     1       3.526   7.034  17.581  0.00  0.00    +0.000 A 
ATOM      3  C   UNL     1       4.271   5.990  17.063  0.00  0.00    +0.000 A 
ATOM      4  C   UNL     1       5.249   6.345  16.111  0.00  0.00    +0.000 A 
ATOM      5  C   UNL     1       6.045   5.388  15.513  0.00  0.00    +0.000 A 
ATOM      6 CL   UNL     1       7.238   5.833  14.361  0.00  0.00    +0.000 Cl
ATOM      7  C   UNL     1       5.856   4.070  15.849  0.00  0.00    +0.000 A 
ATOM      8  C   UNL     1       4.872   3.728  16.793  0.00  0.00    +0.000 A 
ATOM      9  C   UNL     1       4.038   4.652  17.483  0.00  0.00    +0.000 A 
ATOM     10  C   UNL     1       3.023   4.378  18.544  0.00  0.00    +0.000 A 
ATOM     11  C   UNL     1       2.624   3.094  19.142  0.00  0.00    +0.000 A 
ATOM     12  C   UNL     1       1.624   3.045  20.157  0.00  0.00    +0.000 A 
ATOM     13  C   UNL     1       1.042   4.171  20.666  0.00  0.00    +0.000 A 
ATOM     14  C   UNL     1       1.425   5.395  20.148  0.00  0.00    +0.000 A 
ATOM     15  C   UNL     1       2.327   5.543  19.074  0.00  0.00    +0.000 A 
ENDROOT
BRANCH  11  16
ATOM     16  C   UNL     1       3.101   1.665  18.884  0.00  0.00    +0.000 C 
ATOM     17  F   UNL     1       3.342   1.236  17.632  0.00  0.00    +0.000 F 
ATOM     18  F   UNL     1       4.284   1.426  19.536  0.00  0.00    +0.000 F 
ATOM     19  F   UNL     1       2.228   0.756  19.412  0.00  0.00    +0.000 F 
ENDBRANCH  11  16
BRANCH   1  20
ATOM     20  C   UNL     1       1.835   8.133  19.059  0.00  0.00    +0.000 C 
BRANCH  20  21
ATOM     21  O   UNL     1       2.187   8.428  20.422  0.00  0.00    +0.000 OA
ATOM     22  H   UNL     1       3.147   8.577  20.464  0.00  0.00    +0.000 HD
ENDBRANCH  20  21
BRANCH  20  23
ATOM     23  C   UNL     1       1.992   9.427  18.230  0.00  0.00    +0.000 C 
BRANCH  23  24
ATOM     24  C   UNL     1       1.372  10.724  18.779  0.00  0.00    +0.000 C 
ATOM     25  C   UNL     1      -0.159  10.780  18.656  0.00  0.00    +0.000 C 
ATOM     26  C   UNL     1      -0.705  12.148  19.065  0.00  0.00    +0.000 C 
ATOM     27  C   UNL     1      -0.001  13.264  18.304  0.00  0.00    +0.000 C 
ATOM     28  C   UNL     1       1.513  13.139  18.426  0.00  0.00    +0.000 C 
ATOM     29  N   UNL     1       1.974  11.822  17.992  0.00  0.00    +0.000 NA
ATOM     30  H   UNL     1       2.990  11.789  18.078  0.00  0.00    +0.000 HD
ENDBRANCH  23  24
ENDBRANCH  20  23
ENDBRANCH   1  20
TORSDOF 5
ENDMDL
