MODEL 1
REMARK VINA RESULT:      -7.4      0.000      0.000
REMARK  Name = 
REMARK  8 active torsions:
REMARK  status: ('A' for Active; 'I' for Inactive)
REMARK    1  A    between atoms: C_1  and  C_2
REMARK    2  A    between atoms: C_2  and  N_3
REMARK    3  A    between atoms: N_3  and  C_4
REMARK    4  A    between atoms: C_4  and  C_5
REMARK    5  A    between atoms: N_7  and  C_8
REMARK    6  A    between atoms: C_8  and  C_9
REMARK    7  A    between atoms: C_16  and  C_18
REMARK    8  A    between atoms: C_19  and  C_20
REMARK                            x       y       z     vdW  Elec       q    Type
REMARK                         _______ _______ _______ _____ _____    ______ ____
ROOT
ATOM      1  C   UNL     1       5.285   6.863  16.318  0.00  0.00    +0.000 C 
ENDROOT
BRANCH   1   2
ATOM      2  C   UNL     1       4.104   7.040  17.291  0.00  0.00    +0.000 C 
ATOM      3  O   UNL     1       3.648   8.152  17.553  0.00  0.00    +0.000 OA
ATOM      4  N   UNL     1       3.570   5.884  17.826  0.00  0.00    +0.000 N 
ATOM      5  H   UNL     1       4.045   5.003  17.696  0.00  0.00    +0.000 HD
BRANCH   4   6
ATOM      6  C   UNL     1       2.554   5.954  18.859  0.00  0.00    +0.000 C 
BRANCH   6   7
ATOM      7  C   UNL     1       2.497   4.704  19.701  0.00  0.00    +0.000 A 
ATOM      8  C   UNL     1       3.534   3.757  19.674  0.00  0.00    +0.000 A 
ATOM      9  C   UNL     1       3.490   2.637  20.510  0.00  0.00    +0.000 A 
ATOM     10  C   UNL     1       2.411   2.461  21.367  0.00  0.00    +0.000 A 
ATOM     11  F   UNL     1       2.378   1.395  22.178  0.00  0.00    +0.000 F 
ATOM     12  C   UNL     1       1.368   3.377  21.400  0.00  0.00    +0.000 A 
ATOM     13  C   UNL     1       1.408   4.496  20.565  0.00  0.00    +0.000 A 
ENDBRANCH   6   7
ENDBRANCH   4   6
ENDBRANCH   1   2
BRANCH   1  14
ATOM     14  N   UNL     1       6.429   6.106  16.859  0.00  0.00    +0.000 N 
ATOM     15  C   UNL     1       6.877   4.882  16.356  0.00  0.00    +0.000 C 
ATOM     16  O   UNL     1       7.916   4.355  16.763  0.00  0.00    +0.000 OA
BRANCH  14  18
ATOM     17  C   UNL     1       7.857   8.108  17.618  0.00  0.00    +0.000 C 
ATOM     18  C   UNL     1       7.331   6.704  17.848  0.00  0.00    +0.000 C 
ENDBRANCH  14  18
BRANCH  15  19
ATOM     19  C   UNL     1       6.109   4.219  15.276  0.00  0.00    +0.000 C 
ATOM     20  C   UNL     1       6.647   4.193  14.046  0.00  0.00    +0.000 C 
BRANCH  20  21
ATOM     21  C   UNL     1       5.993   3.542  12.966  0.00  0.00    +0.000 A 
ATOM     22  C   UNL     1       4.705   3.751  12.482  0.00  0.00    +0.000 A 
ATOM     23  C   UNL     1       4.502   2.876  11.389  0.00  0.00    +0.000 A 
ATOM     24  C   UNL     1       5.672   2.175  11.252  0.00  0.00    +0.000 A 
ATOM     25  O   UNL     1       6.569   2.559  12.190  0.00  0.00    +0.000 OA
ENDBRANCH  20  21
ENDBRANCH  15  19
ENDBRANCH   1  14
TORSDOF 7
ENDMDL
MODEL 2
REMARK VINA RESULT:      -7.1      1.290      1.470
REMARK  Name = 
REMARK  8 active torsions:
REMARK  status: ('A' for Active; 'I' for Inactive)
REMARK    1  A    between atoms: C_1  and  C_2
REMARK    2  A    between atoms: C_2  and  N_3
REMARK    3  A    between atoms: N_3  and  C_4
REMARK    4  A    between atoms: C_4  and  C_5
REMARK    5  A    between atoms: N_7  and  C_8
REMARK    6  A    between atoms: C_8  and  C_9
REMARK    7  A    between atoms: C_16  and  C_18
REMARK    8  A    between atoms: C_19  and  C_20
REMARK                            x       y       z     vdW  Elec       q    Type
REMARK                         _______ _______ _______ _____ _____    ______ ____
ROOT
ATOM      1  C   UNL     1       5.319   6.399  16.994  0.00  0.00    +0.000 C 
ENDROOT
BRANCH   1   2
ATOM      2  C   UNL     1       4.027   5.607  17.269  0.00  0.00    +0.000 C 
ATOM      3  O   UNL     1       3.934   4.411  16.994  0.00  0.00    +0.000 OA
ATOM      4  N   UNL     1       2.994   6.303  17.866  0.00  0.00    +0.000 N 
ATOM      5  H   UNL     1       3.052   7.307  17.960  0.00  0.00    +0.000 HD
BRANCH   4   6
ATOM      6  C   UNL     1       1.692   5.686  18.034  0.00  0.00    +0.000 C 
BRANCH   6   7
ATOM      7  C   UNL     1       1.667   4.687  19.164  0.00  0.00    +0.000 A 
ATOM      8  C   UNL     1       1.206   3.375  18.969  0.00  0.00    +0.000 A 
ATOM      9  C   UNL     1       1.251   2.447  20.015  0.00  0.00    +0.000 A 
ATOM     10  C   UNL     1       1.750   2.831  21.253  0.00  0.00    +0.000 A 
ATOM     11  F   UNL     1       1.806   1.936  22.249  0.00  0.00    +0.000 F 
ATOM     12  C   UNL     1       2.198   4.127  21.472  0.00  0.00    +0.000 A 
ATOM     13  C   UNL     1       2.153   5.056  20.430  0.00  0.00    +0.000 A 
ENDBRANCH   6   7
ENDBRANCH   4   6
ENDBRANCH   1   2
BRANCH   1  14
ATOM     14  N   UNL     1       6.562   5.730  17.416  0.00  0.00    +0.000 N 
ATOM     15  C   UNL     1       7.138   4.641  16.758  0.00  0.00    +0.000 C 
ATOM     16  O   UNL     1       8.245   4.201  17.078  0.00  0.00    +0.000 OA
BRANCH  14  18
ATOM     17  C   UNL     1       8.155   7.606  18.170  0.00  0.00    +0.000 C 
ATOM     18  C   UNL     1       7.418   6.311  18.455  0.00  0.00    +0.000 C 
ENDBRANCH  14  18
BRANCH  15  19
ATOM     19  C   UNL     1       6.420   4.023  15.618  0.00  0.00    +0.000 C 
ATOM     20  C   UNL     1       6.786   4.379  14.376  0.00  0.00    +0.000 C 
BRANCH  20  21
ATOM     21  C   UNL     1       6.174   3.803  13.231  0.00  0.00    +0.000 A 
ATOM     22  C   UNL     1       6.773   3.093  12.194  0.00  0.00    +0.000 A 
ATOM     23  C   UNL     1       5.760   2.711  11.284  0.00  0.00    +0.000 A 
ATOM     24  C   UNL     1       4.590   3.201  11.803  0.00  0.00    +0.000 A 
ATOM     25  O   UNL     1       4.824   3.859  12.963  0.00  0.00    +0.000 OA
ENDBRANCH  20  21
ENDBRANCH  15  19
ENDBRANCH   1  14
TORSDOF 7
ENDMDL
MODEL 3
REMARK VINA RESULT:      -7.1      3.532      7.598
REMARK  Name = 
REMARK  8 active torsions:
REMARK  status: ('A' for Active; 'I' for Inactive)
REMARK    1  A    between atoms: C_1  and  C_2
REMARK    2  A    between atoms: C_2  and  N_3
REMARK    3  A    between atoms: N_3  and  C_4
REMARK    4  A    between atoms: C_4  and  C_5
REMARK    5  A    between atoms: N_7  and  C_8
REMARK    6  A    between atoms: C_8  and  C_9
REMARK    7  A    between atoms: C_16  and  C_18
REMARK    8  A    between atoms: C_19  and  C_20
REMARK                            x       y       z     vdW  Elec       q    Type
REMARK                         _______ _______ _______ _____ _____    ______ ____
ROOT
ATOM      1  C   UNL     1       1.953   3.939  18.387  0.00  0.00    +0.000 C 
ENDROOT
BRANCH   1   2
ATOM      2  C   UNL     1       3.031   4.689  17.583  0.00  0.00    +0.000 C 
ATOM      3  O   UNL     1       3.024   5.916  17.484  0.00  0.00    +0.000 OA
ATOM      4  N   UNL     1       4.019   3.914  17.006  0.00  0.00    +0.000 N 
ATOM      5  H   UNL     1       3.927   2.909  16.995  0.00  0.00    +0.000 HD
BRANCH   4   6
ATOM      6  C   UNL     1       4.994   4.510  16.113  0.00  0.00    +0.000 C 
BRANCH   6   7
ATOM      7  C   UNL     1       6.026   5.329  16.847  0.00  0.00    +0.000 A 
ATOM      8  C   UNL     1       6.215   6.691  16.562  0.00  0.00    +0.000 A 
ATOM      9  C   UNL     1       7.134   7.447  17.299  0.00  0.00    +0.000 A 
ATOM     10  C   UNL     1       7.865   6.841  18.313  0.00  0.00    +0.000 A 
ATOM     11  F   UNL     1       8.734   7.570  19.027  0.00  0.00    +0.000 F 
ATOM     12  C   UNL     1       7.704   5.493  18.602  0.00  0.00    +0.000 A 
ATOM     13  C   UNL     1       6.789   4.736  17.867  0.00  0.00    +0.000 A 
ENDBRANCH   6   7
ENDBRANCH   4   6
ENDBRANCH   1   2
BRANCH   1  14
ATOM     14  N   UNL     1       2.359   3.532  19.744  0.00  0.00    +0.000 N 
ATOM     15  C   UNL     1       2.023   4.223  20.911  0.00  0.00    +0.000 C 
ATOM     16  O   UNL     1       2.279   3.769  22.030  0.00  0.00    +0.000 OA
BRANCH  14  18
ATOM     17  C   UNL     1       4.487   2.112  20.034  0.00  0.00    +0.000 C 
ATOM     18  C   UNL     1       2.974   2.224  19.989  0.00  0.00    +0.000 C 
ENDBRANCH  14  18
BRANCH  15  19
ATOM     19  C   UNL     1       1.303   5.514  20.805  0.00  0.00    +0.000 C 
ATOM     20  C   UNL     1       2.034   6.634  20.680  0.00  0.00    +0.000 C 
BRANCH  20  21
ATOM     21  C   UNL     1       1.419   7.906  20.534  0.00  0.00    +0.000 A 
ATOM     22  C   UNL     1       0.567   8.563  21.417  0.00  0.00    +0.000 A 
ATOM     23  C   UNL     1       0.218   9.807  20.843  0.00  0.00    +0.000 A 
ATOM     24  C   UNL     1       0.871   9.857  19.639  0.00  0.00    +0.000 A 
ATOM     25  O   UNL     1       1.588   8.726  19.440  0.00  0.00    +0.000 OA
ENDBRANCH  20  21
ENDBRANCH  15  19
ENDBRANCH   1  14
TORSDOF 7
ENDMDL
MODEL 4
REMARK VINA RESULT:      -7.1      1.292      1.423
REMARK  Name = 
REMARK  8 active torsions:
REMARK  status: ('A' for Active; 'I' for Inactive)
REMARK    1  A    between atoms: C_1  and  C_2
REMARK    2  A    between atoms: C_2  and  N_3
REMARK    3  A    between atoms: N_3  and  C_4
REMARK    4  A    between atoms: C_4  and  C_5
REMARK    5  A    between atoms: N_7  and  C_8
REMARK    6  A    between atoms: C_8  and  C_9
REMARK    7  A    between atoms: C_16  and  C_18
REMARK    8  A    between atoms: C_19  and  C_20
REMARK                            x       y       z     vdW  Elec       q    Type
REMARK                         _______ _______ _______ _____ _____    ______ ____
ROOT
ATOM      1  C   UNL     1       5.511   7.278  16.659  0.00  0.00    +0.000 C 
ENDROOT
BRANCH   1   2
ATOM      2  C   UNL     1       4.244   7.163  17.526  0.00  0.00    +0.000 C 
ATOM      3  O   UNL     1       3.251   7.856  17.311  0.00  0.00    +0.000 OA
ATOM      4  N   UNL     1       4.274   6.220  18.536  0.00  0.00    +0.000 N 
ATOM      5  H   UNL     1       5.142   5.761  18.770  0.00  0.00    +0.000 HD
BRANCH   4   6
ATOM      6  C   UNL     1       3.188   6.135  19.494  0.00  0.00    +0.000 C 
BRANCH   6   7
ATOM      7  C   UNL     1       2.316   4.923  19.275  0.00  0.00    +0.000 A 
ATOM      8  C   UNL     1       2.191   4.333  18.007  0.00  0.00    +0.000 A 
ATOM      9  C   UNL     1       1.428   3.172  17.840  0.00  0.00    +0.000 A 
ATOM     10  C   UNL     1       0.788   2.607  18.936  0.00  0.00    +0.000 A 
ATOM     11  F   UNL     1       0.070   1.487  18.776  0.00  0.00    +0.000 F 
ATOM     12  C   UNL     1       0.887   3.182  20.196  0.00  0.00    +0.000 A 
ATOM     13  C   UNL     1       1.647   4.342  20.365  0.00  0.00    +0.000 A 
ENDBRANCH   6   7
ENDBRANCH   4   6
ENDBRANCH   1   2
BRANCH   1  14
ATOM     14  N   UNL     1       6.601   6.355  17.024  0.00  0.00    +0.000 N 
ATOM     15  C   UNL     1       6.979   5.240  16.272  0.00  0.00    +0.000 C 
ATOM     16  O   UNL     1       7.980   4.575  16.555  0.00  0.00    +0.000 OA
BRANCH  14  18
ATOM     17  C   UNL     1       8.204   8.032  18.140  0.00  0.00    +0.000 C 
ATOM     18  C   UNL     1       7.529   6.674  18.114  0.00  0.00    +0.000 C 
ENDBRANCH  14  18
BRANCH  15  19
ATOM     19  C   UNL     1       6.183   4.869  15.079  0.00  0.00    +0.000 C 
ATOM     20  C   UNL     1       6.689   3.945  14.246  0.00  0.00    +0.000 C 
BRANCH  20  21
ATOM     21  C   UNL     1       5.970   3.505  13.103  0.00  0.00    +0.000 A 
ATOM     22  C   UNL     1       4.667   3.817  12.726  0.00  0.00    +0.000 A 
ATOM     23  C   UNL     1       4.392   3.152  11.509  0.00  0.00    +0.000 A 
ATOM     24  C   UNL     1       5.536   2.465  11.194  0.00  0.00    +0.000 A 
ATOM     25  O   UNL     1       6.484   2.664  12.140  0.00  0.00    +0.000 OA
ENDBRANCH  20  21
ENDBRANCH  15  19
ENDBRANCH   1  14
TORSDOF 7
ENDMDL
MODEL 5
REMARK VINA RESULT:      -7.1      3.440      5.777
REMARK  Name = 
REMARK  8 active torsions:
REMARK  status: ('A' for Active; 'I' for Inactive)
REMARK    1  A    between atoms: C_1  and  C_2
REMARK    2  A    between atoms: C_2  and  N_3
REMARK    3  A    between atoms: N_3  and  C_4
REMARK    4  A    between atoms: C_4  and  C_5
REMARK    5  A    between atoms: N_7  and  C_8
REMARK    6  A    between atoms: C_8  and  C_9
REMARK    7  A    between atoms: C_16  and  C_18
REMARK    8  A    between atoms: C_19  and  C_20
REMARK                            x       y       z     vdW  Elec       q    Type
REMARK                         _______ _______ _______ _____ _____    ______ ____
ROOT
ATOM      1  C   UNL     1       5.585   5.508  16.871  0.00  0.00    +0.000 C 
ENDROOT
BRANCH   1   2
ATOM      2  C   UNL     1       4.669   6.695  16.515  0.00  0.00    +0.000 C 
ATOM      3  O   UNL     1       4.758   7.275  15.434  0.00  0.00    +0.000 OA
ATOM      4  N   UNL     1       3.728   7.050  17.462  0.00  0.00    +0.000 N 
ATOM      5  H   UNL     1       3.765   6.644  18.385  0.00  0.00    +0.000 HD
BRANCH   4   6
ATOM      6  C   UNL     1       2.918   8.240  17.282  0.00  0.00    +0.000 C 
BRANCH   6   7
ATOM      7  C   UNL     1       2.033   8.522  18.471  0.00  0.00    +0.000 A 
ATOM      8  C   UNL     1       2.111   7.749  19.640  0.00  0.00    +0.000 A 
ATOM      9  C   UNL     1       1.325   8.068  20.753  0.00  0.00    +0.000 A 
ATOM     10  C   UNL     1       0.460   9.154  20.694  0.00  0.00    +0.000 A 
ATOM     11  F   UNL     1      -0.281   9.467  21.766  0.00  0.00    +0.000 F 
ATOM     12  C   UNL     1       0.356   9.923  19.543  0.00  0.00    +0.000 A 
ATOM     13  C   UNL     1       1.138   9.606  18.430  0.00  0.00    +0.000 A 
ENDBRANCH   6   7
ENDBRANCH   4   6
ENDBRANCH   1   2
BRANCH   1  14
ATOM     14  N   UNL     1       6.487   5.739  18.014  0.00  0.00    +0.000 N 
ATOM     15  C   UNL     1       6.347   5.138  19.267  0.00  0.00    +0.000 C 
ATOM     16  O   UNL     1       7.202   5.266  20.147  0.00  0.00    +0.000 OA
BRANCH  14  18
ATOM     17  C   UNL     1       7.727   7.978  17.740  0.00  0.00    +0.000 C 
ATOM     18  C   UNL     1       7.750   6.465  17.845  0.00  0.00    +0.000 C 
ENDBRANCH  14  18
BRANCH  15  19
ATOM     19  C   UNL     1       5.162   4.289  19.533  0.00  0.00    +0.000 C 
ATOM     20  C   UNL     1       4.047   4.888  19.984  0.00  0.00    +0.000 C 
BRANCH  20  21
ATOM     21  C   UNL     1       2.857   4.151  20.225  0.00  0.00    +0.000 A 
ATOM     22  C   UNL     1       2.578   3.275  21.270  0.00  0.00    +0.000 A 
ATOM     23  C   UNL     1       1.262   2.788  21.093  0.00  0.00    +0.000 A 
ATOM     24  C   UNL     1       0.794   3.389  19.953  0.00  0.00    +0.000 A 
ATOM     25  O   UNL     1       1.738   4.201  19.422  0.00  0.00    +0.000 OA
ENDBRANCH  20  21
ENDBRANCH  15  19
ENDBRANCH   1  14
TORSDOF 7
ENDMDL
MODEL 6
REMARK VINA RESULT:      -7.0      4.164      6.411
REMARK  Name = 
REMARK  8 active torsions:
REMARK  status: ('A' for Active; 'I' for Inactive)
REMARK    1  A    between atoms: C_1  and  C_2
REMARK    2  A    between atoms: C_2  and  N_3
REMARK    3  A    between atoms: N_3  and  C_4
REMARK    4  A    between atoms: C_4  and  C_5
REMARK    5  A    between atoms: N_7  and  C_8
REMARK    6  A    between atoms: C_8  and  C_9
REMARK    7  A    between atoms: C_16  and  C_18
REMARK    8  A    between atoms: C_19  and  C_20
REMARK                            x       y       z     vdW  Elec       q    Type
REMARK                         _______ _______ _______ _____ _____    ______ ____
ROOT
ATOM      1  C   UNL     1       2.774   4.612  20.202  0.00  0.00    +0.000 C 
ENDROOT
BRANCH   1   2
ATOM      2  C   UNL     1       2.293   5.939  19.587  0.00  0.00    +0.000 C 
ATOM      3  O   UNL     1       2.070   6.048  18.382  0.00  0.00    +0.000 OA
ATOM      4  N   UNL     1       2.100   6.988  20.465  0.00  0.00    +0.000 N 
ATOM      5  H   UNL     1       2.414   6.909  21.421  0.00  0.00    +0.000 HD
BRANCH   4   6
ATOM      6  C   UNL     1       1.789   8.315  19.968  0.00  0.00    +0.000 C 
BRANCH   6   7
ATOM      7  C   UNL     1       0.879   9.082  20.895  0.00  0.00    +0.000 A 
ATOM      8  C   UNL     1       0.815   8.786  22.266  0.00  0.00    +0.000 A 
ATOM      9  C   UNL     1       0.012   9.551  23.118  0.00  0.00    +0.000 A 
ATOM     10  C   UNL     1      -0.730  10.606  22.599  0.00  0.00    +0.000 A 
ATOM     11  F   UNL     1      -1.487  11.347  23.420  0.00  0.00    +0.000 F 
ATOM     12  C   UNL     1      -0.693  10.907  21.245  0.00  0.00    +0.000 A 
ATOM     13  C   UNL     1       0.107  10.143  20.392  0.00  0.00    +0.000 A 
ENDBRANCH   6   7
ENDBRANCH   4   6
ENDBRANCH   1   2
BRANCH   1  14
ATOM     14  N   UNL     1       2.968   3.513  19.238  0.00  0.00    +0.000 N 
ATOM     15  C   UNL     1       4.156   3.268  18.546  0.00  0.00    +0.000 C 
ATOM     16  O   UNL     1       4.306   2.261  17.850  0.00  0.00    +0.000 OA
BRANCH  14  18
ATOM     17  C   UNL     1       0.497   2.801  19.110  0.00  0.00    +0.000 C 
ATOM     18  C   UNL     1       1.973   2.446  19.098  0.00  0.00    +0.000 C 
ENDBRANCH  14  18
BRANCH  15  19
ATOM     19  C   UNL     1       5.284   4.220  18.686  0.00  0.00    +0.000 C 
ATOM     20  C   UNL     1       5.405   5.191  17.766  0.00  0.00    +0.000 C 
BRANCH  20  21
ATOM     21  C   UNL     1       6.434   6.167  17.851  0.00  0.00    +0.000 A 
ATOM     22  C   UNL     1       7.499   6.227  18.744  0.00  0.00    +0.000 A 
ATOM     23  C   UNL     1       8.265   7.374  18.435  0.00  0.00    +0.000 A 
ATOM     24  C   UNL     1       7.638   7.963  17.367  0.00  0.00    +0.000 A 
ATOM     25  O   UNL     1       6.541   7.255  17.012  0.00  0.00    +0.000 OA
ENDBRANCH  20  21
ENDBRANCH  15  19
ENDBRANCH   1  14
TORSDOF 7
ENDMDL
MODEL 7
REMARK VINA RESULT:      -6.9      2.916      3.702
REMARK  Name = 
REMARK  8 active torsions:
REMARK  status: ('A' for Active; 'I' for Inactive)
REMARK    1  A    between atoms: C_1  and  C_2
REMARK    2  A    between atoms: C_2  and  N_3
REMARK    3  A    between atoms: N_3  and  C_4
REMARK    4  A    between atoms: C_4  and  C_5
REMARK    5  A    between atoms: N_7  and  C_8
REMARK    6  A    between atoms: C_8  and  C_9
REMARK    7  A    between atoms: C_16  and  C_18
REMARK    8  A    between atoms: C_19  and  C_20
REMARK                            x       y       z     vdW  Elec       q    Type
REMARK                         _______ _______ _______ _____ _____    ______ ____
ROOT
ATOM      1  C   UNL     1       4.640   5.095  17.709  0.00  0.00    +0.000 C 
ENDROOT
BRANCH   1   2
ATOM      2  C   UNL     1       4.115   6.503  17.370  0.00  0.00    +0.000 C 
ATOM      3  O   UNL     1       4.643   7.194  16.499  0.00  0.00    +0.000 OA
ATOM      4  N   UNL     1       3.007   6.932  18.075  0.00  0.00    +0.000 N 
ATOM      5  H   UNL     1       2.678   6.400  18.867  0.00  0.00    +0.000 HD
BRANCH   4   6
ATOM      6  C   UNL     1       2.527   8.293  17.931  0.00  0.00    +0.000 C 
BRANCH   6   7
ATOM      7  C   UNL     1       1.645   8.720  19.078  0.00  0.00    +0.000 A 
ATOM      8  C   UNL     1       1.670   8.044  20.309  0.00  0.00    +0.000 A 
ATOM      9  C   UNL     1       0.891   8.496  21.379  0.00  0.00    +0.000 A 
ATOM     10  C   UNL     1       0.085   9.616  21.217  0.00  0.00    +0.000 A 
ATOM     11  F   UNL     1      -0.650  10.056  22.248  0.00  0.00    +0.000 F 
ATOM     12  C   UNL     1       0.034  10.291  20.005  0.00  0.00    +0.000 A 
ATOM     13  C   UNL     1       0.810   9.840  18.934  0.00  0.00    +0.000 A 
ENDBRANCH   6   7
ENDBRANCH   4   6
ENDBRANCH   1   2
BRANCH   1  14
ATOM     14  N   UNL     1       6.106   4.947  17.656  0.00  0.00    +0.000 N 
ATOM     15  C   UNL     1       6.808   4.406  16.577  0.00  0.00    +0.000 C 
ATOM     16  O   UNL     1       8.041   4.424  16.531  0.00  0.00    +0.000 OA
BRANCH  14  18
ATOM     17  C   UNL     1       7.718   6.841  18.318  0.00  0.00    +0.000 C 
ATOM     18  C   UNL     1       6.965   5.571  18.667  0.00  0.00    +0.000 C 
ENDBRANCH  14  18
BRANCH  15  19
ATOM     19  C   UNL     1       6.054   3.834  15.437  0.00  0.00    +0.000 C 
ATOM     20  C   UNL     1       6.508   4.076  14.196  0.00  0.00    +0.000 C 
BRANCH  20  21
ATOM     21  C   UNL     1       5.865   3.531  13.053  0.00  0.00    +0.000 A 
ATOM     22  C   UNL     1       4.646   3.896  12.489  0.00  0.00    +0.000 A 
ATOM     23  C   UNL     1       4.426   3.077  11.357  0.00  0.00    +0.000 A 
ATOM     24  C   UNL     1       5.517   2.251  11.278  0.00  0.00    +0.000 A 
ATOM     25  O   UNL     1       6.382   2.508  12.287  0.00  0.00    +0.000 OA
ENDBRANCH  20  21
ENDBRANCH  15  19
ENDBRANCH   1  14
TORSDOF 7
ENDMDL
MODEL 8
REMARK VINA RESULT:      -6.9      3.584      7.581
REMARK  Name = 
REMARK  8 active torsions:
REMARK  status: ('A' for Active; 'I' for Inactive)
REMARK    1  A    between atoms: C_1  and  C_2
REMARK    2  A    between atoms: C_2  and  N_3
REMARK    3  A    between atoms: N_3  and  C_4
REMARK    4  A    between atoms: C_4  and  C_5
REMARK    5  A    between atoms: N_7  and  C_8
REMARK    6  A    between atoms: C_8  and  C_9
REMARK    7  A    between atoms: C_16  and  C_18
REMARK    8  A    between atoms: C_19  and  C_20
REMARK                            x       y       z     vdW  Elec       q    Type
REMARK                         _______ _______ _______ _____ _____    ______ ____
ROOT
ATOM      1  C   UNL     1       1.884   3.709  18.282  0.00  0.00    +0.000 C 
ENDROOT
BRANCH   1   2
ATOM      2  C   UNL     1       2.925   4.585  17.559  0.00  0.00    +0.000 C 
ATOM      3  O   UNL     1       2.842   5.812  17.553  0.00  0.00    +0.000 OA
ATOM      4  N   UNL     1       3.968   3.918  16.946  0.00  0.00    +0.000 N 
ATOM      5  H   UNL     1       3.940   2.913  16.856  0.00  0.00    +0.000 HD
BRANCH   4   6
ATOM      6  C   UNL     1       4.917   4.641  16.120  0.00  0.00    +0.000 C 
BRANCH   6   7
ATOM      7  C   UNL     1       5.927   5.408  16.936  0.00  0.00    +0.000 A 
ATOM      8  C   UNL     1       6.735   4.767  17.889  0.00  0.00    +0.000 A 
ATOM      9  C   UNL     1       7.710   5.487  18.589  0.00  0.00    +0.000 A 
ATOM     10  C   UNL     1       7.871   6.844  18.341  0.00  0.00    +0.000 A 
ATOM     11  F   UNL     1       8.815   7.529  19.002  0.00  0.00    +0.000 F 
ATOM     12  C   UNL     1       7.074   7.501  17.414  0.00  0.00    +0.000 A 
ATOM     13  C   UNL     1       6.099   6.785  16.715  0.00  0.00    +0.000 A 
ENDBRANCH   6   7
ENDBRANCH   4   6
ENDBRANCH   1   2
BRANCH   1  14
ATOM     14  N   UNL     1       2.260   3.292  19.645  0.00  0.00    +0.000 N 
ATOM     15  C   UNL     1       1.950   4.007  20.805  0.00  0.00    +0.000 C 
ATOM     16  O   UNL     1       2.176   3.549  21.928  0.00  0.00    +0.000 OA
BRANCH  14  18
ATOM     17  C   UNL     1       3.621   1.268  18.824  0.00  0.00    +0.000 C 
ATOM     18  C   UNL     1       2.808   1.957  19.903  0.00  0.00    +0.000 C 
ENDBRANCH  14  18
BRANCH  15  19
ATOM     19  C   UNL     1       1.295   5.331  20.685  0.00  0.00    +0.000 C 
ATOM     20  C   UNL     1       2.076   6.424  20.707  0.00  0.00    +0.000 C 
BRANCH  20  21
ATOM     21  C   UNL     1       1.530   7.726  20.558  0.00  0.00    +0.000 A 
ATOM     22  C   UNL     1       0.814   8.476  21.486  0.00  0.00    +0.000 A 
ATOM     23  C   UNL     1       0.486   9.715  20.887  0.00  0.00    +0.000 A 
ATOM     24  C   UNL     1       1.017   9.670  19.624  0.00  0.00    +0.000 A 
ATOM     25  O   UNL     1       1.638   8.486  19.413  0.00  0.00    +0.000 OA
ENDBRANCH  20  21
ENDBRANCH  15  19
ENDBRANCH   1  14
TORSDOF 7
ENDMDL
MODEL 9
REMARK VINA RESULT:      -6.9      4.424      6.118
REMARK  Name = 
REMARK  8 active torsions:
REMARK  status: ('A' for Active; 'I' for Inactive)
REMARK    1  A    between atoms: C_1  and  C_2
REMARK    2  A    between atoms: C_2  and  N_3
REMARK    3  A    between atoms: N_3  and  C_4
REMARK    4  A    between atoms: C_4  and  C_5
REMARK    5  A    between atoms: N_7  and  C_8
REMARK    6  A    between atoms: C_8  and  C_9
REMARK    7  A    between atoms: C_16  and  C_18
REMARK    8  A    between atoms: C_19  and  C_20
REMARK                            x       y       z     vdW  Elec       q    Type
REMARK                         _______ _______ _______ _____ _____    ______ ____
ROOT
ATOM      1  C   UNL     1       2.877   5.825  19.924  0.00  0.00    +0.000 C 
ENDROOT
BRANCH   1   2
ATOM      2  C   UNL     1       2.323   7.155  19.379  0.00  0.00    +0.000 C 
ATOM      3  O   UNL     1       2.424   7.456  18.191  0.00  0.00    +0.000 OA
ATOM      4  N   UNL     1       1.683   7.973  20.290  0.00  0.00    +0.000 N 
ATOM      5  H   UNL     1       1.730   7.762  21.276  0.00  0.00    +0.000 HD
BRANCH   4   6
ATOM      6  C   UNL     1       1.256   9.306  19.908  0.00  0.00    +0.000 C 
BRANCH   6   7
ATOM      7  C   UNL     1       0.371   9.950  20.946  0.00  0.00    +0.000 A 
ATOM      8  C   UNL     1      -0.354  11.119  20.663  0.00  0.00    +0.000 A 
ATOM      9  C   UNL     1      -1.217  11.664  21.620  0.00  0.00    +0.000 A 
ATOM     10  C   UNL     1      -1.350  11.046  22.857  0.00  0.00    +0.000 A 
ATOM     11  F   UNL     1      -2.188  11.561  23.767  0.00  0.00    +0.000 F 
ATOM     12  C   UNL     1      -0.631   9.898  23.163  0.00  0.00    +0.000 A 
ATOM     13  C   UNL     1       0.232   9.352  22.210  0.00  0.00    +0.000 A 
ENDBRANCH   6   7
ENDBRANCH   4   6
ENDBRANCH   1   2
BRANCH   1  14
ATOM     14  N   UNL     1       2.052   4.640  19.629  0.00  0.00    +0.000 N 
ATOM     15  C   UNL     1       2.140   3.887  18.456  0.00  0.00    +0.000 C 
ATOM     16  O   UNL     1       1.519   2.830  18.314  0.00  0.00    +0.000 OA
BRANCH  14  18
ATOM     17  C   UNL     1       1.850   3.087  21.673  0.00  0.00    +0.000 C 
ATOM     18  C   UNL     1       1.215   4.025  20.663  0.00  0.00    +0.000 C 
ENDBRANCH  14  18
BRANCH  15  19
ATOM     19  C   UNL     1       3.036   4.345  17.368  0.00  0.00    +0.000 C 
ATOM     20  C   UNL     1       4.259   3.797  17.285  0.00  0.00    +0.000 C 
BRANCH  20  21
ATOM     21  C   UNL     1       5.162   4.154  16.248  0.00  0.00    +0.000 A 
ATOM     22  C   UNL     1       5.594   5.422  15.875  0.00  0.00    +0.000 A 
ATOM     23  C   UNL     1       6.497   5.277  14.796  0.00  0.00    +0.000 A 
ATOM     24  C   UNL     1       6.578   3.929  14.559  0.00  0.00    +0.000 A 
ATOM     25  O   UNL     1       5.782   3.247  15.416  0.00  0.00    +0.000 OA
ENDBRANCH  20  21
ENDBRANCH  15  19
ENDBRANCH   1  14
TORSDOF 7
ENDMDL
