MODEL 1
REMARK VINA RESULT:      -5.9      0.000      0.000
REMARK  Name = 
REMARK  5 active torsions:
REMARK  status: ('A' for Active; 'I' for Inactive)
REMARK    1  A    between atoms: N_1  and  C_2
REMARK    2  A    between atoms: C_2  and  N_4
REMARK    3  A    between atoms: N_4  and  N_5
REMARK    4  A    between atoms: C_6  and  C_7
REMARK    5  A    between atoms: C_10  and  O_11
REMARK                            x       y       z     vdW  Elec       q    Type
REMARK                         _______ _______ _______ _____ _____    ______ ____
ROOT
ATOM      1  N   UNL     1       6.119   3.943  18.547  0.00  0.00    +0.000 NA
ATOM      2  C   UNL     1       5.108   4.280  17.814  0.00  0.00    +0.000 C 
ENDROOT
BRANCH   2   3
ATOM      3  C   UNL     1       3.761   3.749  18.106  0.00  0.00    +0.000 A 
ATOM      4  C   UNL     1       2.624   4.479  17.728  0.00  0.00    +0.000 A 
ATOM      5  C   UNL     1       1.352   3.993  18.029  0.00  0.00    +0.000 A 
ATOM      6  C   UNL     1       1.227   2.784  18.706  0.00  0.00    +0.000 A 
ATOM      7  C   UNL     1       2.349   2.049  19.075  0.00  0.00    +0.000 A 
ATOM      8  C   UNL     1       3.627   2.531  18.775  0.00  0.00    +0.000 A 
BRANCH   6   9
ATOM      9  O   UNL     1       0.002   2.284  19.033  0.00  0.00    +0.000 OA
ATOM     10  H   UNL     1      -0.237   1.596  18.390  0.00  0.00    +0.000 HD
ENDBRANCH   6   9
ENDBRANCH   2   3
BRANCH   1  11
ATOM     11  N   UNL     1       7.321   4.474  18.189  0.00  0.00    +0.000 N 
ATOM     12  H   UNL     1       7.928   3.997  17.529  0.00  0.00    +0.000 HD
BRANCH  11  13
ATOM     13  C   UNL     1       7.748   5.654  18.739  0.00  0.00    +0.000 C 
ATOM     14  S   UNL     1       7.683   7.097  17.926  0.00  0.00    +0.000 S 
BRANCH  13  15
ATOM     15  N   UNL     1       8.229   5.562  20.003  0.00  0.00    +0.000 N 
ATOM     16  H   UNL     1       7.671   5.805  20.806  0.00  0.00    +0.000 HD
ATOM     17  H   UNL     1       9.214   5.344  20.095  0.00  0.00    +0.000 HD
ENDBRANCH  13  15
ENDBRANCH  11  13
ENDBRANCH   1  11
TORSDOF 5
ENDMDL
MODEL 2
REMARK VINA RESULT:      -5.7      1.360      1.668
REMARK  Name = 
REMARK  5 active torsions:
REMARK  status: ('A' for Active; 'I' for Inactive)
REMARK    1  A    between atoms: N_1  and  C_2
REMARK    2  A    between atoms: C_2  and  N_4
REMARK    3  A    between atoms: N_4  and  N_5
REMARK    4  A    between atoms: C_6  and  C_7
REMARK    5  A    between atoms: C_10  and  O_11
REMARK                            x       y       z     vdW  Elec       q    Type
REMARK                         _______ _______ _______ _____ _____    ______ ____
ROOT
ATOM      1  N   UNL     1       5.914   4.478  19.400  0.00  0.00    +0.000 NA
ATOM      2  C   UNL     1       4.818   5.122  19.162  0.00  0.00    +0.000 C 
ENDROOT
BRANCH   2   3
ATOM      3  C   UNL     1       3.510   4.447  19.286  0.00  0.00    +0.000 A 
ATOM      4  C   UNL     1       3.063   3.595  18.266  0.00  0.00    +0.000 A 
ATOM      5  C   UNL     1       1.815   2.981  18.367  0.00  0.00    +0.000 A 
ATOM      6  C   UNL     1       1.025   3.224  19.486  0.00  0.00    +0.000 A 
ATOM      7  C   UNL     1       1.467   4.059  20.508  0.00  0.00    +0.000 A 
ATOM      8  C   UNL     1       2.717   4.677  20.412  0.00  0.00    +0.000 A 
BRANCH   6   9
ATOM      9  O   UNL     1      -0.207   2.657  19.616  0.00  0.00    +0.000 OA
ATOM     10  H   UNL     1      -0.758   2.931  18.863  0.00  0.00    +0.000 HD
ENDBRANCH   6   9
ENDBRANCH   2   3
BRANCH   1  11
ATOM     11  N   UNL     1       7.069   5.184  19.246  0.00  0.00    +0.000 N 
ATOM     12  H   UNL     1       7.629   5.453  20.049  0.00  0.00    +0.000 HD
BRANCH  11  13
ATOM     13  C   UNL     1       7.482   5.571  17.998  0.00  0.00    +0.000 C 
ATOM     14  S   UNL     1       7.506   7.156  17.514  0.00  0.00    +0.000 S 
BRANCH  13  15
ATOM     15  N   UNL     1       7.874   4.563  17.181  0.00  0.00    +0.000 N 
ATOM     16  H   UNL     1       8.296   3.720  17.537  0.00  0.00    +0.000 HD
ATOM     17  H   UNL     1       7.824   4.744  16.186  0.00  0.00    +0.000 HD
ENDBRANCH  13  15
ENDBRANCH  11  13
ENDBRANCH   1  11
TORSDOF 5
ENDMDL
MODEL 3
REMARK VINA RESULT:      -5.5      1.075      1.972
REMARK  Name = 
REMARK  5 active torsions:
REMARK  status: ('A' for Active; 'I' for Inactive)
REMARK    1  A    between atoms: N_1  and  C_2
REMARK    2  A    between atoms: C_2  and  N_4
REMARK    3  A    between atoms: N_4  and  N_5
REMARK    4  A    between atoms: C_6  and  C_7
REMARK    5  A    between atoms: C_10  and  O_11
REMARK                            x       y       z     vdW  Elec       q    Type
REMARK                         _______ _______ _______ _____ _____    ______ ____
ROOT
ATOM      1  N   UNL     1       6.042   4.150  18.070  0.00  0.00    +0.000 NA
ATOM      2  C   UNL     1       5.042   3.928  17.281  0.00  0.00    +0.000 C 
ENDROOT
BRANCH   2   3
ATOM      3  C   UNL     1       3.724   3.546  17.827  0.00  0.00    +0.000 A 
ATOM      4  C   UNL     1       3.531   2.262  18.353  0.00  0.00    +0.000 A 
ATOM      5  C   UNL     1       2.279   1.890  18.843  0.00  0.00    +0.000 A 
ATOM      6  C   UNL     1       1.232   2.805  18.800  0.00  0.00    +0.000 A 
ATOM      7  C   UNL     1       1.419   4.086  18.290  0.00  0.00    +0.000 A 
ATOM      8  C   UNL     1       2.672   4.464  17.799  0.00  0.00    +0.000 A 
BRANCH   6   9
ATOM      9  O   UNL     1      -0.011   2.475  19.253  0.00  0.00    +0.000 OA
ATOM     10  H   UNL     1      -0.672   2.956  18.728  0.00  0.00    +0.000 HD
ENDBRANCH   6   9
ENDBRANCH   2   3
BRANCH   1  11
ATOM     11  N   UNL     1       7.218   4.483  17.469  0.00  0.00    +0.000 N 
ATOM     12  H   UNL     1       8.034   3.884  17.549  0.00  0.00    +0.000 HD
BRANCH  11  13
ATOM     13  C   UNL     1       7.329   5.655  16.768  0.00  0.00    +0.000 C 
ATOM     14  S   UNL     1       7.229   7.143  17.489  0.00  0.00    +0.000 S 
BRANCH  13  15
ATOM     15  N   UNL     1       7.529   5.513  15.435  0.00  0.00    +0.000 N 
ATOM     16  H   UNL     1       7.755   4.622  15.020  0.00  0.00    +0.000 HD
ATOM     17  H   UNL     1       7.552   6.365  14.889  0.00  0.00    +0.000 HD
ENDBRANCH  13  15
ENDBRANCH  11  13
ENDBRANCH   1  11
TORSDOF 5
ENDMDL
MODEL 4
REMARK VINA RESULT:      -5.5      4.245      5.797
REMARK  Name = 
REMARK  5 active torsions:
REMARK  status: ('A' for Active; 'I' for Inactive)
REMARK    1  A    between atoms: N_1  and  C_2
REMARK    2  A    between atoms: C_2  and  N_4
REMARK    3  A    between atoms: N_4  and  N_5
REMARK    4  A    between atoms: C_6  and  C_7
REMARK    5  A    between atoms: C_10  and  O_11
REMARK                            x       y       z     vdW  Elec       q    Type
REMARK                         _______ _______ _______ _____ _____    ______ ____
ROOT
ATOM      1  N   UNL     1       3.816   2.815  19.187  0.00  0.00    +0.000 NA
ATOM      2  C   UNL     1       4.435   3.948  19.117  0.00  0.00    +0.000 C 
ENDROOT
BRANCH   2   3
ATOM      3  C   UNL     1       5.282   4.270  17.951  0.00  0.00    +0.000 A 
ATOM      4  C   UNL     1       6.587   4.743  18.143  0.00  0.00    +0.000 A 
ATOM      5  C   UNL     1       7.378   5.075  17.043  0.00  0.00    +0.000 A 
ATOM      6  C   UNL     1       6.856   4.932  15.761  0.00  0.00    +0.000 A 
ATOM      7  C   UNL     1       5.565   4.452  15.562  0.00  0.00    +0.000 A 
ATOM      8  C   UNL     1       4.769   4.117  16.661  0.00  0.00    +0.000 A 
BRANCH   6   9
ATOM      9  O   UNL     1       7.590   5.262  14.661  0.00  0.00    +0.000 OA
ATOM     10  H   UNL     1       8.467   4.851  14.736  0.00  0.00    +0.000 HD
ENDBRANCH   6   9
ENDBRANCH   2   3
BRANCH   1  11
ATOM     11  N   UNL     1       3.071   2.607  20.309  0.00  0.00    +0.000 N 
ATOM     12  H   UNL     1       3.513   2.405  21.200  0.00  0.00    +0.000 HD
BRANCH  11  13
ATOM     13  C   UNL     1       1.703   2.639  20.246  0.00  0.00    +0.000 C 
ATOM     14  S   UNL     1       0.868   2.496  18.822  0.00  0.00    +0.000 S 
BRANCH  13  15
ATOM     15  N   UNL     1       1.074   2.795  21.437  0.00  0.00    +0.000 N 
ATOM     16  H   UNL     1       0.113   2.522  21.572  0.00  0.00    +0.000 HD
ATOM     17  H   UNL     1       1.580   3.302  22.151  0.00  0.00    +0.000 HD
ENDBRANCH  13  15
ENDBRANCH  11  13
ENDBRANCH   1  11
TORSDOF 5
ENDMDL
MODEL 5
REMARK VINA RESULT:      -5.5      1.375      1.946
REMARK  Name = 
REMARK  5 active torsions:
REMARK  status: ('A' for Active; 'I' for Inactive)
REMARK    1  A    between atoms: N_1  and  C_2
REMARK    2  A    between atoms: C_2  and  N_4
REMARK    3  A    between atoms: N_4  and  N_5
REMARK    4  A    between atoms: C_6  and  C_7
REMARK    5  A    between atoms: C_10  and  O_11
REMARK                            x       y       z     vdW  Elec       q    Type
REMARK                         _______ _______ _______ _____ _____    ______ ____
ROOT
ATOM      1  N   UNL     1       6.141   4.192  18.222  0.00  0.00    +0.000 NA
ATOM      2  C   UNL     1       5.015   4.215  17.585  0.00  0.00    +0.000 C 
ENDROOT
BRANCH   2   3
ATOM      3  C   UNL     1       3.748   3.935  18.290  0.00  0.00    +0.000 A 
ATOM      4  C   UNL     1       3.718   3.909  19.692  0.00  0.00    +0.000 A 
ATOM      5  C   UNL     1       2.529   3.615  20.358  0.00  0.00    +0.000 A 
ATOM      6  C   UNL     1       1.381   3.349  19.619  0.00  0.00    +0.000 A 
ATOM      7  C   UNL     1       1.400   3.385  18.227  0.00  0.00    +0.000 A 
ATOM      8  C   UNL     1       2.589   3.680  17.555  0.00  0.00    +0.000 A 
BRANCH   6   9
ATOM      9  O   UNL     1       0.204   3.042  20.232  0.00  0.00    +0.000 OA
ATOM     10  H   UNL     1      -0.414   2.696  19.566  0.00  0.00    +0.000 HD
ENDBRANCH   6   9
ENDBRANCH   2   3
BRANCH   1  11
ATOM     11  N   UNL     1       7.254   4.450  17.480  0.00  0.00    +0.000 N 
ATOM     12  H   UNL     1       8.024   3.789  17.446  0.00  0.00    +0.000 HD
BRANCH  11  13
ATOM     13  C   UNL     1       7.367   5.627  16.789  0.00  0.00    +0.000 C 
ATOM     14  S   UNL     1       7.387   7.106  17.536  0.00  0.00    +0.000 S 
BRANCH  13  15
ATOM     15  N   UNL     1       7.464   5.499  15.443  0.00  0.00    +0.000 N 
ATOM     16  H   UNL     1       7.950   6.176  14.876  0.00  0.00    +0.000 HD
ATOM     17  H   UNL     1       6.928   4.751  15.022  0.00  0.00    +0.000 HD
ENDBRANCH  13  15
ENDBRANCH  11  13
ENDBRANCH   1  11
TORSDOF 5
ENDMDL
MODEL 6
REMARK VINA RESULT:      -5.5      1.287      1.601
REMARK  Name = 
REMARK  5 active torsions:
REMARK  status: ('A' for Active; 'I' for Inactive)
REMARK    1  A    between atoms: N_1  and  C_2
REMARK    2  A    between atoms: C_2  and  N_4
REMARK    3  A    between atoms: N_4  and  N_5
REMARK    4  A    between atoms: C_6  and  C_7
REMARK    5  A    between atoms: C_10  and  O_11
REMARK                            x       y       z     vdW  Elec       q    Type
REMARK                         _______ _______ _______ _____ _____    ______ ____
ROOT
ATOM      1  N   UNL     1       5.905   4.719  19.691  0.00  0.00    +0.000 NA
ATOM      2  C   UNL     1       4.986   4.873  18.794  0.00  0.00    +0.000 C 
ENDROOT
BRANCH   2   3
ATOM      3  C   UNL     1       3.624   4.346  19.017  0.00  0.00    +0.000 A 
ATOM      4  C   UNL     1       2.948   4.636  20.210  0.00  0.00    +0.000 A 
ATOM      5  C   UNL     1       1.674   4.114  20.434  0.00  0.00    +0.000 A 
ATOM      6  C   UNL     1       1.088   3.306  19.465  0.00  0.00    +0.000 A 
ATOM      7  C   UNL     1       1.749   3.023  18.273  0.00  0.00    +0.000 A 
ATOM      8  C   UNL     1       3.025   3.544  18.043  0.00  0.00    +0.000 A 
BRANCH   6   9
ATOM      9  O   UNL     1      -0.147   2.763  19.652  0.00  0.00    +0.000 OA
ATOM     10  H   UNL     1      -0.043   1.836  19.923  0.00  0.00    +0.000 HD
ENDBRANCH   6   9
ENDBRANCH   2   3
BRANCH   1  11
ATOM     11  N   UNL     1       7.131   5.229  19.386  0.00  0.00    +0.000 N 
ATOM     12  H   UNL     1       7.799   5.457  20.116  0.00  0.00    +0.000 HD
BRANCH  11  13
ATOM     13  C   UNL     1       7.475   5.472  18.082  0.00  0.00    +0.000 C 
ATOM     14  S   UNL     1       7.369   6.977  17.394  0.00  0.00    +0.000 S 
BRANCH  13  15
ATOM     15  N   UNL     1       7.910   4.393  17.389  0.00  0.00    +0.000 N 
ATOM     16  H   UNL     1       7.699   3.451  17.679  0.00  0.00    +0.000 HD
ATOM     17  H   UNL     1       8.553   4.575  16.628  0.00  0.00    +0.000 HD
ENDBRANCH  13  15
ENDBRANCH  11  13
ENDBRANCH   1  11
TORSDOF 5
ENDMDL
MODEL 7
REMARK VINA RESULT:      -5.5      2.934      3.173
REMARK  Name = 
REMARK  5 active torsions:
REMARK  status: ('A' for Active; 'I' for Inactive)
REMARK    1  A    between atoms: N_1  and  C_2
REMARK    2  A    between atoms: C_2  and  N_4
REMARK    3  A    between atoms: N_4  and  N_5
REMARK    4  A    between atoms: C_6  and  C_7
REMARK    5  A    between atoms: C_10  and  O_11
REMARK                            x       y       z     vdW  Elec       q    Type
REMARK                         _______ _______ _______ _____ _____    ______ ____
ROOT
ATOM      1  N   UNL     1       4.714   5.058  16.291  0.00  0.00    +0.000 NA
ATOM      2  C   UNL     1       4.175   5.726  17.259  0.00  0.00    +0.000 C 
ENDROOT
BRANCH   2   3
ATOM      3  C   UNL     1       3.214   5.078  18.174  0.00  0.00    +0.000 A 
ATOM      4  C   UNL     1       3.274   5.338  19.550  0.00  0.00    +0.000 A 
ATOM      5  C   UNL     1       2.386   4.704  20.419  0.00  0.00    +0.000 A 
ATOM      6  C   UNL     1       1.447   3.816  19.905  0.00  0.00    +0.000 A 
ATOM      7  C   UNL     1       1.374   3.561  18.538  0.00  0.00    +0.000 A 
ATOM      8  C   UNL     1       2.261   4.194  17.663  0.00  0.00    +0.000 A 
BRANCH   6   9
ATOM      9  O   UNL     1       0.573   3.163  20.722  0.00  0.00    +0.000 OA
ATOM     10  H   UNL     1       1.063   2.502  21.238  0.00  0.00    +0.000 HD
ENDBRANCH   6   9
ENDBRANCH   2   3
BRANCH   1  11
ATOM     11  N   UNL     1       5.577   5.748  15.494  0.00  0.00    +0.000 N 
ATOM     12  H   UNL     1       5.570   6.763  15.471  0.00  0.00    +0.000 HD
BRANCH  11  13
ATOM     13  C   UNL     1       6.455   5.079  14.683  0.00  0.00    +0.000 C 
ATOM     14  S   UNL     1       5.984   3.852  13.673  0.00  0.00    +0.000 S 
BRANCH  13  15
ATOM     15  N   UNL     1       7.744   5.492  14.762  0.00  0.00    +0.000 N 
ATOM     16  H   UNL     1       8.359   5.478  13.963  0.00  0.00    +0.000 HD
ATOM     17  H   UNL     1       8.091   5.708  15.687  0.00  0.00    +0.000 HD
ENDBRANCH  13  15
ENDBRANCH  11  13
ENDBRANCH   1  11
TORSDOF 5
ENDMDL
MODEL 8
REMARK VINA RESULT:      -5.4      2.081      2.500
REMARK  Name = 
REMARK  5 active torsions:
REMARK  status: ('A' for Active; 'I' for Inactive)
REMARK    1  A    between atoms: N_1  and  C_2
REMARK    2  A    between atoms: C_2  and  N_4
REMARK    3  A    between atoms: N_4  and  N_5
REMARK    4  A    between atoms: C_6  and  C_7
REMARK    5  A    between atoms: C_10  and  O_11
REMARK                            x       y       z     vdW  Elec       q    Type
REMARK                         _______ _______ _______ _____ _____    ______ ____
ROOT
ATOM      1  N   UNL     1       6.381   4.392  18.621  0.00  0.00    +0.000 NA
ATOM      2  C   UNL     1       5.326   5.108  18.837  0.00  0.00    +0.000 C 
ENDROOT
BRANCH   2   3
ATOM      3  C   UNL     1       4.135   4.516  19.479  0.00  0.00    +0.000 A 
ATOM      4  C   UNL     1       4.035   3.125  19.621  0.00  0.00    +0.000 A 
ATOM      5  C   UNL     1       2.898   2.563  20.201  0.00  0.00    +0.000 A 
ATOM      6  C   UNL     1       1.872   3.396  20.634  0.00  0.00    +0.000 A 
ATOM      7  C   UNL     1       1.969   4.778  20.507  0.00  0.00    +0.000 A 
ATOM      8  C   UNL     1       3.106   5.347  19.927  0.00  0.00    +0.000 A 
BRANCH   6   9
ATOM      9  O   UNL     1       0.737   2.885  21.190  0.00  0.00    +0.000 OA
ATOM     10  H   UNL     1       0.532   3.387  21.996  0.00  0.00    +0.000 HD
ENDBRANCH   6   9
ENDBRANCH   2   3
BRANCH   1  11
ATOM     11  N   UNL     1       7.421   5.025  18.010  0.00  0.00    +0.000 N 
ATOM     12  H   UNL     1       8.315   5.132  18.479  0.00  0.00    +0.000 HD
BRANCH  11  13
ATOM     13  C   UNL     1       7.268   5.558  16.757  0.00  0.00    +0.000 C 
ATOM     14  S   UNL     1       6.795   4.653  15.452  0.00  0.00    +0.000 S 
BRANCH  13  15
ATOM     15  N   UNL     1       7.529   6.884  16.658  0.00  0.00    +0.000 N 
ATOM     16  H   UNL     1       7.685   7.332  15.768  0.00  0.00    +0.000 HD
ATOM     17  H   UNL     1       7.672   7.382  17.527  0.00  0.00    +0.000 HD
ENDBRANCH  13  15
ENDBRANCH  11  13
ENDBRANCH   1  11
TORSDOF 5
ENDMDL
MODEL 9
REMARK VINA RESULT:      -5.4      1.439      1.777
REMARK  Name = 
REMARK  5 active torsions:
REMARK  status: ('A' for Active; 'I' for Inactive)
REMARK    1  A    between atoms: N_1  and  C_2
REMARK    2  A    between atoms: C_2  and  N_4
REMARK    3  A    between atoms: N_4  and  N_5
REMARK    4  A    between atoms: C_6  and  C_7
REMARK    5  A    between atoms: C_10  and  O_11
REMARK                            x       y       z     vdW  Elec       q    Type
REMARK                         _______ _______ _______ _____ _____    ______ ____
ROOT
ATOM      1  N   UNL     1       6.154   4.135  18.159  0.00  0.00    +0.000 NA
ATOM      2  C   UNL     1       5.013   4.221  17.556  0.00  0.00    +0.000 C 
ENDROOT
BRANCH   2   3
ATOM      3  C   UNL     1       3.760   3.911  18.274  0.00  0.00    +0.000 A 
ATOM      4  C   UNL     1       2.651   3.424  17.568  0.00  0.00    +0.000 A 
ATOM      5  C   UNL     1       1.458   3.159  18.240  0.00  0.00    +0.000 A 
ATOM      6  C   UNL     1       1.383   3.385  19.610  0.00  0.00    +0.000 A 
ATOM      7  C   UNL     1       2.483   3.857  20.320  0.00  0.00    +0.000 A 
ATOM      8  C   UNL     1       3.681   4.123  19.652  0.00  0.00    +0.000 A 
BRANCH   6   9
ATOM      9  O   UNL     1       0.231   3.155  20.301  0.00  0.00    +0.000 OA
ATOM     10  H   UNL     1       0.262   3.651  21.135  0.00  0.00    +0.000 HD
ENDBRANCH   6   9
ENDBRANCH   2   3
BRANCH   1  11
ATOM     11  N   UNL     1       7.252   4.428  17.408  0.00  0.00    +0.000 N 
ATOM     12  H   UNL     1       8.035   3.784  17.353  0.00  0.00    +0.000 HD
BRANCH  11  13
ATOM     13  C   UNL     1       7.332   5.618  16.734  0.00  0.00    +0.000 C 
ATOM     14  S   UNL     1       7.326   7.085  17.504  0.00  0.00    +0.000 S 
BRANCH  13  15
ATOM     15  N   UNL     1       7.418   5.513  15.386  0.00  0.00    +0.000 N 
ATOM     16  H   UNL     1       6.617   5.644  14.788  0.00  0.00    +0.000 HD
ATOM     17  H   UNL     1       8.302   5.187  15.015  0.00  0.00    +0.000 HD
ENDBRANCH  13  15
ENDBRANCH  11  13
ENDBRANCH   1  11
TORSDOF 5
ENDMDL
