MODEL 1
REMARK VINA RESULT:      -8.0      0.000      0.000
REMARK  Name = 
REMARK  2 active torsions:
REMARK  status: ('A' for Active; 'I' for Inactive)
REMARK    1  A    between atoms: C_2  and  C_3
REMARK    2  A    between atoms: C_7  and  C_8
REMARK                            x       y       z     vdW  Elec       q    Type
REMARK                         _______ _______ _______ _____ _____    ______ ____
ROOT
ATOM      1  C   UNL     1       2.500   7.340  18.476  0.00  0.00    +0.000 A 
ATOM      2  C   UNL     1       2.203   8.503  17.734  0.00  0.00    +0.000 A 
ATOM      3  C   UNL     1       1.585   9.609  18.322  0.00  0.00    +0.000 A 
ATOM      4  C   UNL     1       1.236   9.552  19.664  0.00  0.00    +0.000 A 
ATOM      5  O   UNL     1       0.646  10.697  20.228  0.00  0.00    +0.000 OA
ATOM      6  C   UNL     1       0.313  10.736  21.575  0.00  0.00    +0.000 A 
ATOM      7  O   UNL     1      -0.131  11.745  22.111  0.00  0.00    +0.000 OA
ATOM      8  C   UNL     1       0.499   9.495  22.346  0.00  0.00    +0.000 A 
ATOM      9  C   UNL     1       1.049   8.397  21.816  0.00  0.00    +0.000 A 
ATOM     10  C   UNL     1       1.474   8.415  20.426  0.00  0.00    +0.000 A 
ATOM     11  C   UNL     1       2.114   7.322  19.834  0.00  0.00    +0.000 A 
ENDROOT
BRANCH   1  16
ATOM     12  C   UNL     1       5.113   5.245  16.651  0.00  0.00    +0.000 A 
ATOM     13  C   UNL     1       4.519   3.983  16.658  0.00  0.00    +0.000 A 
ATOM     14  C   UNL     1       3.271   3.813  17.251  0.00  0.00    +0.000 A 
ATOM     15  C   UNL     1       2.618   4.906  17.831  0.00  0.00    +0.000 A 
ATOM     16  C   UNL     1       3.198   6.189  17.856  0.00  0.00    +0.000 A 
ATOM     17  C   UNL     1       4.464   6.330  17.256  0.00  0.00    +0.000 A 
BRANCH  12  19
ATOM     18  N   UNL     1       7.406   5.585  15.490  0.00  0.00    +0.000 NA
ATOM     19  C   UNL     1       6.382   5.438  16.016  0.00  0.00    +0.000 C 
ENDBRANCH  12  19
ENDBRANCH   1  16
TORSDOF 2
ENDMDL
MODEL 2
REMARK VINA RESULT:      -7.8      4.676      7.654
REMARK  Name = 
REMARK  2 active torsions:
REMARK  status: ('A' for Active; 'I' for Inactive)
REMARK    1  A    between atoms: C_2  and  C_3
REMARK    2  A    between atoms: C_7  and  C_8
REMARK                            x       y       z     vdW  Elec       q    Type
REMARK                         _______ _______ _______ _____ _____    ______ ____
ROOT
ATOM      1  C   UNL     1       4.690   5.591  17.871  0.00  0.00    +0.000 A 
ATOM      2  C   UNL     1       5.905   6.290  18.029  0.00  0.00    +0.000 A 
ATOM      3  C   UNL     1       6.882   6.296  17.030  0.00  0.00    +0.000 A 
ATOM      4  C   UNL     1       6.657   5.579  15.863  0.00  0.00    +0.000 A 
ATOM      5  O   UNL     1       7.648   5.638  14.867  0.00  0.00    +0.000 OA
ATOM      6  C   UNL     1       7.476   4.988  13.653  0.00  0.00    +0.000 A 
ATOM      7  O   UNL     1       8.286   5.083  12.738  0.00  0.00    +0.000 OA
ATOM      8  C   UNL     1       6.272   4.151  13.506  0.00  0.00    +0.000 A 
ATOM      9  C   UNL     1       5.330   4.080  14.452  0.00  0.00    +0.000 A 
ATOM     10  C   UNL     1       5.492   4.846  15.677  0.00  0.00    +0.000 A 
ATOM     11  C   UNL     1       4.511   4.864  16.674  0.00  0.00    +0.000 A 
ENDROOT
BRANCH   1  16
ATOM     12  C   UNL     1       2.351   4.536  20.693  0.00  0.00    +0.000 A 
ATOM     13  C   UNL     1       1.616   5.703  20.903  0.00  0.00    +0.000 A 
ATOM     14  C   UNL     1       1.879   6.829  20.128  0.00  0.00    +0.000 A 
ATOM     15  C   UNL     1       2.870   6.785  19.142  0.00  0.00    +0.000 A 
ATOM     16  C   UNL     1       3.640   5.627  18.917  0.00  0.00    +0.000 A 
ATOM     17  C   UNL     1       3.358   4.506  19.720  0.00  0.00    +0.000 A 
BRANCH  12  19
ATOM     18  N   UNL     1       1.825   2.409  22.080  0.00  0.00    +0.000 NA
ATOM     19  C   UNL     1       2.068   3.362  21.462  0.00  0.00    +0.000 C 
ENDBRANCH  12  19
ENDBRANCH   1  16
TORSDOF 2
ENDMDL
MODEL 3
REMARK VINA RESULT:      -7.6      1.506      2.072
REMARK  Name = 
REMARK  2 active torsions:
REMARK  status: ('A' for Active; 'I' for Inactive)
REMARK    1  A    between atoms: C_2  and  C_3
REMARK    2  A    between atoms: C_7  and  C_8
REMARK                            x       y       z     vdW  Elec       q    Type
REMARK                         _______ _______ _______ _____ _____    ______ ____
ROOT
ATOM      1  C   UNL     1       2.551   7.502  18.447  0.00  0.00    +0.000 A 
ATOM      2  C   UNL     1       2.156   8.639  17.710  0.00  0.00    +0.000 A 
ATOM      3  C   UNL     1       1.434   9.679  18.300  0.00  0.00    +0.000 A 
ATOM      4  C   UNL     1       1.081   9.580  19.639  0.00  0.00    +0.000 A 
ATOM      5  O   UNL     1       0.384  10.663  20.205  0.00  0.00    +0.000 OA
ATOM      6  C   UNL     1       0.037  10.660  21.550  0.00  0.00    +0.000 A 
ATOM      7  O   UNL     1      -0.501  11.619  22.089  0.00  0.00    +0.000 OA
ATOM      8  C   UNL     1       0.330   9.435  22.314  0.00  0.00    +0.000 A 
ATOM      9  C   UNL     1       0.981   8.396  21.781  0.00  0.00    +0.000 A 
ATOM     10  C   UNL     1       1.415   8.464  20.395  0.00  0.00    +0.000 A 
ATOM     11  C   UNL     1       2.157   7.438  19.801  0.00  0.00    +0.000 A 
ENDROOT
BRANCH   1  16
ATOM     12  C   UNL     1       3.892   4.050  17.532  0.00  0.00    +0.000 A 
ATOM     13  C   UNL     1       4.916   4.371  16.642  0.00  0.00    +0.000 A 
ATOM     14  C   UNL     1       5.173   5.706  16.342  0.00  0.00    +0.000 A 
ATOM     15  C   UNL     1       4.410   6.716  16.935  0.00  0.00    +0.000 A 
ATOM     16  C   UNL     1       3.357   6.424  17.825  0.00  0.00    +0.000 A 
ATOM     17  C   UNL     1       3.115   5.067  18.105  0.00  0.00    +0.000 A 
BRANCH  12  19
ATOM     18  N   UNL     1       3.429   1.578  18.164  0.00  0.00    +0.000 NA
ATOM     19  C   UNL     1       3.639   2.683  17.873  0.00  0.00    +0.000 C 
ENDBRANCH  12  19
ENDBRANCH   1  16
TORSDOF 2
ENDMDL
MODEL 4
REMARK VINA RESULT:      -7.5      4.614      7.659
REMARK  Name = 
REMARK  2 active torsions:
REMARK  status: ('A' for Active; 'I' for Inactive)
REMARK    1  A    between atoms: C_2  and  C_3
REMARK    2  A    between atoms: C_7  and  C_8
REMARK                            x       y       z     vdW  Elec       q    Type
REMARK                         _______ _______ _______ _____ _____    ______ ____
ROOT
ATOM      1  C   UNL     1       4.684   5.162  17.802  0.00  0.00    +0.000 A 
ATOM      2  C   UNL     1       5.850   5.922  18.032  0.00  0.00    +0.000 A 
ATOM      3  C   UNL     1       6.833   6.068  17.050  0.00  0.00    +0.000 A 
ATOM      4  C   UNL     1       6.667   5.432  15.829  0.00  0.00    +0.000 A 
ATOM      5  O   UNL     1       7.661   5.630  14.855  0.00  0.00    +0.000 OA
ATOM      6  C   UNL     1       7.544   5.066  13.592  0.00  0.00    +0.000 A 
ATOM      7  O   UNL     1       8.354   5.283  12.699  0.00  0.00    +0.000 OA
ATOM      8  C   UNL     1       6.397   4.169  13.364  0.00  0.00    +0.000 A 
ATOM      9  C   UNL     1       5.452   3.965  14.287  0.00  0.00    +0.000 A 
ATOM     10  C   UNL     1       5.553   4.642  15.570  0.00  0.00    +0.000 A 
ATOM     11  C   UNL     1       4.564   4.521  16.551  0.00  0.00    +0.000 A 
ENDROOT
BRANCH   1  16
ATOM     12  C   UNL     1       2.002   6.082  20.354  0.00  0.00    +0.000 A 
ATOM     13  C   UNL     1       1.607   4.827  20.815  0.00  0.00    +0.000 A 
ATOM     14  C   UNL     1       2.211   3.684  20.300  0.00  0.00    +0.000 A 
ATOM     15  C   UNL     1       3.213   3.798  19.331  0.00  0.00    +0.000 A 
ATOM     16  C   UNL     1       3.623   5.050  18.833  0.00  0.00    +0.000 A 
ATOM     17  C   UNL     1       2.989   6.189  19.365  0.00  0.00    +0.000 A 
BRANCH  12  19
ATOM     18  N   UNL     1       0.937   8.235  21.331  0.00  0.00    +0.000 NA
ATOM     19  C   UNL     1       1.409   7.266  20.899  0.00  0.00    +0.000 C 
ENDBRANCH  12  19
ENDBRANCH   1  16
TORSDOF 2
ENDMDL
MODEL 5
REMARK VINA RESULT:      -7.5      5.783      7.825
REMARK  Name = 
REMARK  2 active torsions:
REMARK  status: ('A' for Active; 'I' for Inactive)
REMARK    1  A    between atoms: C_2  and  C_3
REMARK    2  A    between atoms: C_7  and  C_8
REMARK                            x       y       z     vdW  Elec       q    Type
REMARK                         _______ _______ _______ _____ _____    ______ ____
ROOT
ATOM      1  C   UNL     1       4.461   4.417  17.139  0.00  0.00    +0.000 A 
ATOM      2  C   UNL     1       5.458   5.238  17.706  0.00  0.00    +0.000 A 
ATOM      3  C   UNL     1       6.565   5.662  16.966  0.00  0.00    +0.000 A 
ATOM      4  C   UNL     1       6.693   5.248  15.648  0.00  0.00    +0.000 A 
ATOM      5  O   UNL     1       7.802   5.724  14.926  0.00  0.00    +0.000 OA
ATOM      6  C   UNL     1       7.975   5.394  13.589  0.00  0.00    +0.000 A 
ATOM      7  O   UNL     1       8.888   5.854  12.913  0.00  0.00    +0.000 OA
ATOM      8  C   UNL     1       7.015   4.441  13.004  0.00  0.00    +0.000 A 
ATOM      9  C   UNL     1       5.964   3.975  13.687  0.00  0.00    +0.000 A 
ATOM     10  C   UNL     1       5.756   4.410  15.058  0.00  0.00    +0.000 A 
ATOM     11  C   UNL     1       4.640   4.009  15.800  0.00  0.00    +0.000 A 
ENDROOT
BRANCH   1  16
ATOM     12  C   UNL     1       2.240   3.176  19.982  0.00  0.00    +0.000 A 
ATOM     13  C   UNL     1       0.977   3.216  19.392  0.00  0.00    +0.000 A 
ATOM     14  C   UNL     1       0.847   3.642  18.074  0.00  0.00    +0.000 A 
ATOM     15  C   UNL     1       1.979   4.022  17.346  0.00  0.00    +0.000 A 
ATOM     16  C   UNL     1       3.266   4.009  17.918  0.00  0.00    +0.000 A 
ATOM     17  C   UNL     1       3.367   3.581  19.255  0.00  0.00    +0.000 A 
BRANCH  12  19
ATOM     18  N   UNL     1       2.526   2.334  22.417  0.00  0.00    +0.000 NA
ATOM     19  C   UNL     1       2.390   2.709  21.327  0.00  0.00    +0.000 C 
ENDBRANCH  12  19
ENDBRANCH   1  16
TORSDOF 2
ENDMDL
MODEL 6
REMARK VINA RESULT:      -7.5      5.017      5.812
REMARK  Name = 
REMARK  2 active torsions:
REMARK  status: ('A' for Active; 'I' for Inactive)
REMARK    1  A    between atoms: C_2  and  C_3
REMARK    2  A    between atoms: C_7  and  C_8
REMARK                            x       y       z     vdW  Elec       q    Type
REMARK                         _______ _______ _______ _____ _____    ______ ____
ROOT
ATOM      1  C   UNL     1       4.935   4.191  17.043  0.00  0.00    +0.000 A 
ATOM      2  C   UNL     1       5.472   4.699  18.244  0.00  0.00    +0.000 A 
ATOM      3  C   UNL     1       4.823   4.525  19.469  0.00  0.00    +0.000 A 
ATOM      4  C   UNL     1       3.609   3.853  19.498  0.00  0.00    +0.000 A 
ATOM      5  O   UNL     1       3.003   3.668  20.753  0.00  0.00    +0.000 OA
ATOM      6  C   UNL     1       1.812   2.964  20.872  0.00  0.00    +0.000 A 
ATOM      7  O   UNL     1       1.300   2.720  21.958  0.00  0.00    +0.000 OA
ATOM      8  C   UNL     1       1.167   2.526  19.622  0.00  0.00    +0.000 A 
ATOM      9  C   UNL     1       1.730   2.707  18.423  0.00  0.00    +0.000 A 
ATOM     10  C   UNL     1       3.023   3.366  18.337  0.00  0.00    +0.000 A 
ATOM     11  C   UNL     1       3.692   3.526  17.119  0.00  0.00    +0.000 A 
ENDROOT
BRANCH   1  16
ATOM     12  C   UNL     1       5.908   3.816  13.374  0.00  0.00    +0.000 A 
ATOM     13  C   UNL     1       7.047   4.617  13.300  0.00  0.00    +0.000 A 
ATOM     14  C   UNL     1       7.500   5.275  14.439  0.00  0.00    +0.000 A 
ATOM     15  C   UNL     1       6.817   5.127  15.651  0.00  0.00    +0.000 A 
ATOM     16  C   UNL     1       5.654   4.339  15.755  0.00  0.00    +0.000 A 
ATOM     17  C   UNL     1       5.214   3.691  14.586  0.00  0.00    +0.000 A 
BRANCH  12  19
ATOM     18  N   UNL     1       5.084   2.546  11.268  0.00  0.00    +0.000 NA
ATOM     19  C   UNL     1       5.451   3.108  12.216  0.00  0.00    +0.000 C 
ENDBRANCH  12  19
ENDBRANCH   1  16
TORSDOF 2
ENDMDL
MODEL 7
REMARK VINA RESULT:      -7.4      0.859      1.822
REMARK  Name = 
REMARK  2 active torsions:
REMARK  status: ('A' for Active; 'I' for Inactive)
REMARK    1  A    between atoms: C_2  and  C_3
REMARK    2  A    between atoms: C_7  and  C_8
REMARK                            x       y       z     vdW  Elec       q    Type
REMARK                         _______ _______ _______ _____ _____    ______ ____
ROOT
ATOM      1  C   UNL     1       2.503   7.036  18.770  0.00  0.00    +0.000 A 
ATOM      2  C   UNL     1       2.132   6.858  20.119  0.00  0.00    +0.000 A 
ATOM      3  C   UNL     1       1.427   7.839  20.820  0.00  0.00    +0.000 A 
ATOM      4  C   UNL     1       1.103   9.026  20.178  0.00  0.00    +0.000 A 
ATOM      5  O   UNL     1       0.364   9.975  20.906  0.00  0.00    +0.000 OA
ATOM      6  C   UNL     1      -0.039  11.166  20.318  0.00  0.00    +0.000 A 
ATOM      7  O   UNL     1      -0.748  11.978  20.901  0.00  0.00    +0.000 OA
ATOM      8  C   UNL     1       0.437  11.432  18.949  0.00  0.00    +0.000 A 
ATOM      9  C   UNL     1       1.150  10.540  18.253  0.00  0.00    +0.000 A 
ATOM     10  C   UNL     1       1.479   9.262  18.861  0.00  0.00    +0.000 A 
ATOM     11  C   UNL     1       2.165   8.264  18.161  0.00  0.00    +0.000 A 
ENDROOT
BRANCH   1  16
ATOM     12  C   UNL     1       5.121   5.194  16.696  0.00  0.00    +0.000 A 
ATOM     13  C   UNL     1       4.545   3.930  16.571  0.00  0.00    +0.000 A 
ATOM     14  C   UNL     1       3.308   3.677  17.157  0.00  0.00    +0.000 A 
ATOM     15  C   UNL     1       2.647   4.688  17.861  0.00  0.00    +0.000 A 
ATOM     16  C   UNL     1       3.209   5.970  18.019  0.00  0.00    +0.000 A 
ATOM     17  C   UNL     1       4.464   6.196  17.423  0.00  0.00    +0.000 A 
BRANCH  12  19
ATOM     18  N   UNL     1       7.394   5.718  15.563  0.00  0.00    +0.000 NA
ATOM     19  C   UNL     1       6.378   5.475  16.070  0.00  0.00    +0.000 C 
ENDBRANCH  12  19
ENDBRANCH   1  16
TORSDOF 2
ENDMDL
MODEL 8
REMARK VINA RESULT:      -7.3      2.340      2.625
REMARK  Name = 
REMARK  2 active torsions:
REMARK  status: ('A' for Active; 'I' for Inactive)
REMARK    1  A    between atoms: C_2  and  C_3
REMARK    2  A    between atoms: C_7  and  C_8
REMARK                            x       y       z     vdW  Elec       q    Type
REMARK                         _______ _______ _______ _____ _____    ______ ____
ROOT
ATOM      1  C   UNL     1       2.232   6.322  19.033  0.00  0.00    +0.000 A 
ATOM      2  C   UNL     1       2.296   7.310  18.028  0.00  0.00    +0.000 A 
ATOM      3  C   UNL     1       1.970   8.642  18.289  0.00  0.00    +0.000 A 
ATOM      4  C   UNL     1       1.553   8.997  19.564  0.00  0.00    +0.000 A 
ATOM      5  O   UNL     1       1.267  10.354  19.797  0.00  0.00    +0.000 OA
ATOM      6  C   UNL     1       0.890  10.796  21.058  0.00  0.00    +0.000 A 
ATOM      7  O   UNL     1       0.708  11.981  21.310  0.00  0.00    +0.000 OA
ATOM      8  C   UNL     1       0.697   9.769  22.097  0.00  0.00    +0.000 A 
ATOM      9  C   UNL     1       0.956   8.475  21.882  0.00  0.00    +0.000 A 
ATOM     10  C   UNL     1       1.439   8.053  20.577  0.00  0.00    +0.000 A 
ATOM     11  C   UNL     1       1.789   6.725  20.311  0.00  0.00    +0.000 A 
ENDROOT
BRANCH   1  16
ATOM     12  C   UNL     1       3.785   2.857  19.403  0.00  0.00    +0.000 A 
ATOM     13  C   UNL     1       3.385   2.240  18.218  0.00  0.00    +0.000 A 
ATOM     14  C   UNL     1       2.615   2.948  17.300  0.00  0.00    +0.000 A 
ATOM     15  C   UNL     1       2.251   4.272  17.565  0.00  0.00    +0.000 A 
ATOM     16  C   UNL     1       2.625   4.918  18.759  0.00  0.00    +0.000 A 
ATOM     17  C   UNL     1       3.397   4.177  19.673  0.00  0.00    +0.000 A 
BRANCH  12  19
ATOM     18  N   UNL     1       5.270   1.565  21.090  0.00  0.00    +0.000 NA
ATOM     19  C   UNL     1       4.604   2.150  20.340  0.00  0.00    +0.000 C 
ENDBRANCH  12  19
ENDBRANCH   1  16
TORSDOF 2
ENDMDL
MODEL 9
REMARK VINA RESULT:      -7.3      4.172      7.355
REMARK  Name = 
REMARK  2 active torsions:
REMARK  status: ('A' for Active; 'I' for Inactive)
REMARK    1  A    between atoms: C_2  and  C_3
REMARK    2  A    between atoms: C_7  and  C_8
REMARK                            x       y       z     vdW  Elec       q    Type
REMARK                         _______ _______ _______ _____ _____    ______ ____
ROOT
ATOM      1  C   UNL     1       2.449   7.643  18.821  0.00  0.00    +0.000 A 
ATOM      2  C   UNL     1       2.677   6.529  19.656  0.00  0.00    +0.000 A 
ATOM      3  C   UNL     1       3.639   5.565  19.344  0.00  0.00    +0.000 A 
ATOM      4  C   UNL     1       4.371   5.698  18.173  0.00  0.00    +0.000 A 
ATOM      5  O   UNL     1       5.353   4.726  17.911  0.00  0.00    +0.000 OA
ATOM      6  C   UNL     1       6.160   4.816  16.784  0.00  0.00    +0.000 A 
ATOM      7  O   UNL     1       7.074   4.028  16.568  0.00  0.00    +0.000 OA
ATOM      8  C   UNL     1       5.863   5.901  15.832  0.00  0.00    +0.000 A 
ATOM      9  C   UNL     1       4.924   6.823  16.068  0.00  0.00    +0.000 A 
ATOM     10  C   UNL     1       4.156   6.758  17.300  0.00  0.00    +0.000 A 
ATOM     11  C   UNL     1       3.207   7.730  17.633  0.00  0.00    +0.000 A 
ENDROOT
BRANCH   1  16
ATOM     12  C   UNL     1       0.192   9.942  20.864  0.00  0.00    +0.000 A 
ATOM     13  C   UNL     1      -0.448  10.672  19.864  0.00  0.00    +0.000 A 
ATOM     14  C   UNL     1      -0.151  10.417  18.529  0.00  0.00    +0.000 A 
ATOM     15  C   UNL     1       0.782   9.430  18.196  0.00  0.00    +0.000 A 
ATOM     16  C   UNL     1       1.459   8.686  19.183  0.00  0.00    +0.000 A 
ATOM     17  C   UNL     1       1.144   8.970  20.525  0.00  0.00    +0.000 A 
BRANCH  12  19
ATOM     18  N   UNL     1      -0.387  10.347  23.359  0.00  0.00    +0.000 NA
ATOM     19  C   UNL     1      -0.129  10.173  22.240  0.00  0.00    +0.000 C 
ENDBRANCH  12  19
ENDBRANCH   1  16
TORSDOF 2
ENDMDL
