MODEL 1
REMARK VINA RESULT:      -6.6      0.000      0.000
REMARK  Name = 
REMARK  6 active torsions:
REMARK  status: ('A' for Active; 'I' for Inactive)
REMARK    1  A    between atoms: C_1  and  C_2
REMARK    2  A    between atoms: N_4  and  C_5
REMARK    3  A    between atoms: C_8  and  C_9
REMARK    4  A    between atoms: C_10  and  C_11
REMARK    5  A    between atoms: C_10  and  C_13
REMARK    6  A    between atoms: N_15  and  C_16
REMARK                            x       y       z     vdW  Elec       q    Type
REMARK                         _______ _______ _______ _____ _____    ______ ____
ROOT
ATOM      1  C   UNL     1       1.616   9.059  17.823  0.00  0.00    +0.000 C 
ATOM      2  C   UNL     1       1.957   8.066  18.679  0.00  0.00    +0.000 C 
ENDROOT
BRANCH   1   6
ATOM      3  C   UNL     1      -0.307  12.803  18.838  0.00  0.00    +0.000 A 
ATOM      4  C   UNL     1      -1.036  11.628  18.668  0.00  0.00    +0.000 A 
ATOM      5  C   UNL     1      -0.395  10.410  18.379  0.00  0.00    +0.000 A 
ATOM      6  C   UNL     1       0.997  10.335  18.258  0.00  0.00    +0.000 A 
ATOM      7  C   UNL     1       1.740  11.500  18.468  0.00  0.00    +0.000 A 
ATOM      8  C   UNL     1       1.093  12.721  18.755  0.00  0.00    +0.000 A 
BRANCH   3  12
ATOM      9  C   UNL     1      -1.639  16.106  20.143  0.00  0.00    +0.000 C 
ATOM     10  C   UNL     1      -0.815  14.840  20.213  0.00  0.00    +0.000 C 
ATOM     11  O   UNL     1      -0.186  14.572  21.231  0.00  0.00    +0.000 OA
ATOM     12  N   UNL     1      -0.893  14.075  19.060  0.00  0.00    +0.000 N 
ATOM     13  H   UNL     1      -1.458  14.444  18.306  0.00  0.00    +0.000 HD
ENDBRANCH   3  12
ENDBRANCH   1   6
BRANCH   2  14
ATOM     14  C   UNL     1       2.802   6.913  18.239  0.00  0.00    +0.000 C 
ATOM     15  O   UNL     1       3.922   7.097  17.769  0.00  0.00    +0.000 OA
ATOM     16  N   UNL     1       2.267   5.656  18.435  0.00  0.00    +0.000 N 
ATOM     17  H   UNL     1       1.369   5.548  18.891  0.00  0.00    +0.000 HD
BRANCH  16  18
ATOM     18  C   UNL     1       3.067   4.437  18.284  0.00  0.00    +0.000 C 
ATOM     19  C   UNL     1       3.622   3.970  19.637  0.00  0.00    +0.000 C 
ATOM     20  C   UNL     1       2.525   3.440  20.561  0.00  0.00    +0.000 C 
ATOM     21  C   UNL     1       1.734   2.314  19.904  0.00  0.00    +0.000 C 
ATOM     22  C   UNL     1       1.188   2.708  18.535  0.00  0.00    +0.000 C 
ATOM     23  C   UNL     1       2.254   3.316  17.622  0.00  0.00    +0.000 C 
ENDBRANCH  16  18
ENDBRANCH   2  14
BRANCH   2  24
ATOM     24  C   UNL     1       1.644   8.269  20.152  0.00  0.00    +0.000 C 
ATOM     25  N   UNL     1       1.383   8.437  21.375  0.00  0.00    +0.000 NA
ENDBRANCH   2  24
TORSDOF 5
ENDMDL
MODEL 2
REMARK VINA RESULT:      -6.5      2.122      3.124
REMARK  Name = 
REMARK  6 active torsions:
REMARK  status: ('A' for Active; 'I' for Inactive)
REMARK    1  A    between atoms: C_1  and  C_2
REMARK    2  A    between atoms: N_4  and  C_5
REMARK    3  A    between atoms: C_8  and  C_9
REMARK    4  A    between atoms: C_10  and  C_11
REMARK    5  A    between atoms: C_10  and  C_13
REMARK    6  A    between atoms: N_15  and  C_16
REMARK                            x       y       z     vdW  Elec       q    Type
REMARK                         _______ _______ _______ _____ _____    ______ ____
ROOT
ATOM      1  C   UNL     1       1.845   8.702  17.711  0.00  0.00    +0.000 C 
ATOM      2  C   UNL     1       2.093   7.701  18.589  0.00  0.00    +0.000 C 
ENDROOT
BRANCH   1   6
ATOM      3  C   UNL     1       0.362  12.521  19.112  0.00  0.00    +0.000 A 
ATOM      4  C   UNL     1       1.688  12.349  18.723  0.00  0.00    +0.000 A 
ATOM      5  C   UNL     1       2.147  11.114  18.231  0.00  0.00    +0.000 A 
ATOM      6  C   UNL     1       1.286  10.018  18.110  0.00  0.00    +0.000 A 
ATOM      7  C   UNL     1      -0.056  10.193  18.458  0.00  0.00    +0.000 A 
ATOM      8  C   UNL     1      -0.513  11.433  18.954  0.00  0.00    +0.000 A 
BRANCH   3  12
ATOM      9  C   UNL     1      -0.775  15.413  21.288  0.00  0.00    +0.000 C 
ATOM     10  C   UNL     1      -0.025  14.133  20.998  0.00  0.00    +0.000 C 
ATOM     11  O   UNL     1       0.591  13.564  21.892  0.00  0.00    +0.000 OA
ATOM     12  N   UNL     1      -0.149  13.715  19.681  0.00  0.00    +0.000 N 
ATOM     13  H   UNL     1      -0.695  14.306  19.066  0.00  0.00    +0.000 HD
ENDBRANCH   3  12
ENDBRANCH   1   6
BRANCH   2  14
ATOM     14  C   UNL     1       2.885   6.496  18.193  0.00  0.00    +0.000 C 
ATOM     15  O   UNL     1       2.326   5.433  17.936  0.00  0.00    +0.000 OA
ATOM     16  N   UNL     1       4.251   6.671  18.094  0.00  0.00    +0.000 N 
ATOM     17  H   UNL     1       4.662   7.583  18.247  0.00  0.00    +0.000 HD
BRANCH  16  18
ATOM     18  C   UNL     1       5.123   5.662  17.485  0.00  0.00    +0.000 C 
ATOM     19  C   UNL     1       6.229   6.321  16.648  0.00  0.00    +0.000 C 
ATOM     20  C   UNL     1       7.254   7.051  17.515  0.00  0.00    +0.000 C 
ATOM     21  C   UNL     1       7.870   6.123  18.557  0.00  0.00    +0.000 C 
ATOM     22  C   UNL     1       6.815   5.409  19.397  0.00  0.00    +0.000 C 
ATOM     23  C   UNL     1       5.733   4.738  18.548  0.00  0.00    +0.000 C 
ENDBRANCH  16  18
ENDBRANCH   2  14
BRANCH   2  24
ATOM     24  C   UNL     1       1.734   7.938  20.047  0.00  0.00    +0.000 C 
ATOM     25  N   UNL     1       1.437   8.135  21.256  0.00  0.00    +0.000 NA
ENDBRANCH   2  24
TORSDOF 5
ENDMDL
MODEL 3
REMARK VINA RESULT:      -6.5      2.833      3.213
REMARK  Name = 
REMARK  6 active torsions:
REMARK  status: ('A' for Active; 'I' for Inactive)
REMARK    1  A    between atoms: C_1  and  C_2
REMARK    2  A    between atoms: N_4  and  C_5
REMARK    3  A    between atoms: C_8  and  C_9
REMARK    4  A    between atoms: C_10  and  C_11
REMARK    5  A    between atoms: C_10  and  C_13
REMARK    6  A    between atoms: N_15  and  C_16
REMARK                            x       y       z     vdW  Elec       q    Type
REMARK                         _______ _______ _______ _____ _____    ______ ____
ROOT
ATOM      1  C   UNL     1       1.462   8.618  21.145  0.00  0.00    +0.000 C 
ATOM      2  C   UNL     1       1.640   8.361  19.826  0.00  0.00    +0.000 C 
ENDROOT
BRANCH   1   6
ATOM      3  C   UNL     1      -1.009  11.786  22.757  0.00  0.00    +0.000 A 
ATOM      4  C   UNL     1      -0.099  12.019  21.730  0.00  0.00    +0.000 A 
ATOM      5  C   UNL     1       0.669  10.973  21.187  0.00  0.00    +0.000 A 
ATOM      6  C   UNL     1       0.540   9.661  21.656  0.00  0.00    +0.000 A 
ATOM      7  C   UNL     1      -0.402   9.410  22.658  0.00  0.00    +0.000 A 
ATOM      8  C   UNL     1      -1.168  10.463  23.202  0.00  0.00    +0.000 A 
BRANCH   3  12
ATOM      9  C   UNL     1      -3.599  14.227  24.072  0.00  0.00    +0.000 C 
ATOM     10  C   UNL     1      -3.136  12.981  23.351  0.00  0.00    +0.000 C 
ATOM     11  O   UNL     1      -3.950  12.260  22.785  0.00  0.00    +0.000 OA
ATOM     12  N   UNL     1      -1.761  12.803  23.397  0.00  0.00    +0.000 N 
ATOM     13  H   UNL     1      -1.231  13.494  23.913  0.00  0.00    +0.000 HD
ENDBRANCH   3  12
ENDBRANCH   1   6
BRANCH   2  14
ATOM     14  C   UNL     1       2.376   7.145  19.362  0.00  0.00    +0.000 C 
ATOM     15  O   UNL     1       3.234   7.225  18.487  0.00  0.00    +0.000 OA
ATOM     16  N   UNL     1       2.064   5.962  20.003  0.00  0.00    +0.000 N 
ATOM     17  H   UNL     1       1.400   5.955  20.768  0.00  0.00    +0.000 HD
BRANCH  16  18
ATOM     18  C   UNL     1       2.867   4.748  19.831  0.00  0.00    +0.000 C 
ATOM     19  C   UNL     1       2.461   3.669  20.845  0.00  0.00    +0.000 C 
ATOM     20  C   UNL     1       1.073   3.098  20.557  0.00  0.00    +0.000 C 
ATOM     21  C   UNL     1       0.978   2.544  19.139  0.00  0.00    +0.000 C 
ATOM     22  C   UNL     1       1.407   3.562  18.087  0.00  0.00    +0.000 C 
ATOM     23  C   UNL     1       2.759   4.207  18.399  0.00  0.00    +0.000 C 
ENDBRANCH  16  18
ENDBRANCH   2  14
BRANCH   2  24
ATOM     24  C   UNL     1       0.880   9.223  18.833  0.00  0.00    +0.000 C 
ATOM     25  N   UNL     1       0.249   9.940  18.008  0.00  0.00    +0.000 NA
ENDBRANCH   2  24
TORSDOF 5
ENDMDL
MODEL 4
REMARK VINA RESULT:      -6.5      0.703      1.217
REMARK  Name = 
REMARK  6 active torsions:
REMARK  status: ('A' for Active; 'I' for Inactive)
REMARK    1  A    between atoms: C_1  and  C_2
REMARK    2  A    between atoms: N_4  and  C_5
REMARK    3  A    between atoms: C_8  and  C_9
REMARK    4  A    between atoms: C_10  and  C_11
REMARK    5  A    between atoms: C_10  and  C_13
REMARK    6  A    between atoms: N_15  and  C_16
REMARK                            x       y       z     vdW  Elec       q    Type
REMARK                         _______ _______ _______ _____ _____    ______ ____
ROOT
ATOM      1  C   UNL     1       1.942   8.830  17.732  0.00  0.00    +0.000 C 
ATOM      2  C   UNL     1       2.161   7.816  18.604  0.00  0.00    +0.000 C 
ENDROOT
BRANCH   1   6
ATOM      3  C   UNL     1       0.470  12.653  19.130  0.00  0.00    +0.000 A 
ATOM      4  C   UNL     1       1.786  12.487  18.705  0.00  0.00    +0.000 A 
ATOM      5  C   UNL     1       2.241  11.250  18.215  0.00  0.00    +0.000 A 
ATOM      6  C   UNL     1       1.385  10.146  18.131  0.00  0.00    +0.000 A 
ATOM      7  C   UNL     1       0.052  10.314  18.515  0.00  0.00    +0.000 A 
ATOM      8  C   UNL     1      -0.400  11.557  19.010  0.00  0.00    +0.000 A 
BRANCH   3  12
ATOM      9  C   UNL     1      -0.661  15.545  21.309  0.00  0.00    +0.000 C 
ATOM     10  C   UNL     1       0.077  14.258  21.021  0.00  0.00    +0.000 C 
ATOM     11  O   UNL     1       0.672  13.675  21.920  0.00  0.00    +0.000 OA
ATOM     12  N   UNL     1      -0.034  13.850  19.700  0.00  0.00    +0.000 N 
ATOM     13  H   UNL     1      -0.563  14.451  19.081  0.00  0.00    +0.000 HD
ENDBRANCH   3  12
ENDBRANCH   1   6
BRANCH   2  14
ATOM     14  C   UNL     1       2.952   6.609  18.214  0.00  0.00    +0.000 C 
ATOM     15  O   UNL     1       4.107   6.717  17.810  0.00  0.00    +0.000 OA
ATOM     16  N   UNL     1       2.324   5.390  18.378  0.00  0.00    +0.000 N 
ATOM     17  H   UNL     1       1.396   5.343  18.781  0.00  0.00    +0.000 HD
BRANCH  16  18
ATOM     18  C   UNL     1       3.050   4.121  18.274  0.00  0.00    +0.000 C 
ATOM     19  C   UNL     1       3.629   3.702  19.633  0.00  0.00    +0.000 C 
ATOM     20  C   UNL     1       2.539   3.292  20.624  0.00  0.00    +0.000 C 
ATOM     21  C   UNL     1       1.663   2.176  20.064  0.00  0.00    +0.000 C 
ATOM     22  C   UNL     1       1.089   2.520  18.693  0.00  0.00    +0.000 C 
ATOM     23  C   UNL     1       2.152   3.012  17.709  0.00  0.00    +0.000 C 
ENDBRANCH  16  18
ENDBRANCH   2  14
BRANCH   2  24
ATOM     24  C   UNL     1       1.769   8.041  20.055  0.00  0.00    +0.000 C 
ATOM     25  N   UNL     1       1.444   8.227  21.259  0.00  0.00    +0.000 NA
ENDBRANCH   2  24
TORSDOF 5
ENDMDL
MODEL 5
REMARK VINA RESULT:      -6.5      1.326      1.675
REMARK  Name = 
REMARK  6 active torsions:
REMARK  status: ('A' for Active; 'I' for Inactive)
REMARK    1  A    between atoms: C_1  and  C_2
REMARK    2  A    between atoms: N_4  and  C_5
REMARK    3  A    between atoms: C_8  and  C_9
REMARK    4  A    between atoms: C_10  and  C_11
REMARK    5  A    between atoms: C_10  and  C_13
REMARK    6  A    between atoms: N_15  and  C_16
REMARK                            x       y       z     vdW  Elec       q    Type
REMARK                         _______ _______ _______ _____ _____    ______ ____
ROOT
ATOM      1  C   UNL     1       1.696   8.877  17.665  0.00  0.00    +0.000 C 
ATOM      2  C   UNL     1       2.166   7.901  18.478  0.00  0.00    +0.000 C 
ENDROOT
BRANCH   1   6
ATOM      3  C   UNL     1      -0.746  12.054  19.304  0.00  0.00    +0.000 A 
ATOM      4  C   UNL     1       0.645  12.117  19.323  0.00  0.00    +0.000 A 
ATOM      5  C   UNL     1       1.426  11.097  18.751  0.00  0.00    +0.000 A 
ATOM      6  C   UNL     1       0.833   9.988  18.137  0.00  0.00    +0.000 A 
ATOM      7  C   UNL     1      -0.563   9.937  18.076  0.00  0.00    +0.000 A 
ATOM      8  C   UNL     1      -1.343  10.961  18.654  0.00  0.00    +0.000 A 
BRANCH   3  12
ATOM      9  C   UNL     1      -3.076  14.087  21.503  0.00  0.00    +0.000 C 
ATOM     10  C   UNL     1      -2.141  12.939  21.195  0.00  0.00    +0.000 C 
ATOM     11  O   UNL     1      -1.954  12.058  22.027  0.00  0.00    +0.000 OA
ATOM     12  N   UNL     1      -1.592  13.009  19.923  0.00  0.00    +0.000 N 
ATOM     13  H   UNL     1      -1.849  13.810  19.360  0.00  0.00    +0.000 HD
ENDBRANCH   3  12
ENDBRANCH   1   6
BRANCH   2  14
ATOM     14  C   UNL     1       3.229   6.953  18.023  0.00  0.00    +0.000 C 
ATOM     15  O   UNL     1       4.255   7.366  17.489  0.00  0.00    +0.000 OA
ATOM     16  N   UNL     1       3.002   5.615  18.280  0.00  0.00    +0.000 N 
ATOM     17  H   UNL     1       2.174   5.324  18.786  0.00  0.00    +0.000 HD
BRANCH  16  18
ATOM     18  C   UNL     1       4.050   4.603  18.117  0.00  0.00    +0.000 C 
ATOM     19  C   UNL     1       4.352   3.901  19.450  0.00  0.00    +0.000 C 
ATOM     20  C   UNL     1       3.200   3.004  19.905  0.00  0.00    +0.000 C 
ATOM     21  C   UNL     1       2.839   1.972  18.842  0.00  0.00    +0.000 C 
ATOM     22  C   UNL     1       2.565   2.609  17.483  0.00  0.00    +0.000 C 
ATOM     23  C   UNL     1       3.668   3.574  17.044  0.00  0.00    +0.000 C 
ENDBRANCH  16  18
ENDBRANCH   2  14
BRANCH   2  24
ATOM     24  C   UNL     1       1.744   7.937  19.938  0.00  0.00    +0.000 C 
ATOM     25  N   UNL     1       1.393   7.966  21.149  0.00  0.00    +0.000 NA
ENDBRANCH   2  24
TORSDOF 5
ENDMDL
MODEL 6
REMARK VINA RESULT:      -6.5      1.997      2.859
REMARK  Name = 
REMARK  6 active torsions:
REMARK  status: ('A' for Active; 'I' for Inactive)
REMARK    1  A    between atoms: C_1  and  C_2
REMARK    2  A    between atoms: N_4  and  C_5
REMARK    3  A    between atoms: C_8  and  C_9
REMARK    4  A    between atoms: C_10  and  C_11
REMARK    5  A    between atoms: C_10  and  C_13
REMARK    6  A    between atoms: N_15  and  C_16
REMARK                            x       y       z     vdW  Elec       q    Type
REMARK                         _______ _______ _______ _____ _____    ______ ____
ROOT
ATOM      1  C   UNL     1       1.751   8.803  17.801  0.00  0.00    +0.000 C 
ATOM      2  C   UNL     1       2.019   7.818  18.692  0.00  0.00    +0.000 C 
ENDROOT
BRANCH   1   6
ATOM      3  C   UNL     1       0.023  12.674  18.679  0.00  0.00    +0.000 A 
ATOM      4  C   UNL     1      -0.760  11.525  18.597  0.00  0.00    +0.000 A 
ATOM      5  C   UNL     1      -0.181  10.267  18.352  0.00  0.00    +0.000 A 
ATOM      6  C   UNL     1       1.202  10.126  18.188  0.00  0.00    +0.000 A 
ATOM      7  C   UNL     1       1.999  11.267  18.310  0.00  0.00    +0.000 A 
ATOM      8  C   UNL     1       1.414  12.528  18.553  0.00  0.00    +0.000 A 
BRANCH   3  12
ATOM      9  C   UNL     1      -1.313  16.016  19.879  0.00  0.00    +0.000 C 
ATOM     10  C   UNL     1      -0.620  14.682  20.042  0.00  0.00    +0.000 C 
ATOM     11  O   UNL     1      -0.248  14.313  21.151  0.00  0.00    +0.000 OA
ATOM     12  N   UNL     1      -0.502  13.980  18.852  0.00  0.00    +0.000 N 
ATOM     13  H   UNL     1      -0.861  14.431  18.020  0.00  0.00    +0.000 HD
ENDBRANCH   3  12
ENDBRANCH   1   6
BRANCH   2  14
ATOM     14  C   UNL     1       2.801   6.605  18.301  0.00  0.00    +0.000 C 
ATOM     15  O   UNL     1       2.253   5.513  18.182  0.00  0.00    +0.000 OA
ATOM     16  N   UNL     1       4.144   6.804  18.043  0.00  0.00    +0.000 N 
ATOM     17  H   UNL     1       4.540   7.735  18.085  0.00  0.00    +0.000 HD
BRANCH  16  18
ATOM     18  C   UNL     1       4.977   5.773  17.419  0.00  0.00    +0.000 C 
ATOM     19  C   UNL     1       6.109   6.402  16.593  0.00  0.00    +0.000 C 
ATOM     20  C   UNL     1       7.159   7.079  17.474  0.00  0.00    +0.000 C 
ATOM     21  C   UNL     1       7.738   6.111  18.501  0.00  0.00    +0.000 C 
ATOM     22  C   UNL     1       6.656   5.424  19.327  0.00  0.00    +0.000 C 
ATOM     23  C   UNL     1       5.550   4.809  18.467  0.00  0.00    +0.000 C 
ENDBRANCH  16  18
ENDBRANCH   2  14
BRANCH   2  24
ATOM     24  C   UNL     1       1.692   8.082  20.152  0.00  0.00    +0.000 C 
ATOM     25  N   UNL     1       1.421   8.301  21.364  0.00  0.00    +0.000 NA
ENDBRANCH   2  24
TORSDOF 5
ENDMDL
MODEL 7
REMARK VINA RESULT:      -6.4      0.586      1.270
REMARK  Name = 
REMARK  6 active torsions:
REMARK  status: ('A' for Active; 'I' for Inactive)
REMARK    1  A    between atoms: C_1  and  C_2
REMARK    2  A    between atoms: N_4  and  C_5
REMARK    3  A    between atoms: C_8  and  C_9
REMARK    4  A    between atoms: C_10  and  C_11
REMARK    5  A    between atoms: C_10  and  C_13
REMARK    6  A    between atoms: N_15  and  C_16
REMARK                            x       y       z     vdW  Elec       q    Type
REMARK                         _______ _______ _______ _____ _____    ______ ____
ROOT
ATOM      1  C   UNL     1       1.555   8.899  18.084  0.00  0.00    +0.000 C 
ATOM      2  C   UNL     1       1.815   8.073  19.127  0.00  0.00    +0.000 C 
ENDROOT
BRANCH   1   6
ATOM      3  C   UNL     1      -0.158  12.810  18.798  0.00  0.00    +0.000 A 
ATOM      4  C   UNL     1       1.219  12.619  18.717  0.00  0.00    +0.000 A 
ATOM      5  C   UNL     1       1.761  11.350  18.444  0.00  0.00    +0.000 A 
ATOM      6  C   UNL     1       0.936  10.239  18.239  0.00  0.00    +0.000 A 
ATOM      7  C   UNL     1      -0.448  10.430  18.277  0.00  0.00    +0.000 A 
ATOM      8  C   UNL     1      -0.989  11.704  18.554  0.00  0.00    +0.000 A 
BRANCH   3  12
ATOM      9  C   UNL     1      -1.767  15.841  20.417  0.00  0.00    +0.000 C 
ATOM     10  C   UNL     1      -1.012  14.531  20.415  0.00  0.00    +0.000 C 
ATOM     11  O   UNL     1      -0.699  14.000  21.475  0.00  0.00    +0.000 OA
ATOM     12  N   UNL     1      -0.769  14.044  19.140  0.00  0.00    +0.000 N 
ATOM     13  H   UNL     1      -1.093  14.611  18.366  0.00  0.00    +0.000 HD
ENDBRANCH   3  12
ENDBRANCH   1   6
BRANCH   2  14
ATOM     14  C   UNL     1       2.663   6.853  18.961  0.00  0.00    +0.000 C 
ATOM     15  O   UNL     1       3.714   6.898  18.327  0.00  0.00    +0.000 OA
ATOM     16  N   UNL     1       2.215   5.710  19.593  0.00  0.00    +0.000 N 
ATOM     17  H   UNL     1       1.378   5.735  20.163  0.00  0.00    +0.000 HD
BRANCH  16  18
ATOM     18  C   UNL     1       3.053   4.514  19.726  0.00  0.00    +0.000 C 
ATOM     19  C   UNL     1       2.546   3.608  20.857  0.00  0.00    +0.000 C 
ATOM     20  C   UNL     1       1.212   2.945  20.514  0.00  0.00    +0.000 C 
ATOM     21  C   UNL     1       1.296   2.157  19.210  0.00  0.00    +0.000 C 
ATOM     22  C   UNL     1       1.831   2.998  18.056  0.00  0.00    +0.000 C 
ATOM     23  C   UNL     1       3.125   3.735  18.405  0.00  0.00    +0.000 C 
ENDBRANCH  16  18
ENDBRANCH   2  14
BRANCH   2  24
ATOM     24  C   UNL     1       1.406   8.541  20.514  0.00  0.00    +0.000 C 
ATOM     25  N   UNL     1       1.067   8.928  21.665  0.00  0.00    +0.000 NA
ENDBRANCH   2  24
TORSDOF 5
ENDMDL
MODEL 8
REMARK VINA RESULT:      -6.3      3.164      4.575
REMARK  Name = 
REMARK  6 active torsions:
REMARK  status: ('A' for Active; 'I' for Inactive)
REMARK    1  A    between atoms: C_1  and  C_2
REMARK    2  A    between atoms: N_4  and  C_5
REMARK    3  A    between atoms: C_8  and  C_9
REMARK    4  A    between atoms: C_10  and  C_11
REMARK    5  A    between atoms: C_10  and  C_13
REMARK    6  A    between atoms: N_15  and  C_16
REMARK                            x       y       z     vdW  Elec       q    Type
REMARK                         _______ _______ _______ _____ _____    ______ ____
ROOT
ATOM      1  C   UNL     1       3.099   6.549  18.985  0.00  0.00    +0.000 C 
ATOM      2  C   UNL     1       2.971   5.203  19.077  0.00  0.00    +0.000 C 
ENDROOT
BRANCH   1   6
ATOM      3  C   UNL     1       0.423   9.532  20.624  0.00  0.00    +0.000 A 
ATOM      4  C   UNL     1       0.824   9.562  19.291  0.00  0.00    +0.000 A 
ATOM      5  C   UNL     1       1.661   8.564  18.761  0.00  0.00    +0.000 A 
ATOM      6  C   UNL     1       2.114   7.503  19.553  0.00  0.00    +0.000 A 
ATOM      7  C   UNL     1       1.683   7.441  20.881  0.00  0.00    +0.000 A 
ATOM      8  C   UNL     1       0.845   8.447  21.410  0.00  0.00    +0.000 A 
BRANCH   3  12
ATOM      9  C   UNL     1      -1.510  11.861  22.911  0.00  0.00    +0.000 C 
ATOM     10  C   UNL     1      -0.530  10.752  22.601  0.00  0.00    +0.000 C 
ATOM     11  O   UNL     1       0.003  10.130  23.512  0.00  0.00    +0.000 OA
ATOM     12  N   UNL     1      -0.359  10.541  21.241  0.00  0.00    +0.000 N 
ATOM     13  H   UNL     1      -0.876  11.149  20.618  0.00  0.00    +0.000 HD
ENDBRANCH   3  12
ENDBRANCH   1   6
BRANCH   2  14
ATOM     14  C   UNL     1       4.098   4.287  18.721  0.00  0.00    +0.000 C 
ATOM     15  O   UNL     1       4.121   3.129  19.129  0.00  0.00    +0.000 OA
ATOM     16  N   UNL     1       5.065   4.809  17.885  0.00  0.00    +0.000 N 
ATOM     17  H   UNL     1       4.970   5.747  17.515  0.00  0.00    +0.000 HD
BRANCH  16  18
ATOM     18  C   UNL     1       6.088   3.967  17.257  0.00  0.00    +0.000 C 
ATOM     19  C   UNL     1       5.586   3.386  15.927  0.00  0.00    +0.000 C 
ATOM     20  C   UNL     1       5.441   4.458  14.846  0.00  0.00    +0.000 C 
ATOM     21  C   UNL     1       6.748   5.213  14.626  0.00  0.00    +0.000 C 
ATOM     22  C   UNL     1       7.317   5.781  15.923  0.00  0.00    +0.000 C 
ATOM     23  C   UNL     1       7.394   4.744  17.044  0.00  0.00    +0.000 C 
ENDBRANCH  16  18
ENDBRANCH   2  14
BRANCH   2  24
ATOM     24  C   UNL     1       1.728   4.659  19.762  0.00  0.00    +0.000 C 
ATOM     25  N   UNL     1       0.696   4.208  20.330  0.00  0.00    +0.000 NA
ENDBRANCH   2  24
TORSDOF 5
ENDMDL
MODEL 9
REMARK VINA RESULT:      -6.3      2.191      2.700
REMARK  Name = 
REMARK  6 active torsions:
REMARK  status: ('A' for Active; 'I' for Inactive)
REMARK    1  A    between atoms: C_1  and  C_2
REMARK    2  A    between atoms: N_4  and  C_5
REMARK    3  A    between atoms: C_8  and  C_9
REMARK    4  A    between atoms: C_10  and  C_11
REMARK    5  A    between atoms: C_10  and  C_13
REMARK    6  A    between atoms: N_15  and  C_16
REMARK                            x       y       z     vdW  Elec       q    Type
REMARK                         _______ _______ _______ _____ _____    ______ ____
ROOT
ATOM      1  C   UNL     1       1.793   7.759  20.192  0.00  0.00    +0.000 C 
ATOM      2  C   UNL     1       2.375   7.833  18.971  0.00  0.00    +0.000 C 
ENDROOT
BRANCH   1   6
ATOM      3  C   UNL     1      -0.622  10.812  22.086  0.00  0.00    +0.000 A 
ATOM      4  C   UNL     1       0.269  10.028  22.814  0.00  0.00    +0.000 A 
ATOM      5  C   UNL     1       1.078   9.068  22.181  0.00  0.00    +0.000 A 
ATOM      6  C   UNL     1       1.018   8.871  20.796  0.00  0.00    +0.000 A 
ATOM      7  C   UNL     1       0.158   9.682  20.052  0.00  0.00    +0.000 A 
ATOM      8  C   UNL     1      -0.654  10.643  20.692  0.00  0.00    +0.000 A 
BRANCH   3  12
ATOM      9  C   UNL     1      -2.396  13.743  23.716  0.00  0.00    +0.000 C 
ATOM     10  C   UNL     1      -1.236  13.056  23.031  0.00  0.00    +0.000 C 
ATOM     11  O   UNL     1      -0.177  13.652  22.869  0.00  0.00    +0.000 OA
ATOM     12  N   UNL     1      -1.516  11.747  22.669  0.00  0.00    +0.000 N 
ATOM     13  H   UNL     1      -2.447  11.407  22.874  0.00  0.00    +0.000 HD
ENDBRANCH   3  12
ENDBRANCH   1   6
BRANCH   2  14
ATOM     14  C   UNL     1       2.924   6.617  18.295  0.00  0.00    +0.000 C 
ATOM     15  O   UNL     1       3.921   6.690  17.582  0.00  0.00    +0.000 OA
ATOM     16  N   UNL     1       2.273   5.428  18.558  0.00  0.00    +0.000 N 
ATOM     17  H   UNL     1       1.496   5.402  19.208  0.00  0.00    +0.000 HD
BRANCH  16  18
ATOM     18  C   UNL     1       2.835   4.131  18.170  0.00  0.00    +0.000 C 
ATOM     19  C   UNL     1       3.712   3.552  19.290  0.00  0.00    +0.000 C 
ATOM     20  C   UNL     1       2.889   3.119  20.504  0.00  0.00    +0.000 C 
ATOM     21  C   UNL     1       1.805   2.118  20.119  0.00  0.00    +0.000 C 
ATOM     22  C   UNL     1       0.924   2.624  18.981  0.00  0.00    +0.000 C 
ATOM     23  C   UNL     1       1.729   3.137  17.787  0.00  0.00    +0.000 C 
ENDBRANCH  16  18
ENDBRANCH   2  14
BRANCH   2  24
ATOM     24  C   UNL     1       2.256   9.145  18.213  0.00  0.00    +0.000 C 
ATOM     25  N   UNL     1       2.157  10.233  17.584  0.00  0.00    +0.000 NA
ENDBRANCH   2  24
TORSDOF 5
ENDMDL
