MODEL 1
REMARK VINA RESULT:      -8.0      0.000      0.000
REMARK  Name = 
REMARK  7 active torsions:
REMARK  status: ('A' for Active; 'I' for Inactive)
REMARK    1  A    between atoms: C_1  and  O_2
REMARK    2  A    between atoms: O_2  and  C_3
REMARK    3  A    between atoms: C_3  and  C_5
REMARK    4  A    between atoms: N_7  and  C_8
REMARK    5  A    between atoms: C_8  and  C_9
REMARK    6  A    between atoms: C_17  and  C_18
REMARK    7  A    between atoms: C_21  and  N_22
REMARK                            x       y       z     vdW  Elec       q    Type
REMARK                         _______ _______ _______ _____ _____    ______ ____
ROOT
ATOM      1  C   UNL     1       3.206   5.545  17.566  0.00  0.00    +0.000 A 
ATOM      2  C   UNL     1       4.394   5.449  16.792  0.00  0.00    +0.000 A 
ATOM      3  N   UNL     1       4.815   4.291  16.230  0.00  0.00    +0.000 N 
ATOM      4  N   UNL     1       5.033   6.623  16.761  0.00  0.00    +0.000 NA
ATOM      5  O   UNL     1       4.258   7.506  17.485  0.00  0.00    +0.000 OA
ATOM      6  C   UNL     1       3.158   6.867  17.969  0.00  0.00    +0.000 A 
ATOM      7  H   UNL     1       4.218   3.464  16.247  0.00  0.00    +0.000 HD
ENDROOT
BRANCH   6   8
ATOM      8  C   UNL     1       2.273   7.669  18.812  0.00  0.00    +0.000 A 
ATOM      9  C   UNL     1       2.043   7.321  20.155  0.00  0.00    +0.000 A 
ATOM     10  C   UNL     1       1.330   8.170  21.009  0.00  0.00    +0.000 A 
ATOM     11  C   UNL     1       0.802   9.365  20.510  0.00  0.00    +0.000 A 
ATOM     12  C   UNL     1       0.968   9.702  19.161  0.00  0.00    +0.000 A 
ATOM     13  C   UNL     1       1.702   8.854  18.322  0.00  0.00    +0.000 A 
BRANCH  11  14
ATOM     14  N   UNL     1       0.093  10.282  21.412  0.00  0.00    +0.000 N 
ATOM     15  O   UNL     1      -0.777  11.015  20.922  0.00  0.00    +0.000 OA
ATOM     16  O   UNL     1       0.398  10.259  22.613  0.00  0.00    +0.000 OA
ENDBRANCH  11  14
ENDBRANCH   6   8
BRANCH   1  17
ATOM     17  C   UNL     1       2.351   4.463  17.992  0.00  0.00    +0.000 C 
ATOM     18  O   UNL     1       1.226   4.260  17.542  0.00  0.00    +0.000 OA
BRANCH  17  20
ATOM     19  C   UNL     1       2.553   3.655  20.179  0.00  0.00    +0.000 C 
ATOM     20  O   UNL     1       3.005   3.620  18.832  0.00  0.00    +0.000 OA
ENDBRANCH  17  20
ENDBRANCH   1  17
BRANCH   3  21
ATOM     21  C   UNL     1       6.223   4.016  16.017  0.00  0.00    +0.000 C 
BRANCH  21  22
ATOM     22  C   UNL     1       6.571   4.191  14.553  0.00  0.00    +0.000 A 
ATOM     23  C   UNL     1       7.526   5.140  14.154  0.00  0.00    +0.000 A 
ATOM     24  C   UNL     1       7.864   5.289  12.809  0.00  0.00    +0.000 A 
ATOM     25  C   UNL     1       7.239   4.503  11.844  0.00  0.00    +0.000 A 
ATOM     26  C   UNL     1       6.278   3.566  12.222  0.00  0.00    +0.000 A 
ATOM     27  C   UNL     1       5.932   3.420  13.567  0.00  0.00    +0.000 A 
ENDBRANCH  21  22
ENDBRANCH   3  21
TORSDOF 6
ENDMDL
MODEL 2
REMARK VINA RESULT:      -7.8      0.324      1.001
REMARK  Name = 
REMARK  7 active torsions:
REMARK  status: ('A' for Active; 'I' for Inactive)
REMARK    1  A    between atoms: C_1  and  O_2
REMARK    2  A    between atoms: O_2  and  C_3
REMARK    3  A    between atoms: C_3  and  C_5
REMARK    4  A    between atoms: N_7  and  C_8
REMARK    5  A    between atoms: C_8  and  C_9
REMARK    6  A    between atoms: C_17  and  C_18
REMARK    7  A    between atoms: C_21  and  N_22
REMARK                            x       y       z     vdW  Elec       q    Type
REMARK                         _______ _______ _______ _____ _____    ______ ____
ROOT
ATOM      1  C   UNL     1       3.316   5.536  17.625  0.00  0.00    +0.000 A 
ATOM      2  C   UNL     1       4.478   5.450  16.810  0.00  0.00    +0.000 A 
ATOM      3  N   UNL     1       4.939   4.279  16.308  0.00  0.00    +0.000 N 
ATOM      4  N   UNL     1       5.052   6.650  16.677  0.00  0.00    +0.000 NA
ATOM      5  O   UNL     1       4.258   7.538  17.373  0.00  0.00    +0.000 OA
ATOM      6  C   UNL     1       3.213   6.878  17.942  0.00  0.00    +0.000 A 
ATOM      7  H   UNL     1       4.388   3.426  16.403  0.00  0.00    +0.000 HD
ENDROOT
BRANCH   6   8
ATOM      8  C   UNL     1       2.319   7.689  18.767  0.00  0.00    +0.000 A 
ATOM      9  C   UNL     1       2.057   7.342  20.105  0.00  0.00    +0.000 A 
ATOM     10  C   UNL     1       1.334   8.198  20.944  0.00  0.00    +0.000 A 
ATOM     11  C   UNL     1       0.830   9.399  20.435  0.00  0.00    +0.000 A 
ATOM     12  C   UNL     1       1.028   9.735  19.090  0.00  0.00    +0.000 A 
ATOM     13  C   UNL     1       1.771   8.880  18.266  0.00  0.00    +0.000 A 
BRANCH  11  14
ATOM     14  N   UNL     1       0.111  10.322  21.323  0.00  0.00    +0.000 N 
ATOM     15  O   UNL     1      -0.885  10.902  20.867  0.00  0.00    +0.000 OA
ATOM     16  O   UNL     1       0.536  10.457  22.479  0.00  0.00    +0.000 OA
ENDBRANCH  11  14
ENDBRANCH   6   8
BRANCH   1  17
ATOM     17  C   UNL     1       2.537   4.443  18.155  0.00  0.00    +0.000 C 
ATOM     18  O   UNL     1       1.362   4.235  17.866  0.00  0.00    +0.000 OA
BRANCH  17  20
ATOM     19  C   UNL     1       2.636   2.438  19.356  0.00  0.00    +0.000 C 
ATOM     20  O   UNL     1       3.309   3.597  18.886  0.00  0.00    +0.000 OA
ENDBRANCH  17  20
ENDBRANCH   1  17
BRANCH   3  21
ATOM     21  C   UNL     1       6.351   4.063  16.056  0.00  0.00    +0.000 C 
BRANCH  21  22
ATOM     22  C   UNL     1       6.641   4.197  14.575  0.00  0.00    +0.000 A 
ATOM     23  C   UNL     1       5.995   3.369  13.642  0.00  0.00    +0.000 A 
ATOM     24  C   UNL     1       6.244   3.505  12.277  0.00  0.00    +0.000 A 
ATOM     25  C   UNL     1       7.154   4.458  11.827  0.00  0.00    +0.000 A 
ATOM     26  C   UNL     1       7.815   5.279  12.741  0.00  0.00    +0.000 A 
ATOM     27  C   UNL     1       7.573   5.139  14.109  0.00  0.00    +0.000 A 
ENDBRANCH  21  22
ENDBRANCH   3  21
TORSDOF 6
ENDMDL
MODEL 3
REMARK VINA RESULT:      -7.8      0.553      1.232
REMARK  Name = 
REMARK  7 active torsions:
REMARK  status: ('A' for Active; 'I' for Inactive)
REMARK    1  A    between atoms: C_1  and  O_2
REMARK    2  A    between atoms: O_2  and  C_3
REMARK    3  A    between atoms: C_3  and  C_5
REMARK    4  A    between atoms: N_7  and  C_8
REMARK    5  A    between atoms: C_8  and  C_9
REMARK    6  A    between atoms: C_17  and  C_18
REMARK    7  A    between atoms: C_21  and  N_22
REMARK                            x       y       z     vdW  Elec       q    Type
REMARK                         _______ _______ _______ _____ _____    ______ ____
ROOT
ATOM      1  C   UNL     1       3.233   5.499  17.567  0.00  0.00    +0.000 A 
ATOM      2  C   UNL     1       4.405   5.352  16.776  0.00  0.00    +0.000 A 
ATOM      3  N   UNL     1       4.744   4.188  16.171  0.00  0.00    +0.000 N 
ATOM      4  N   UNL     1       5.120   6.482  16.776  0.00  0.00    +0.000 NA
ATOM      5  O   UNL     1       4.411   7.389  17.537  0.00  0.00    +0.000 OA
ATOM      6  C   UNL     1       3.276   6.808  18.013  0.00  0.00    +0.000 A 
ATOM      7  H   UNL     1       4.094   3.402  16.169  0.00  0.00    +0.000 HD
ENDROOT
BRANCH   6   8
ATOM      8  C   UNL     1       2.454   7.638  18.891  0.00  0.00    +0.000 A 
ATOM      9  C   UNL     1       1.877   8.832  18.425  0.00  0.00    +0.000 A 
ATOM     10  C   UNL     1       0.961   9.545  19.207  0.00  0.00    +0.000 A 
ATOM     11  C   UNL     1       0.646   9.085  20.490  0.00  0.00    +0.000 A 
ATOM     12  C   UNL     1       1.255   7.931  20.997  0.00  0.00    +0.000 A 
ATOM     13  C   UNL     1       2.154   7.215  20.195  0.00  0.00    +0.000 A 
BRANCH  11  14
ATOM     14  N   UNL     1      -0.349   9.803  21.297  0.00  0.00    +0.000 N 
ATOM     15  O   UNL     1      -0.630   9.340  22.412  0.00  0.00    +0.000 OA
ATOM     16  O   UNL     1      -0.840  10.837  20.821  0.00  0.00    +0.000 OA
ENDBRANCH  11  14
ENDBRANCH   6   8
BRANCH   1  17
ATOM     17  C   UNL     1       2.313   4.462  17.967  0.00  0.00    +0.000 C 
ATOM     18  O   UNL     1       1.199   4.307  17.474  0.00  0.00    +0.000 OA
BRANCH  17  20
ATOM     19  C   UNL     1       2.754   2.226  18.498  0.00  0.00    +0.000 C 
ATOM     20  O   UNL     1       2.894   3.598  18.840  0.00  0.00    +0.000 OA
ENDBRANCH  17  20
ENDBRANCH   1  17
BRANCH   3  21
ATOM     21  C   UNL     1       6.129   3.828  15.934  0.00  0.00    +0.000 C 
BRANCH  21  22
ATOM     22  C   UNL     1       6.483   4.059  14.479  0.00  0.00    +0.000 A 
ATOM     23  C   UNL     1       7.454   5.008  14.121  0.00  0.00    +0.000 A 
ATOM     24  C   UNL     1       7.797   5.208  12.784  0.00  0.00    +0.000 A 
ATOM     25  C   UNL     1       7.161   4.473  11.786  0.00  0.00    +0.000 A 
ATOM     26  C   UNL     1       6.184   3.537  12.123  0.00  0.00    +0.000 A 
ATOM     27  C   UNL     1       5.833   3.341  13.460  0.00  0.00    +0.000 A 
ENDBRANCH  21  22
ENDBRANCH   3  21
TORSDOF 6
ENDMDL
MODEL 4
REMARK VINA RESULT:      -7.5      0.506      1.551
REMARK  Name = 
REMARK  7 active torsions:
REMARK  status: ('A' for Active; 'I' for Inactive)
REMARK    1  A    between atoms: C_1  and  O_2
REMARK    2  A    between atoms: O_2  and  C_3
REMARK    3  A    between atoms: C_3  and  C_5
REMARK    4  A    between atoms: N_7  and  C_8
REMARK    5  A    between atoms: C_8  and  C_9
REMARK    6  A    between atoms: C_17  and  C_18
REMARK    7  A    between atoms: C_21  and  N_22
REMARK                            x       y       z     vdW  Elec       q    Type
REMARK                         _______ _______ _______ _____ _____    ______ ____
ROOT
ATOM      1  C   UNL     1       2.998   5.660  17.662  0.00  0.00    +0.000 A 
ATOM      2  C   UNL     1       4.180   5.416  16.912  0.00  0.00    +0.000 A 
ATOM      3  N   UNL     1       4.482   4.205  16.385  0.00  0.00    +0.000 N 
ATOM      4  N   UNL     1       4.943   6.513  16.864  0.00  0.00    +0.000 NA
ATOM      5  O   UNL     1       4.257   7.493  17.552  0.00  0.00    +0.000 OA
ATOM      6  C   UNL     1       3.087   6.989  18.031  0.00  0.00    +0.000 A 
ATOM      7  H   UNL     1       3.799   3.448  16.412  0.00  0.00    +0.000 HD
ENDROOT
BRANCH   6   8
ATOM      8  C   UNL     1       2.282   7.904  18.838  0.00  0.00    +0.000 A 
ATOM      9  C   UNL     1       1.698   9.049  18.266  0.00  0.00    +0.000 A 
ATOM     10  C   UNL     1       0.797   9.838  18.991  0.00  0.00    +0.000 A 
ATOM     11  C   UNL     1       0.504   9.507  20.318  0.00  0.00    +0.000 A 
ATOM     12  C   UNL     1       1.121   8.407  20.925  0.00  0.00    +0.000 A 
ATOM     13  C   UNL     1       2.004   7.612  20.183  0.00  0.00    +0.000 A 
BRANCH  11  14
ATOM     14  N   UNL     1      -0.475  10.305  21.068  0.00  0.00    +0.000 N 
ATOM     15  O   UNL     1      -0.560  10.114  22.290  0.00  0.00    +0.000 OA
ATOM     16  O   UNL     1      -1.151  11.130  20.437  0.00  0.00    +0.000 OA
ENDBRANCH  11  14
ENDBRANCH   6   8
BRANCH   1  17
ATOM     17  C   UNL     1       2.025   4.688  18.098  0.00  0.00    +0.000 C 
ATOM     18  O   UNL     1       1.235   4.123  17.346  0.00  0.00    +0.000 OA
BRANCH  17  20
ATOM     19  C   UNL     1       1.744   3.074  19.770  0.00  0.00    +0.000 C 
ATOM     20  O   UNL     1       2.197   4.371  19.408  0.00  0.00    +0.000 OA
ENDBRANCH  17  20
ENDBRANCH   1  17
BRANCH   3  21
ATOM     21  C   UNL     1       5.855   3.774  16.205  0.00  0.00    +0.000 C 
BRANCH  21  22
ATOM     22  C   UNL     1       6.293   4.021  14.776  0.00  0.00    +0.000 A 
ATOM     23  C   UNL     1       5.691   3.329  13.713  0.00  0.00    +0.000 A 
ATOM     24  C   UNL     1       6.077   3.569  12.395  0.00  0.00    +0.000 A 
ATOM     25  C   UNL     1       7.083   4.494  12.124  0.00  0.00    +0.000 A 
ATOM     26  C   UNL     1       7.702   5.180  13.169  0.00  0.00    +0.000 A 
ATOM     27  C   UNL     1       7.322   4.934  14.489  0.00  0.00    +0.000 A 
ENDBRANCH  21  22
ENDBRANCH   3  21
TORSDOF 6
ENDMDL
MODEL 5
REMARK VINA RESULT:      -7.3      3.730      8.236
REMARK  Name = 
REMARK  7 active torsions:
REMARK  status: ('A' for Active; 'I' for Inactive)
REMARK    1  A    between atoms: C_1  and  O_2
REMARK    2  A    between atoms: O_2  and  C_3
REMARK    3  A    between atoms: C_3  and  C_5
REMARK    4  A    between atoms: N_7  and  C_8
REMARK    5  A    between atoms: C_8  and  C_9
REMARK    6  A    between atoms: C_17  and  C_18
REMARK    7  A    between atoms: C_21  and  N_22
REMARK                            x       y       z     vdW  Elec       q    Type
REMARK                         _______ _______ _______ _____ _____    ______ ____
ROOT
ATOM      1  C   UNL     1       1.638   8.539  19.427  0.00  0.00    +0.000 A 
ATOM      2  C   UNL     1       1.475   9.768  18.731  0.00  0.00    +0.000 A 
ATOM      3  N   UNL     1       0.798  10.822  19.246  0.00  0.00    +0.000 N 
ATOM      4  N   UNL     1       2.021   9.697  17.513  0.00  0.00    +0.000 NA
ATOM      5  O   UNL     1       2.575   8.437  17.409  0.00  0.00    +0.000 OA
ATOM      6  C   UNL     1       2.352   7.737  18.555  0.00  0.00    +0.000 A 
ATOM      7  H   UNL     1       0.481  10.805  20.216  0.00  0.00    +0.000 HD
ENDROOT
BRANCH   6   8
ATOM      8  C   UNL     1       2.832   6.357  18.563  0.00  0.00    +0.000 A 
ATOM      9  C   UNL     1       4.100   6.035  19.079  0.00  0.00    +0.000 A 
ATOM     10  C   UNL     1       4.499   4.703  19.238  0.00  0.00    +0.000 A 
ATOM     11  C   UNL     1       3.639   3.675  18.840  0.00  0.00    +0.000 A 
ATOM     12  C   UNL     1       2.396   3.973  18.269  0.00  0.00    +0.000 A 
ATOM     13  C   UNL     1       2.000   5.311  18.135  0.00  0.00    +0.000 A 
BRANCH  11  14
ATOM     14  N   UNL     1       4.032   2.275  19.048  0.00  0.00    +0.000 N 
ATOM     15  O   UNL     1       3.613   1.432  18.241  0.00  0.00    +0.000 OA
ATOM     16  O   UNL     1       4.772   2.020  20.009  0.00  0.00    +0.000 OA
ENDBRANCH  11  14
ENDBRANCH   6   8
BRANCH   1  17
ATOM     17  C   UNL     1       1.030   8.157  20.678  0.00  0.00    +0.000 C 
ATOM     18  O   UNL     1       1.522   7.346  21.460  0.00  0.00    +0.000 OA
BRANCH  17  20
ATOM     19  C   UNL     1      -0.317   9.126  22.328  0.00  0.00    +0.000 C 
ATOM     20  O   UNL     1      -0.065   8.914  20.946  0.00  0.00    +0.000 OA
ENDBRANCH  17  20
ENDBRANCH   1  17
BRANCH   3  21
ATOM     21  C   UNL     1       0.095  11.764  18.397  0.00  0.00    +0.000 C 
BRANCH  21  22
ATOM     22  C   UNL     1      -1.339  11.316  18.200  0.00  0.00    +0.000 A 
ATOM     23  C   UNL     1      -2.397  12.027  18.789  0.00  0.00    +0.000 A 
ATOM     24  C   UNL     1      -3.719  11.629  18.592  0.00  0.00    +0.000 A 
ATOM     25  C   UNL     1      -3.999  10.506  17.818  0.00  0.00    +0.000 A 
ATOM     26  C   UNL     1      -2.959   9.781  17.237  0.00  0.00    +0.000 A 
ATOM     27  C   UNL     1      -1.634  10.172  17.440  0.00  0.00    +0.000 A 
ENDBRANCH  21  22
ENDBRANCH   3  21
TORSDOF 6
ENDMDL
MODEL 6
REMARK VINA RESULT:      -7.3      2.349      3.109
REMARK  Name = 
REMARK  7 active torsions:
REMARK  status: ('A' for Active; 'I' for Inactive)
REMARK    1  A    between atoms: C_1  and  O_2
REMARK    2  A    between atoms: O_2  and  C_3
REMARK    3  A    between atoms: C_3  and  C_5
REMARK    4  A    between atoms: N_7  and  C_8
REMARK    5  A    between atoms: C_8  and  C_9
REMARK    6  A    between atoms: C_17  and  C_18
REMARK    7  A    between atoms: C_21  and  N_22
REMARK                            x       y       z     vdW  Elec       q    Type
REMARK                         _______ _______ _______ _____ _____    ______ ____
ROOT
ATOM      1  C   UNL     1       2.530   6.229  18.895  0.00  0.00    +0.000 A 
ATOM      2  C   UNL     1       3.340   6.103  17.733  0.00  0.00    +0.000 A 
ATOM      3  N   UNL     1       3.902   4.931  17.351  0.00  0.00    +0.000 N 
ATOM      4  N   UNL     1       3.501   7.289  17.139  0.00  0.00    +0.000 NA
ATOM      5  O   UNL     1       2.776   8.197  17.882  0.00  0.00    +0.000 OA
ATOM      6  C   UNL     1       2.187   7.568  18.936  0.00  0.00    +0.000 A 
ATOM      7  H   UNL     1       3.658   4.063  17.829  0.00  0.00    +0.000 HD
ENDROOT
BRANCH   6   8
ATOM      8  C   UNL     1       1.433   8.423  19.850  0.00  0.00    +0.000 A 
ATOM      9  C   UNL     1       1.513   8.240  21.243  0.00  0.00    +0.000 A 
ATOM     10  C   UNL     1       0.925   9.153  22.126  0.00  0.00    +0.000 A 
ATOM     11  C   UNL     1       0.212  10.243  21.616  0.00  0.00    +0.000 A 
ATOM     12  C   UNL     1       0.069  10.411  20.234  0.00  0.00    +0.000 A 
ATOM     13  C   UNL     1       0.681   9.502  19.360  0.00  0.00    +0.000 A 
BRANCH  11  14
ATOM     14  N   UNL     1      -0.369  11.229  22.538  0.00  0.00    +0.000 N 
ATOM     15  O   UNL     1      -0.135  12.426  22.323  0.00  0.00    +0.000 OA
ATOM     16  O   UNL     1      -1.068  10.805  23.469  0.00  0.00    +0.000 OA
ENDBRANCH  11  14
ENDBRANCH   6   8
BRANCH   1  17
ATOM     17  C   UNL     1       2.285   5.225  19.902  0.00  0.00    +0.000 C 
ATOM     18  O   UNL     1       1.173   4.967  20.356  0.00  0.00    +0.000 OA
BRANCH  17  20
ATOM     19  C   UNL     1       3.189   3.119  20.374  0.00  0.00    +0.000 C 
ATOM     20  O   UNL     1       3.408   4.507  20.166  0.00  0.00    +0.000 OA
ENDBRANCH  17  20
ENDBRANCH   1  17
BRANCH   3  21
ATOM     21  C   UNL     1       5.157   4.889  16.626  0.00  0.00    +0.000 C 
BRANCH  21  22
ATOM     22  C   UNL     1       6.237   5.600  17.415  0.00  0.00    +0.000 A 
ATOM     23  C   UNL     1       6.807   6.790  16.935  0.00  0.00    +0.000 A 
ATOM     24  C   UNL     1       7.786   7.458  17.669  0.00  0.00    +0.000 A 
ATOM     25  C   UNL     1       8.219   6.938  18.886  0.00  0.00    +0.000 A 
ATOM     26  C   UNL     1       7.673   5.749  19.371  0.00  0.00    +0.000 A 
ATOM     27  C   UNL     1       6.699   5.074  18.633  0.00  0.00    +0.000 A 
ENDBRANCH  21  22
ENDBRANCH   3  21
TORSDOF 6
ENDMDL
MODEL 7
REMARK VINA RESULT:      -7.2      0.670      1.320
REMARK  Name = 
REMARK  7 active torsions:
REMARK  status: ('A' for Active; 'I' for Inactive)
REMARK    1  A    between atoms: C_1  and  O_2
REMARK    2  A    between atoms: O_2  and  C_3
REMARK    3  A    between atoms: C_3  and  C_5
REMARK    4  A    between atoms: N_7  and  C_8
REMARK    5  A    between atoms: C_8  and  C_9
REMARK    6  A    between atoms: C_17  and  C_18
REMARK    7  A    between atoms: C_21  and  N_22
REMARK                            x       y       z     vdW  Elec       q    Type
REMARK                         _______ _______ _______ _____ _____    ______ ____
ROOT
ATOM      1  C   UNL     1       3.632   5.526  17.795  0.00  0.00    +0.000 A 
ATOM      2  C   UNL     1       4.667   5.440  16.824  0.00  0.00    +0.000 A 
ATOM      3  N   UNL     1       5.211   4.264  16.430  0.00  0.00    +0.000 N 
ATOM      4  N   UNL     1       5.043   6.660  16.425  0.00  0.00    +0.000 NA
ATOM      5  O   UNL     1       4.239   7.554  17.103  0.00  0.00    +0.000 OA
ATOM      6  C   UNL     1       3.388   6.881  17.925  0.00  0.00    +0.000 A 
ATOM      7  H   UNL     1       4.805   3.380  16.738  0.00  0.00    +0.000 HD
ENDROOT
BRANCH   6   8
ATOM      8  C   UNL     1       2.515   7.709  18.755  0.00  0.00    +0.000 A 
ATOM      9  C   UNL     1       1.897   8.859  18.231  0.00  0.00    +0.000 A 
ATOM     10  C   UNL     1       0.938   9.562  18.969  0.00  0.00    +0.000 A 
ATOM     11  C   UNL     1       0.617   9.139  20.263  0.00  0.00    +0.000 A 
ATOM     12  C   UNL     1       1.264   8.033  20.825  0.00  0.00    +0.000 A 
ATOM     13  C   UNL     1       2.207   7.324  20.069  0.00  0.00    +0.000 A 
BRANCH  11  14
ATOM     14  N   UNL     1      -0.422   9.845  21.023  0.00  0.00    +0.000 N 
ATOM     15  O   UNL     1      -0.927  10.854  20.510  0.00  0.00    +0.000 OA
ATOM     16  O   UNL     1      -0.742   9.384  22.128  0.00  0.00    +0.000 OA
ENDBRANCH  11  14
ENDBRANCH   6   8
BRANCH   1  17
ATOM     17  C   UNL     1       3.097   4.454  18.598  0.00  0.00    +0.000 C 
ATOM     18  O   UNL     1       3.644   4.013  19.606  0.00  0.00    +0.000 OA
BRANCH  17  20
ATOM     19  C   UNL     1       1.002   3.612  19.215  0.00  0.00    +0.000 C 
ATOM     20  O   UNL     1       1.850   4.104  18.187  0.00  0.00    +0.000 OA
ENDBRANCH  17  20
ENDBRANCH   1  17
BRANCH   3  21
ATOM     21  C   UNL     1       6.589   4.173  15.988  0.00  0.00    +0.000 C 
BRANCH  21  22
ATOM     22  C   UNL     1       6.651   4.202  14.474  0.00  0.00    +0.000 A 
ATOM     23  C   UNL     1       7.526   5.078  13.811  0.00  0.00    +0.000 A 
ATOM     24  C   UNL     1       7.601   5.093  12.419  0.00  0.00    +0.000 A 
ATOM     25  C   UNL     1       6.790   4.243  11.671  0.00  0.00    +0.000 A 
ATOM     26  C   UNL     1       5.905   3.377  12.313  0.00  0.00    +0.000 A 
ATOM     27  C   UNL     1       5.823   3.367  13.706  0.00  0.00    +0.000 A 
ENDBRANCH  21  22
ENDBRANCH   3  21
TORSDOF 6
ENDMDL
MODEL 8
REMARK VINA RESULT:      -7.1      2.358      3.304
REMARK  Name = 
REMARK  7 active torsions:
REMARK  status: ('A' for Active; 'I' for Inactive)
REMARK    1  A    between atoms: C_1  and  O_2
REMARK    2  A    between atoms: O_2  and  C_3
REMARK    3  A    between atoms: C_3  and  C_5
REMARK    4  A    between atoms: N_7  and  C_8
REMARK    5  A    between atoms: C_8  and  C_9
REMARK    6  A    between atoms: C_17  and  C_18
REMARK    7  A    between atoms: C_21  and  N_22
REMARK                            x       y       z     vdW  Elec       q    Type
REMARK                         _______ _______ _______ _____ _____    ______ ____
ROOT
ATOM      1  C   UNL     1       2.463   6.159  19.010  0.00  0.00    +0.000 A 
ATOM      2  C   UNL     1       3.271   5.920  17.866  0.00  0.00    +0.000 A 
ATOM      3  N   UNL     1       3.744   4.692  17.542  0.00  0.00    +0.000 N 
ATOM      4  N   UNL     1       3.530   7.063  17.223  0.00  0.00    +0.000 NA
ATOM      5  O   UNL     1       2.870   8.056  17.917  0.00  0.00    +0.000 OA
ATOM      6  C   UNL     1       2.224   7.522  18.989  0.00  0.00    +0.000 A 
ATOM      7  H   UNL     1       3.429   3.868  18.054  0.00  0.00    +0.000 HD
ENDROOT
BRANCH   6   8
ATOM      8  C   UNL     1       1.530   8.472  19.856  0.00  0.00    +0.000 A 
ATOM      9  C   UNL     1       0.849   9.578  19.315  0.00  0.00    +0.000 A 
ATOM     10  C   UNL     1       0.050  10.397  20.121  0.00  0.00    +0.000 A 
ATOM     11  C   UNL     1      -0.040  10.138  21.493  0.00  0.00    +0.000 A 
ATOM     12  C   UNL     1       0.678   9.080  22.061  0.00  0.00    +0.000 A 
ATOM     13  C   UNL     1       1.457   8.253  21.240  0.00  0.00    +0.000 A 
BRANCH  11  14
ATOM     14  N   UNL     1      -0.912  10.967  22.335  0.00  0.00    +0.000 N 
ATOM     15  O   UNL     1      -0.875  10.784  23.560  0.00  0.00    +0.000 OA
ATOM     16  O   UNL     1      -1.626  11.810  21.772  0.00  0.00    +0.000 OA
ENDBRANCH  11  14
ENDBRANCH   6   8
BRANCH   1  17
ATOM     17  C   UNL     1       2.131   5.223  20.056  0.00  0.00    +0.000 C 
ATOM     18  O   UNL     1       0.994   5.053  20.490  0.00  0.00    +0.000 OA
BRANCH  17  20
ATOM     19  C   UNL     1       2.878   3.131  20.791  0.00  0.00    +0.000 C 
ATOM     20  O   UNL     1       3.201   4.454  20.388  0.00  0.00    +0.000 OA
ENDBRANCH  17  20
ENDBRANCH   1  17
BRANCH   3  21
ATOM     21  C   UNL     1       4.999   4.522  16.835  0.00  0.00    +0.000 C 
BRANCH  21  22
ATOM     22  C   UNL     1       6.087   5.334  17.507  0.00  0.00    +0.000 A 
ATOM     23  C   UNL     1       6.543   4.995  18.791  0.00  0.00    +0.000 A 
ATOM     24  C   UNL     1       7.558   5.728  19.404  0.00  0.00    +0.000 A 
ATOM     25  C   UNL     1       8.121   6.820  18.747  0.00  0.00    +0.000 A 
ATOM     26  C   UNL     1       7.670   7.179  17.477  0.00  0.00    +0.000 A 
ATOM     27  C   UNL     1       6.647   6.452  16.866  0.00  0.00    +0.000 A 
ENDBRANCH  21  22
ENDBRANCH   3  21
TORSDOF 6
ENDMDL
MODEL 9
REMARK VINA RESULT:      -7.1      3.563      8.344
REMARK  Name = 
REMARK  7 active torsions:
REMARK  status: ('A' for Active; 'I' for Inactive)
REMARK    1  A    between atoms: C_1  and  O_2
REMARK    2  A    between atoms: O_2  and  C_3
REMARK    3  A    between atoms: C_3  and  C_5
REMARK    4  A    between atoms: N_7  and  C_8
REMARK    5  A    between atoms: C_8  and  C_9
REMARK    6  A    between atoms: C_17  and  C_18
REMARK    7  A    between atoms: C_21  and  N_22
REMARK                            x       y       z     vdW  Elec       q    Type
REMARK                         _______ _______ _______ _____ _____    ______ ____
ROOT
ATOM      1  C   UNL     1       1.526   8.891  19.724  0.00  0.00    +0.000 A 
ATOM      2  C   UNL     1       1.317   9.972  18.826  0.00  0.00    +0.000 A 
ATOM      3  N   UNL     1       0.660  11.104  19.175  0.00  0.00    +0.000 N 
ATOM      4  N   UNL     1       1.800   9.679  17.614  0.00  0.00    +0.000 NA
ATOM      5  O   UNL     1       2.358   8.421  17.713  0.00  0.00    +0.000 OA
ATOM      6  C   UNL     1       2.200   7.942  18.977  0.00  0.00    +0.000 A 
ATOM      7  H   UNL     1       0.393  11.265  20.146  0.00  0.00    +0.000 HD
ENDROOT
BRANCH   6   8
ATOM      8  C   UNL     1       2.691   6.586  19.212  0.00  0.00    +0.000 A 
ATOM      9  C   UNL     1       2.019   5.717  20.091  0.00  0.00    +0.000 A 
ATOM     10  C   UNL     1       2.387   4.370  20.196  0.00  0.00    +0.000 A 
ATOM     11  C   UNL     1       3.466   3.891  19.447  0.00  0.00    +0.000 A 
ATOM     12  C   UNL     1       4.186   4.753  18.612  0.00  0.00    +0.000 A 
ATOM     13  C   UNL     1       3.794   6.093  18.499  0.00  0.00    +0.000 A 
BRANCH  11  14
ATOM     14  N   UNL     1       3.828   2.469  19.519  0.00  0.00    +0.000 N 
ATOM     15  O   UNL     1       4.702   2.137  20.332  0.00  0.00    +0.000 OA
ATOM     16  O   UNL     1       3.228   1.683  18.772  0.00  0.00    +0.000 OA
ENDBRANCH  11  14
ENDBRANCH   6   8
BRANCH   1  17
ATOM     17  C   UNL     1       0.987   8.745  21.055  0.00  0.00    +0.000 C 
ATOM     18  O   UNL     1       1.657   8.432  22.036  0.00  0.00    +0.000 OA
BRANCH  17  20
ATOM     19  C   UNL     1      -0.667   9.855  22.283  0.00  0.00    +0.000 C 
ATOM     20  O   UNL     1      -0.311   9.142  21.107  0.00  0.00    +0.000 OA
ENDBRANCH  17  20
ENDBRANCH   1  17
BRANCH   3  21
ATOM     21  C   UNL     1      -0.094  11.877  18.206  0.00  0.00    +0.000 C 
BRANCH  21  22
ATOM     22  C   UNL     1      -1.511  11.350  18.111  0.00  0.00    +0.000 A 
ATOM     23  C   UNL     1      -1.796  10.194  17.367  0.00  0.00    +0.000 A 
ATOM     24  C   UNL     1      -3.096   9.694  17.295  0.00  0.00    +0.000 A 
ATOM     25  C   UNL     1      -4.131  10.354  17.952  0.00  0.00    +0.000 A 
ATOM     26  C   UNL     1      -3.869  11.513  18.683  0.00  0.00    +0.000 A 
ATOM     27  C   UNL     1      -2.569  12.019  18.750  0.00  0.00    +0.000 A 
ENDBRANCH  21  22
ENDBRANCH   3  21
TORSDOF 6
ENDMDL
