MODEL 1
REMARK VINA RESULT:      -6.2      0.000      0.000
REMARK  Name = 
REMARK  7 active torsions:
REMARK  status: ('A' for Active; 'I' for Inactive)
REMARK    1  A    between atoms: C_1  and  C_2
REMARK    2  A    between atoms: C_2  and  C_3
REMARK    3  A    between atoms: C_2  and  O_4
REMARK    4  A    between atoms: O_4  and  C_5
REMARK    5  A    between atoms: C_11  and  C_12
REMARK    6  A    between atoms: C_14  and  C_15
REMARK    7  A    between atoms: C_15  and  N_16
REMARK                            x       y       z     vdW  Elec       q    Type
REMARK                         _______ _______ _______ _____ _____    ______ ____
ROOT
ATOM      1  C   UNL     1       4.425   5.593  17.747  0.00  0.00    +0.000 A 
ATOM      2  C   UNL     1       4.886   6.438  16.720  0.00  0.00    +0.000 A 
ATOM      3  C   UNL     1       5.369   5.934  15.514  0.00  0.00    +0.000 A 
ATOM      4  C   UNL     1       5.397   4.569  15.313  0.00  0.00    +0.000 A 
ATOM      5 CL   UNL     1       5.978   3.934  13.826  0.00  0.00    +0.000 Cl
ATOM      6  C   UNL     1       4.961   3.710  16.318  0.00  0.00    +0.000 A 
ATOM      7  C   UNL     1       4.492   4.184  17.569  0.00  0.00    +0.000 A 
ENDROOT
BRANCH   7   8
ATOM      8  C   UNL     1       4.072   3.128  18.588  0.00  0.00    +0.000 C 
ATOM      9  C   UNL     1       3.504   1.787  18.200  0.00  0.00    +0.000 C 
ATOM     10  C   UNL     1       2.566   2.840  18.724  0.00  0.00    +0.000 C 
BRANCH  10  11
ATOM     11  C   UNL     1       1.918   2.751  20.070  0.00  0.00    +0.000 C 
BRANCH  11  12
ATOM     12  N   UNL     1       0.502   3.069  19.961  0.00  0.00    +0.000 NA
ATOM     13  H   UNL     1       0.313   3.940  20.452  0.00  0.00    +0.000 HD
ATOM     14  H   UNL     1      -0.052   2.352  20.424  0.00  0.00    +0.000 HD
ENDBRANCH  11  12
ENDBRANCH  10  11
ENDBRANCH   7   8
BRANCH   1  15
ATOM     15  O   UNL     1       3.892   6.078  18.926  0.00  0.00    +0.000 OA
BRANCH  15  17
ATOM     16  C   UNL     1       1.927   6.393  20.335  0.00  0.00    +0.000 C 
ATOM     17  C   UNL     1       2.509   6.496  18.923  0.00  0.00    +0.000 C 
ATOM     18  C   UNL     1       2.381   7.934  18.419  0.00  0.00    +0.000 C 
ENDBRANCH  15  17
ENDBRANCH   1  15
TORSDOF 5
ENDMDL
MODEL 2
REMARK VINA RESULT:      -6.1      3.546      5.106
REMARK  Name = 
REMARK  7 active torsions:
REMARK  status: ('A' for Active; 'I' for Inactive)
REMARK    1  A    between atoms: C_1  and  C_2
REMARK    2  A    between atoms: C_2  and  C_3
REMARK    3  A    between atoms: C_2  and  O_4
REMARK    4  A    between atoms: O_4  and  C_5
REMARK    5  A    between atoms: C_11  and  C_12
REMARK    6  A    between atoms: C_14  and  C_15
REMARK    7  A    between atoms: C_15  and  N_16
REMARK                            x       y       z     vdW  Elec       q    Type
REMARK                         _______ _______ _______ _____ _____    ______ ____
ROOT
ATOM      1  C   UNL     1       4.898   5.829  17.153  0.00  0.00    +0.000 A 
ATOM      2  C   UNL     1       3.871   6.283  18.002  0.00  0.00    +0.000 A 
ATOM      3  C   UNL     1       2.767   5.490  18.312  0.00  0.00    +0.000 A 
ATOM      4  C   UNL     1       2.674   4.221  17.777  0.00  0.00    +0.000 A 
ATOM      5 CL   UNL     1       1.326   3.228  18.161  0.00  0.00    +0.000 Cl
ATOM      6  C   UNL     1       3.668   3.753  16.924  0.00  0.00    +0.000 A 
ATOM      7  C   UNL     1       4.789   4.541  16.561  0.00  0.00    +0.000 A 
ENDROOT
BRANCH   7   8
ATOM      8  C   UNL     1       5.787   3.910  15.593  0.00  0.00    +0.000 C 
ATOM      9  C   UNL     1       6.954   4.662  15.008  0.00  0.00    +0.000 C 
ATOM     10  C   UNL     1       5.758   4.399  14.134  0.00  0.00    +0.000 C 
BRANCH  10  11
ATOM     11  C   UNL     1       5.783   3.428  12.996  0.00  0.00    +0.000 C 
BRANCH  11  12
ATOM     12  N   UNL     1       6.852   3.775  12.071  0.00  0.00    +0.000 NA
ATOM     13  H   UNL     1       6.964   4.787  12.050  0.00  0.00    +0.000 HD
ATOM     14  H   UNL     1       6.599   3.495  11.126  0.00  0.00    +0.000 HD
ENDBRANCH  11  12
ENDBRANCH  10  11
ENDBRANCH   7   8
BRANCH   1  15
ATOM     15  O   UNL     1       6.025   6.581  16.880  0.00  0.00    +0.000 OA
BRANCH  15  17
ATOM     16  C   UNL     1       7.654   5.760  18.497  0.00  0.00    +0.000 C 
ATOM     17  C   UNL     1       6.865   6.969  17.989  0.00  0.00    +0.000 C 
ATOM     18  C   UNL     1       7.835   8.075  17.571  0.00  0.00    +0.000 C 
ENDBRANCH  15  17
ENDBRANCH   1  15
TORSDOF 5
ENDMDL
MODEL 3
REMARK VINA RESULT:      -6.1      3.095      5.092
REMARK  Name = 
REMARK  7 active torsions:
REMARK  status: ('A' for Active; 'I' for Inactive)
REMARK    1  A    between atoms: C_1  and  C_2
REMARK    2  A    between atoms: C_2  and  C_3
REMARK    3  A    between atoms: C_2  and  O_4
REMARK    4  A    between atoms: O_4  and  C_5
REMARK    5  A    between atoms: C_11  and  C_12
REMARK    6  A    between atoms: C_14  and  C_15
REMARK    7  A    between atoms: C_15  and  N_16
REMARK                            x       y       z     vdW  Elec       q    Type
REMARK                         _______ _______ _______ _____ _____    ______ ____
ROOT
ATOM      1  C   UNL     1       3.980   5.299  18.974  0.00  0.00    +0.000 A 
ATOM      2  C   UNL     1       2.942   5.744  19.815  0.00  0.00    +0.000 A 
ATOM      3  C   UNL     1       2.240   6.920  19.556  0.00  0.00    +0.000 A 
ATOM      4  C   UNL     1       2.564   7.671  18.445  0.00  0.00    +0.000 A 
ATOM      5 CL   UNL     1       1.697   9.116  18.108  0.00  0.00    +0.000 Cl
ATOM      6  C   UNL     1       3.595   7.261  17.606  0.00  0.00    +0.000 A 
ATOM      7  C   UNL     1       4.352   6.089  17.852  0.00  0.00    +0.000 A 
ENDROOT
BRANCH   7   8
ATOM      8  C   UNL     1       5.472   5.776  16.864  0.00  0.00    +0.000 C 
ATOM      9  C   UNL     1       5.436   6.197  15.417  0.00  0.00    +0.000 C 
ATOM     10  C   UNL     1       5.166   4.756  15.753  0.00  0.00    +0.000 C 
BRANCH  10  11
ATOM     11  C   UNL     1       6.127   3.654  15.433  0.00  0.00    +0.000 C 
BRANCH  11  12
ATOM     12  N   UNL     1       6.348   3.591  13.996  0.00  0.00    +0.000 NA
ATOM     13  H   UNL     1       5.493   3.286  13.536  0.00  0.00    +0.000 HD
ATOM     14  H   UNL     1       7.054   2.890  13.782  0.00  0.00    +0.000 HD
ENDBRANCH  11  12
ENDBRANCH  10  11
ENDBRANCH   7   8
BRANCH   1  15
ATOM     15  O   UNL     1       4.649   4.108  19.185  0.00  0.00    +0.000 OA
BRANCH  15  17
ATOM     16  C   UNL     1       3.582   2.230  18.054  0.00  0.00    +0.000 C 
ATOM     17  C   UNL     1       3.860   2.915  19.393  0.00  0.00    +0.000 C 
ATOM     18  C   UNL     1       4.586   1.944  20.326  0.00  0.00    +0.000 C 
ENDBRANCH  15  17
ENDBRANCH   1  15
TORSDOF 5
ENDMDL
MODEL 4
REMARK VINA RESULT:      -6.0      3.176      4.864
REMARK  Name = 
REMARK  7 active torsions:
REMARK  status: ('A' for Active; 'I' for Inactive)
REMARK    1  A    between atoms: C_1  and  C_2
REMARK    2  A    between atoms: C_2  and  C_3
REMARK    3  A    between atoms: C_2  and  O_4
REMARK    4  A    between atoms: O_4  and  C_5
REMARK    5  A    between atoms: C_11  and  C_12
REMARK    6  A    between atoms: C_14  and  C_15
REMARK    7  A    between atoms: C_15  and  N_16
REMARK                            x       y       z     vdW  Elec       q    Type
REMARK                         _______ _______ _______ _____ _____    ______ ____
ROOT
ATOM      1  C   UNL     1       2.619   5.631  19.760  0.00  0.00    +0.000 A 
ATOM      2  C   UNL     1       1.899   6.669  20.382  0.00  0.00    +0.000 A 
ATOM      3  C   UNL     1       1.753   7.921  19.788  0.00  0.00    +0.000 A 
ATOM      4  C   UNL     1       2.325   8.155  18.554  0.00  0.00    +0.000 A 
ATOM      5 CL   UNL     1       2.141   9.691  17.805  0.00  0.00    +0.000 Cl
ATOM      6  C   UNL     1       3.053   7.152  17.924  0.00  0.00    +0.000 A 
ATOM      7  C   UNL     1       3.250   5.876  18.510  0.00  0.00    +0.000 A 
ENDROOT
BRANCH   7   8
ATOM      8  C   UNL     1       4.094   4.881  17.719  0.00  0.00    +0.000 C 
ATOM      9  C   UNL     1       4.777   3.695  18.351  0.00  0.00    +0.000 C 
ATOM     10  C   UNL     1       5.612   4.887  17.974  0.00  0.00    +0.000 C 
BRANCH  10  11
ATOM     11  C   UNL     1       6.584   4.868  16.835  0.00  0.00    +0.000 C 
BRANCH  11  12
ATOM     12  N   UNL     1       7.831   4.250  17.258  0.00  0.00    +0.000 NA
ATOM     13  H   UNL     1       7.933   3.347  16.799  0.00  0.00    +0.000 HD
ATOM     14  H   UNL     1       7.805   4.061  18.258  0.00  0.00    +0.000 HD
ENDBRANCH  11  12
ENDBRANCH  10  11
ENDBRANCH   7   8
BRANCH   1  15
ATOM     15  O   UNL     1       2.726   4.367  20.310  0.00  0.00    +0.000 OA
BRANCH  15  17
ATOM     16  C   UNL     1       0.997   2.953  19.335  0.00  0.00    +0.000 C 
ATOM     17  C   UNL     1       1.507   3.648  20.599  0.00  0.00    +0.000 C 
ATOM     18  C   UNL     1       1.740   2.609  21.697  0.00  0.00    +0.000 C 
ENDBRANCH  15  17
ENDBRANCH   1  15
TORSDOF 5
ENDMDL
MODEL 5
REMARK VINA RESULT:      -5.9      3.002      4.995
REMARK  Name = 
REMARK  7 active torsions:
REMARK  status: ('A' for Active; 'I' for Inactive)
REMARK    1  A    between atoms: C_1  and  C_2
REMARK    2  A    between atoms: C_2  and  C_3
REMARK    3  A    between atoms: C_2  and  O_4
REMARK    4  A    between atoms: O_4  and  C_5
REMARK    5  A    between atoms: C_11  and  C_12
REMARK    6  A    between atoms: C_14  and  C_15
REMARK    7  A    between atoms: C_15  and  N_16
REMARK                            x       y       z     vdW  Elec       q    Type
REMARK                         _______ _______ _______ _____ _____    ______ ____
ROOT
ATOM      1  C   UNL     1       4.031   4.928  17.285  0.00  0.00    +0.000 A 
ATOM      2  C   UNL     1       3.895   3.572  16.932  0.00  0.00    +0.000 A 
ATOM      3  C   UNL     1       2.842   2.791  17.404  0.00  0.00    +0.000 A 
ATOM      4  C   UNL     1       1.900   3.358  18.239  0.00  0.00    +0.000 A 
ATOM      5 CL   UNL     1       0.589   2.409  18.818  0.00  0.00    +0.000 Cl
ATOM      6  C   UNL     1       2.019   4.692  18.615  0.00  0.00    +0.000 A 
ATOM      7  C   UNL     1       3.092   5.509  18.181  0.00  0.00    +0.000 A 
ENDROOT
BRANCH   7   8
ATOM      8  C   UNL     1       3.111   6.947  18.694  0.00  0.00    +0.000 C 
ATOM      9  C   UNL     1       2.118   7.477  19.697  0.00  0.00    +0.000 C 
ATOM     10  C   UNL     1       1.959   7.867  18.253  0.00  0.00    +0.000 C 
BRANCH  10  11
ATOM     11  C   UNL     1       2.228   9.252  17.753  0.00  0.00    +0.000 C 
BRANCH  11  12
ATOM     12  N   UNL     1       1.012  10.048  17.819  0.00  0.00    +0.000 NA
ATOM     13  H   UNL     1       0.868  10.519  16.928  0.00  0.00    +0.000 HD
ATOM     14  H   UNL     1       1.113  10.781  18.518  0.00  0.00    +0.000 HD
ENDBRANCH  11  12
ENDBRANCH  10  11
ENDBRANCH   7   8
BRANCH   1  15
ATOM     15  O   UNL     1       5.038   5.730  16.782  0.00  0.00    +0.000 OA
BRANCH  15  17
ATOM     16  C   UNL     1       7.211   4.646  16.570  0.00  0.00    +0.000 C 
ATOM     17  C   UNL     1       6.351   5.623  17.375  0.00  0.00    +0.000 C 
ATOM     18  C   UNL     1       7.035   6.990  17.424  0.00  0.00    +0.000 C 
ENDBRANCH  15  17
ENDBRANCH   1  15
TORSDOF 5
ENDMDL
MODEL 6
REMARK VINA RESULT:      -5.9      2.565      4.380
REMARK  Name = 
REMARK  7 active torsions:
REMARK  status: ('A' for Active; 'I' for Inactive)
REMARK    1  A    between atoms: C_1  and  C_2
REMARK    2  A    between atoms: C_2  and  C_3
REMARK    3  A    between atoms: C_2  and  O_4
REMARK    4  A    between atoms: O_4  and  C_5
REMARK    5  A    between atoms: C_11  and  C_12
REMARK    6  A    between atoms: C_14  and  C_15
REMARK    7  A    between atoms: C_15  and  N_16
REMARK                            x       y       z     vdW  Elec       q    Type
REMARK                         _______ _______ _______ _____ _____    ______ ____
ROOT
ATOM      1  C   UNL     1       2.572   5.890  20.099  0.00  0.00    +0.000 A 
ATOM      2  C   UNL     1       1.777   6.945  20.587  0.00  0.00    +0.000 A 
ATOM      3  C   UNL     1       1.590   8.121  19.864  0.00  0.00    +0.000 A 
ATOM      4  C   UNL     1       2.195   8.260  18.631  0.00  0.00    +0.000 A 
ATOM      5 CL   UNL     1       1.963   9.700  17.723  0.00  0.00    +0.000 Cl
ATOM      6  C   UNL     1       2.997   7.239  18.131  0.00  0.00    +0.000 A 
ATOM      7  C   UNL     1       3.236   6.042  18.851  0.00  0.00    +0.000 A 
ENDROOT
BRANCH   7   8
ATOM      8  C   UNL     1       4.159   5.019  18.195  0.00  0.00    +0.000 C 
ATOM      9  C   UNL     1       4.300   4.876  16.701  0.00  0.00    +0.000 C 
ATOM     10  C   UNL     1       3.494   3.849  17.447  0.00  0.00    +0.000 C 
BRANCH  10  11
ATOM     11  C   UNL     1       3.962   2.441  17.649  0.00  0.00    +0.000 C 
BRANCH  11  12
ATOM     12  N   UNL     1       2.830   1.584  17.968  0.00  0.00    +0.000 NA
ATOM     13  H   UNL     1       2.594   1.689  18.952  0.00  0.00    +0.000 HD
ATOM     14  H   UNL     1       3.086   0.607  17.837  0.00  0.00    +0.000 HD
ENDBRANCH  11  12
ENDBRANCH  10  11
ENDBRANCH   7   8
BRANCH   1  15
ATOM     15  O   UNL     1       2.722   4.696  20.779  0.00  0.00    +0.000 OA
BRANCH  15  17
ATOM     16  C   UNL     1       0.758   3.637  19.797  0.00  0.00    +0.000 C 
ATOM     17  C   UNL     1       1.532   3.934  21.082  0.00  0.00    +0.000 C 
ATOM     18  C   UNL     1       1.894   2.621  21.778  0.00  0.00    +0.000 C 
ENDBRANCH  15  17
ENDBRANCH   1  15
TORSDOF 5
ENDMDL
MODEL 7
REMARK VINA RESULT:      -5.9      3.379      5.123
REMARK  Name = 
REMARK  7 active torsions:
REMARK  status: ('A' for Active; 'I' for Inactive)
REMARK    1  A    between atoms: C_1  and  C_2
REMARK    2  A    between atoms: C_2  and  C_3
REMARK    3  A    between atoms: C_2  and  O_4
REMARK    4  A    between atoms: O_4  and  C_5
REMARK    5  A    between atoms: C_11  and  C_12
REMARK    6  A    between atoms: C_14  and  C_15
REMARK    7  A    between atoms: C_15  and  N_16
REMARK                            x       y       z     vdW  Elec       q    Type
REMARK                         _______ _______ _______ _____ _____    ______ ____
ROOT
ATOM      1  C   UNL     1       5.229   5.951  16.777  0.00  0.00    +0.000 A 
ATOM      2  C   UNL     1       4.247   6.397  17.683  0.00  0.00    +0.000 A 
ATOM      3  C   UNL     1       3.191   5.580  18.084  0.00  0.00    +0.000 A 
ATOM      4  C   UNL     1       3.101   4.297  17.585  0.00  0.00    +0.000 A 
ATOM      5 CL   UNL     1       1.811   3.275  18.080  0.00  0.00    +0.000 Cl
ATOM      6  C   UNL     1       4.050   3.836  16.678  0.00  0.00    +0.000 A 
ATOM      7  C   UNL     1       5.120   4.646  16.223  0.00  0.00    +0.000 A 
ENDROOT
BRANCH   7   8
ATOM      8  C   UNL     1       6.070   4.020  15.206  0.00  0.00    +0.000 C 
ATOM      9  C   UNL     1       7.053   4.825  14.393  0.00  0.00    +0.000 C 
ATOM     10  C   UNL     1       5.806   4.320  13.720  0.00  0.00    +0.000 C 
BRANCH  10  11
ATOM     11  C   UNL     1       5.823   3.224  12.699  0.00  0.00    +0.000 C 
BRANCH  11  12
ATOM     12  N   UNL     1       4.674   3.353  11.815  0.00  0.00    +0.000 NA
ATOM     13  H   UNL     1       4.691   2.600  11.130  0.00  0.00    +0.000 HD
ATOM     14  H   UNL     1       4.736   4.221  11.289  0.00  0.00    +0.000 HD
ENDBRANCH  11  12
ENDBRANCH  10  11
ENDBRANCH   7   8
BRANCH   1  15
ATOM     15  O   UNL     1       6.312   6.728  16.413  0.00  0.00    +0.000 OA
BRANCH  15  17
ATOM     16  C   UNL     1       7.787   8.183  17.697  0.00  0.00    +0.000 C 
ATOM     17  C   UNL     1       7.460   6.745  17.291  0.00  0.00    +0.000 C 
ATOM     18  C   UNL     1       7.196   5.905  18.542  0.00  0.00    +0.000 C 
ENDBRANCH  15  17
ENDBRANCH   1  15
TORSDOF 5
ENDMDL
MODEL 8
REMARK VINA RESULT:      -5.9      3.857      5.490
REMARK  Name = 
REMARK  7 active torsions:
REMARK  status: ('A' for Active; 'I' for Inactive)
REMARK    1  A    between atoms: C_1  and  C_2
REMARK    2  A    between atoms: C_2  and  C_3
REMARK    3  A    between atoms: C_2  and  O_4
REMARK    4  A    between atoms: O_4  and  C_5
REMARK    5  A    between atoms: C_11  and  C_12
REMARK    6  A    between atoms: C_14  and  C_15
REMARK    7  A    between atoms: C_15  and  N_16
REMARK                            x       y       z     vdW  Elec       q    Type
REMARK                         _______ _______ _______ _____ _____    ______ ____
ROOT
ATOM      1  C   UNL     1       5.493   4.476  17.463  0.00  0.00    +0.000 A 
ATOM      2  C   UNL     1       5.828   4.680  18.815  0.00  0.00    +0.000 A 
ATOM      3  C   UNL     1       6.754   5.645  19.206  0.00  0.00    +0.000 A 
ATOM      4  C   UNL     1       7.362   6.428  18.246  0.00  0.00    +0.000 A 
ATOM      5 CL   UNL     1       8.496   7.630  18.716  0.00  0.00    +0.000 Cl
ATOM      6  C   UNL     1       7.060   6.238  16.901  0.00  0.00    +0.000 A 
ATOM      7  C   UNL     1       6.147   5.247  16.462  0.00  0.00    +0.000 A 
ENDROOT
BRANCH   7   8
ATOM      8  C   UNL     1       5.933   5.130  14.956  0.00  0.00    +0.000 C 
ATOM      9  C   UNL     1       5.785   3.809  14.244  0.00  0.00    +0.000 C 
ATOM     10  C   UNL     1       7.089   4.549  14.123  0.00  0.00    +0.000 C 
BRANCH  10  11
ATOM     11  C   UNL     1       7.531   5.209  12.854  0.00  0.00    +0.000 C 
BRANCH  11  12
ATOM     12  N   UNL     1       8.763   5.949  13.085  0.00  0.00    +0.000 NA
ATOM     13  H   UNL     1       8.648   6.550  13.898  0.00  0.00    +0.000 HD
ATOM     14  H   UNL     1       8.951   6.566  12.297  0.00  0.00    +0.000 HD
ENDBRANCH  11  12
ENDBRANCH  10  11
ENDBRANCH   7   8
BRANCH   1  15
ATOM     15  O   UNL     1       4.537   3.562  17.063  0.00  0.00    +0.000 OA
BRANCH  15  17
ATOM     16  C   UNL     1       2.167   3.896  17.526  0.00  0.00    +0.000 C 
ATOM     17  C   UNL     1       3.473   3.246  17.988  0.00  0.00    +0.000 C 
ATOM     18  C   UNL     1       3.283   1.732  18.096  0.00  0.00    +0.000 C 
ENDBRANCH  15  17
ENDBRANCH   1  15
TORSDOF 5
ENDMDL
MODEL 9
REMARK VINA RESULT:      -5.8      2.765      4.228
REMARK  Name = 
REMARK  7 active torsions:
REMARK  status: ('A' for Active; 'I' for Inactive)
REMARK    1  A    between atoms: C_1  and  C_2
REMARK    2  A    between atoms: C_2  and  C_3
REMARK    3  A    between atoms: C_2  and  O_4
REMARK    4  A    between atoms: O_4  and  C_5
REMARK    5  A    between atoms: C_11  and  C_12
REMARK    6  A    between atoms: C_14  and  C_15
REMARK    7  A    between atoms: C_15  and  N_16
REMARK                            x       y       z     vdW  Elec       q    Type
REMARK                         _______ _______ _______ _____ _____    ______ ____
ROOT
ATOM      1  C   UNL     1       4.261   5.623  17.162  0.00  0.00    +0.000 A 
ATOM      2  C   UNL     1       4.531   6.992  16.969  0.00  0.00    +0.000 A 
ATOM      3  C   UNL     1       3.688   7.985  17.464  0.00  0.00    +0.000 A 
ATOM      4  C   UNL     1       2.556   7.623  18.166  0.00  0.00    +0.000 A 
ATOM      5 CL   UNL     1       1.514   8.838  18.792  0.00  0.00    +0.000 Cl
ATOM      6  C   UNL     1       2.258   6.278  18.358  0.00  0.00    +0.000 A 
ATOM      7  C   UNL     1       3.074   5.240  17.844  0.00  0.00    +0.000 A 
ENDROOT
BRANCH   7   8
ATOM      8  C   UNL     1       2.611   3.809  18.106  0.00  0.00    +0.000 C 
ATOM      9  C   UNL     1       1.733   3.427  19.271  0.00  0.00    +0.000 C 
ATOM     10  C   UNL     1       3.198   3.093  19.335  0.00  0.00    +0.000 C 
BRANCH  10  11
ATOM     11  C   UNL     1       3.716   1.692  19.236  0.00  0.00    +0.000 C 
BRANCH  11  12
ATOM     12  N   UNL     1       5.026   1.601  19.863  0.00  0.00    +0.000 NA
ATOM     13  H   UNL     1       5.229   0.628  20.080  0.00  0.00    +0.000 HD
ATOM     14  H   UNL     1       5.021   2.098  20.751  0.00  0.00    +0.000 HD
ENDBRANCH  11  12
ENDBRANCH  10  11
ENDBRANCH   7   8
BRANCH   1  15
ATOM     15  O   UNL     1       5.115   4.628  16.726  0.00  0.00    +0.000 OA
BRANCH  15  17
ATOM     16  C   UNL     1       7.491   4.548  17.265  0.00  0.00    +0.000 C 
ATOM     17  C   UNL     1       6.429   5.015  16.267  0.00  0.00    +0.000 C 
ATOM     18  C   UNL     1       6.719   4.416  14.890  0.00  0.00    +0.000 C 
ENDBRANCH  15  17
ENDBRANCH   1  15
TORSDOF 5
ENDMDL
