MODEL 1
REMARK VINA RESULT:      -8.8      0.000      0.000
REMARK  Name = 
REMARK  5 active torsions:
REMARK  status: ('A' for Active; 'I' for Inactive)
REMARK    1  A    between atoms: C_4  and  C_5
REMARK    2  A    between atoms: C_5  and  C_6
REMARK    3  A    between atoms: C_5  and  C_17
REMARK    4  A    between atoms: C_6  and  C_7
REMARK    5  A    between atoms: C_10  and  C_11
REMARK                            x       y       z     vdW  Elec       q    Type
REMARK                         _______ _______ _______ _____ _____    ______ ____
ROOT
ATOM      1  C   UNL     1       3.388   6.319  17.941  0.00  0.00    +0.000 C 
ENDROOT
BRANCH   1   5
ATOM      2  C   UNL     1       0.839   9.568  19.350  0.00  0.00    +0.000 A 
ATOM      3  C   UNL     1       1.200   8.551  20.226  0.00  0.00    +0.000 A 
ATOM      4  C   UNL     1       2.082   7.551  19.812  0.00  0.00    +0.000 A 
ATOM      5  C   UNL     1       2.573   7.505  18.496  0.00  0.00    +0.000 A 
ATOM      6  C   UNL     1       2.263   8.591  17.656  0.00  0.00    +0.000 A 
ATOM      7  C   UNL     1       1.395   9.603  18.075  0.00  0.00    +0.000 A 
ENDBRANCH   1   5
BRANCH   1   8
ATOM      8  C   UNL     1       2.924   4.931  18.420  0.00  0.00    +0.000 A 
ATOM      9  C   UNL     1       1.752   4.359  17.898  0.00  0.00    +0.000 A 
ATOM     10  C   UNL     1       1.373   3.060  18.248  0.00  0.00    +0.000 A 
ATOM     11  C   UNL     1       2.159   2.311  19.124  0.00  0.00    +0.000 A 
ATOM     12  C   UNL     1       3.313   2.865  19.663  0.00  0.00    +0.000 A 
ATOM     13  C   UNL     1       3.690   4.160  19.317  0.00  0.00    +0.000 A 
ENDBRANCH   1   8
BRANCH   1  14
ATOM     14  C   UNL     1       4.939   6.422  18.069  0.00  0.00    +0.000 C 
BRANCH  14  15
ATOM     15  C   UNL     1       5.716   6.141  16.823  0.00  0.00    +0.000 A 
ATOM     16  N   UNL     1       6.995   6.522  16.687  0.00  0.00    +0.000 NA
ATOM     17  O   UNL     1       7.421   5.829  15.549  0.00  0.00    +0.000 OA
ATOM     18  C   UNL     1       6.348   5.105  15.113  0.00  0.00    +0.000 A 
ATOM     19  N   UNL     1       5.276   5.300  15.835  0.00  0.00    +0.000 NA
BRANCH  18  20
ATOM     20  C   UNL     1       6.583   4.157  14.011  0.00  0.00    +0.000 C 
ATOM     21  C   UNL     1       5.319   3.777  13.265  0.00  0.00    +0.000 C 
ATOM     22  C   UNL     1       5.904   3.140  12.023  0.00  0.00    +0.000 C 
ATOM     23  O   UNL     1       7.105   3.872  11.723  0.00  0.00    +0.000 OA
ATOM     24  C   UNL     1       7.415   4.702  12.864  0.00  0.00    +0.000 C 
ENDBRANCH  18  20
ENDBRANCH  14  15
ENDBRANCH   1  14
TORSDOF 5
ENDMDL
MODEL 2
REMARK VINA RESULT:      -8.7      3.808      7.557
REMARK  Name = 
REMARK  5 active torsions:
REMARK  status: ('A' for Active; 'I' for Inactive)
REMARK    1  A    between atoms: C_4  and  C_5
REMARK    2  A    between atoms: C_5  and  C_6
REMARK    3  A    between atoms: C_5  and  C_17
REMARK    4  A    between atoms: C_6  and  C_7
REMARK    5  A    between atoms: C_10  and  C_11
REMARK                            x       y       z     vdW  Elec       q    Type
REMARK                         _______ _______ _______ _____ _____    ______ ____
ROOT
ATOM      1  C   UNL     1       3.368   6.397  18.432  0.00  0.00    +0.000 C 
ENDROOT
BRANCH   1   5
ATOM      2  C   UNL     1       7.090   4.824  16.788  0.00  0.00    +0.000 A 
ATOM      3  C   UNL     1       6.170   5.430  15.941  0.00  0.00    +0.000 A 
ATOM      4  C   UNL     1       5.014   6.012  16.466  0.00  0.00    +0.000 A 
ATOM      5  C   UNL     1       4.717   5.944  17.838  0.00  0.00    +0.000 A 
ATOM      6  C   UNL     1       5.703   5.402  18.683  0.00  0.00    +0.000 A 
ATOM      7  C   UNL     1       6.870   4.837  18.162  0.00  0.00    +0.000 A 
ENDBRANCH   1   5
BRANCH   1   8
ATOM      8  C   UNL     1       2.436   5.253  18.875  0.00  0.00    +0.000 A 
ATOM      9  C   UNL     1       1.974   4.315  17.937  0.00  0.00    +0.000 A 
ATOM     10  C   UNL     1       1.211   3.215  18.343  0.00  0.00    +0.000 A 
ATOM     11  C   UNL     1       0.898   3.035  19.690  0.00  0.00    +0.000 A 
ATOM     12  C   UNL     1       1.333   3.961  20.630  0.00  0.00    +0.000 A 
ATOM     13  C   UNL     1       2.091   5.058  20.228  0.00  0.00    +0.000 A 
ENDBRANCH   1   8
BRANCH   1  14
ATOM     14  C   UNL     1       2.555   7.434  17.598  0.00  0.00    +0.000 C 
BRANCH  14  15
ATOM     15  C   UNL     1       2.023   8.608  18.357  0.00  0.00    +0.000 A 
ATOM     16  N   UNL     1       1.828   9.799  17.770  0.00  0.00    +0.000 NA
ATOM     17  O   UNL     1       1.070  10.503  18.711  0.00  0.00    +0.000 OA
ATOM     18  C   UNL     1       0.892   9.662  19.772  0.00  0.00    +0.000 A 
ATOM     19  N   UNL     1       1.495   8.512  19.617  0.00  0.00    +0.000 NA
BRANCH  18  20
ATOM     20  C   UNL     1      -0.017  10.113  20.840  0.00  0.00    +0.000 C 
ATOM     21  C   UNL     1       0.052   9.258  22.090  0.00  0.00    +0.000 C 
ATOM     22  C   UNL     1      -0.660  10.150  23.083  0.00  0.00    +0.000 C 
ATOM     23  O   UNL     1      -0.315  11.501  22.730  0.00  0.00    +0.000 OA
ATOM     24  C   UNL     1       0.313  11.472  21.429  0.00  0.00    +0.000 C 
ENDBRANCH  18  20
ENDBRANCH  14  15
ENDBRANCH   1  14
TORSDOF 5
ENDMDL
MODEL 3
REMARK VINA RESULT:      -8.7      0.363      1.429
REMARK  Name = 
REMARK  5 active torsions:
REMARK  status: ('A' for Active; 'I' for Inactive)
REMARK    1  A    between atoms: C_4  and  C_5
REMARK    2  A    between atoms: C_5  and  C_6
REMARK    3  A    between atoms: C_5  and  C_17
REMARK    4  A    between atoms: C_6  and  C_7
REMARK    5  A    between atoms: C_10  and  C_11
REMARK                            x       y       z     vdW  Elec       q    Type
REMARK                         _______ _______ _______ _____ _____    ______ ____
ROOT
ATOM      1  C   UNL     1       3.504   6.226  17.768  0.00  0.00    +0.000 C 
ENDROOT
BRANCH   1   5
ATOM      2  C   UNL     1       1.143   9.280  19.802  0.00  0.00    +0.000 A 
ATOM      3  C   UNL     1       1.411   9.413  18.445  0.00  0.00    +0.000 A 
ATOM      4  C   UNL     1       2.093   8.402  17.765  0.00  0.00    +0.000 A 
ATOM      5  C   UNL     1       2.581   7.267  18.435  0.00  0.00    +0.000 A 
ATOM      6  C   UNL     1       2.224   7.115  19.787  0.00  0.00    +0.000 A 
ATOM      7  C   UNL     1       1.524   8.117  20.466  0.00  0.00    +0.000 A 
ENDBRANCH   1   5
BRANCH   1   8
ATOM      8  C   UNL     1       3.229   4.764  18.167  0.00  0.00    +0.000 A 
ATOM      9  C   UNL     1       4.062   4.117  19.095  0.00  0.00    +0.000 A 
ATOM     10  C   UNL     1       3.766   2.825  19.541  0.00  0.00    +0.000 A 
ATOM     11  C   UNL     1       2.635   2.160  19.068  0.00  0.00    +0.000 A 
ATOM     12  C   UNL     1       1.809   2.777  18.137  0.00  0.00    +0.000 A 
ATOM     13  C   UNL     1       2.103   4.063  17.690  0.00  0.00    +0.000 A 
ENDBRANCH   1   8
BRANCH   1  14
ATOM     14  C   UNL     1       5.036   6.506  17.845  0.00  0.00    +0.000 C 
BRANCH  14  15
ATOM     15  C   UNL     1       5.825   6.155  16.624  0.00  0.00    +0.000 A 
ATOM     16  N   UNL     1       7.127   6.460  16.512  0.00  0.00    +0.000 NA
ATOM     17  O   UNL     1       7.538   5.720  15.399  0.00  0.00    +0.000 OA
ATOM     18  C   UNL     1       6.436   5.049  14.951  0.00  0.00    +0.000 A 
ATOM     19  N   UNL     1       5.360   5.321  15.642  0.00  0.00    +0.000 NA
BRANCH  18  20
ATOM     20  C   UNL     1       6.642   4.066  13.874  0.00  0.00    +0.000 C 
ATOM     21  C   UNL     1       5.359   3.667  13.171  0.00  0.00    +0.000 C 
ATOM     22  C   UNL     1       5.912   2.990  11.936  0.00  0.00    +0.000 C 
ATOM     23  O   UNL     1       7.107   3.708  11.584  0.00  0.00    +0.000 OA
ATOM     24  C   UNL     1       7.447   4.573  12.691  0.00  0.00    +0.000 C 
ENDBRANCH  18  20
ENDBRANCH  14  15
ENDBRANCH   1  14
TORSDOF 5
ENDMDL
MODEL 4
REMARK VINA RESULT:      -8.7      0.793      1.144
REMARK  Name = 
REMARK  5 active torsions:
REMARK  status: ('A' for Active; 'I' for Inactive)
REMARK    1  A    between atoms: C_4  and  C_5
REMARK    2  A    between atoms: C_5  and  C_6
REMARK    3  A    between atoms: C_5  and  C_17
REMARK    4  A    between atoms: C_6  and  C_7
REMARK    5  A    between atoms: C_10  and  C_11
REMARK                            x       y       z     vdW  Elec       q    Type
REMARK                         _______ _______ _______ _____ _____    ______ ____
ROOT
ATOM      1  C   UNL     1       2.916   6.287  18.241  0.00  0.00    +0.000 C 
ENDROOT
BRANCH   1   5
ATOM      2  C   UNL     1       0.773   9.901  19.418  0.00  0.00    +0.000 A 
ATOM      3  C   UNL     1       1.112   8.961  20.384  0.00  0.00    +0.000 A 
ATOM      4  C   UNL     1       1.870   7.841  20.034  0.00  0.00    +0.000 A 
ATOM      5  C   UNL     1       2.251   7.600  18.703  0.00  0.00    +0.000 A 
ATOM      6  C   UNL     1       1.971   8.607  17.761  0.00  0.00    +0.000 A 
ATOM      7  C   UNL     1       1.229   9.738  18.113  0.00  0.00    +0.000 A 
ENDBRANCH   1   5
BRANCH   1   8
ATOM      8  C   UNL     1       2.279   5.003  18.804  0.00  0.00    +0.000 A 
ATOM      9  C   UNL     1       2.215   4.797  20.192  0.00  0.00    +0.000 A 
ATOM     10  C   UNL     1       1.551   3.685  20.720  0.00  0.00    +0.000 A 
ATOM     11  C   UNL     1       0.941   2.762  19.871  0.00  0.00    +0.000 A 
ATOM     12  C   UNL     1       1.009   2.940  18.495  0.00  0.00    +0.000 A 
ATOM     13  C   UNL     1       1.671   4.046  17.967  0.00  0.00    +0.000 A 
ENDBRANCH   1   8
BRANCH   1  14
ATOM     14  C   UNL     1       4.466   6.204  18.386  0.00  0.00    +0.000 C 
BRANCH  14  15
ATOM     15  C   UNL     1       5.235   6.092  17.108  0.00  0.00    +0.000 A 
ATOM     16  N   UNL     1       6.363   6.788  16.899  0.00  0.00    +0.000 NA
ATOM     17  O   UNL     1       6.905   6.190  15.756  0.00  0.00    +0.000 OA
ATOM     18  C   UNL     1       6.042   5.196  15.393  0.00  0.00    +0.000 A 
ATOM     19  N   UNL     1       4.988   5.132  16.163  0.00  0.00    +0.000 NA
BRANCH  18  20
ATOM     20  C   UNL     1       6.469   4.304  14.302  0.00  0.00    +0.000 C 
ATOM     21  C   UNL     1       5.324   3.833  13.427  0.00  0.00    +0.000 C 
ATOM     22  C   UNL     1       6.083   3.285  12.238  0.00  0.00    +0.000 C 
ATOM     23  O   UNL     1       7.235   4.130  12.073  0.00  0.00    +0.000 OA
ATOM     24  C   UNL     1       7.355   4.953  13.254  0.00  0.00    +0.000 C 
ENDBRANCH  18  20
ENDBRANCH  14  15
ENDBRANCH   1  14
TORSDOF 5
ENDMDL
MODEL 5
REMARK VINA RESULT:      -8.5      4.069      7.389
REMARK  Name = 
REMARK  5 active torsions:
REMARK  status: ('A' for Active; 'I' for Inactive)
REMARK    1  A    between atoms: C_4  and  C_5
REMARK    2  A    between atoms: C_5  and  C_6
REMARK    3  A    between atoms: C_5  and  C_17
REMARK    4  A    between atoms: C_6  and  C_7
REMARK    5  A    between atoms: C_10  and  C_11
REMARK                            x       y       z     vdW  Elec       q    Type
REMARK                         _______ _______ _______ _____ _____    ______ ____
ROOT
ATOM      1  C   UNL     1       3.365   6.167  18.678  0.00  0.00    +0.000 C 
ENDROOT
BRANCH   1   5
ATOM      2  C   UNL     1       7.687   6.163  18.077  0.00  0.00    +0.000 A 
ATOM      3  C   UNL     1       7.144   5.464  19.148  0.00  0.00    +0.000 A 
ATOM      4  C   UNL     1       5.758   5.388  19.304  0.00  0.00    +0.000 A 
ATOM      5  C   UNL     1       4.885   6.061  18.433  0.00  0.00    +0.000 A 
ATOM      6  C   UNL     1       5.453   6.689  17.309  0.00  0.00    +0.000 A 
ATOM      7  C   UNL     1       6.840   6.750  17.141  0.00  0.00    +0.000 A 
ENDBRANCH   1   5
BRANCH   1   8
ATOM      8  C   UNL     1       2.627   4.819  18.777  0.00  0.00    +0.000 A 
ATOM      9  C   UNL     1       1.669   4.611  19.783  0.00  0.00    +0.000 A 
ATOM     10  C   UNL     1       0.920   3.431  19.824  0.00  0.00    +0.000 A 
ATOM     11  C   UNL     1       1.117   2.440  18.862  0.00  0.00    +0.000 A 
ATOM     12  C   UNL     1       2.071   2.621  17.869  0.00  0.00    +0.000 A 
ATOM     13  C   UNL     1       2.820   3.795  17.828  0.00  0.00    +0.000 A 
ENDBRANCH   1   8
BRANCH   1  14
ATOM     14  C   UNL     1       2.575   7.124  17.734  0.00  0.00    +0.000 C 
BRANCH  14  15
ATOM     15  C   UNL     1       1.996   8.343  18.378  0.00  0.00    +0.000 A 
ATOM     16  N   UNL     1       1.659   9.427  17.663  0.00  0.00    +0.000 NA
ATOM     17  O   UNL     1       0.907  10.189  18.564  0.00  0.00    +0.000 OA
ATOM     18  C   UNL     1       0.874   9.484  19.733  0.00  0.00    +0.000 A 
ATOM     19  N   UNL     1       1.563   8.374  19.677  0.00  0.00    +0.000 NA
BRANCH  18  20
ATOM     20  C   UNL     1       0.003  10.001  20.802  0.00  0.00    +0.000 C 
ATOM     21  C   UNL     1      -0.023   9.118  22.035  0.00  0.00    +0.000 C 
ATOM     22  C   UNL     1      -0.655  10.056  23.040  0.00  0.00    +0.000 C 
ATOM     23  O   UNL     1      -0.177  11.374  22.717  0.00  0.00    +0.000 OA
ATOM     24  C   UNL     1       0.458  11.310  21.421  0.00  0.00    +0.000 C 
ENDBRANCH  18  20
ENDBRANCH  14  15
ENDBRANCH   1  14
TORSDOF 5
ENDMDL
MODEL 6
REMARK VINA RESULT:      -8.5      0.541      1.120
REMARK  Name = 
REMARK  5 active torsions:
REMARK  status: ('A' for Active; 'I' for Inactive)
REMARK    1  A    between atoms: C_4  and  C_5
REMARK    2  A    between atoms: C_5  and  C_6
REMARK    3  A    between atoms: C_5  and  C_17
REMARK    4  A    between atoms: C_6  and  C_7
REMARK    5  A    between atoms: C_10  and  C_11
REMARK                            x       y       z     vdW  Elec       q    Type
REMARK                         _______ _______ _______ _____ _____    ______ ____
ROOT
ATOM      1  C   UNL     1       3.571   6.063  18.025  0.00  0.00    +0.000 C 
ENDROOT
BRANCH   1   5
ATOM      2  C   UNL     1       1.227   9.477  19.399  0.00  0.00    +0.000 A 
ATOM      3  C   UNL     1       1.610   9.402  18.066  0.00  0.00    +0.000 A 
ATOM      4  C   UNL     1       2.288   8.275  17.595  0.00  0.00    +0.000 A 
ATOM      5  C   UNL     1       2.656   7.228  18.457  0.00  0.00    +0.000 A 
ATOM      6  C   UNL     1       2.183   7.288  19.780  0.00  0.00    +0.000 A 
ATOM      7  C   UNL     1       1.488   8.406  20.249  0.00  0.00    +0.000 A 
ENDBRANCH   1   5
BRANCH   1   8
ATOM      8  C   UNL     1       3.088   4.665  18.454  0.00  0.00    +0.000 A 
ATOM      9  C   UNL     1       1.892   4.141  17.935  0.00  0.00    +0.000 A 
ATOM     10  C   UNL     1       1.493   2.836  18.237  0.00  0.00    +0.000 A 
ATOM     11  C   UNL     1       2.282   2.033  19.061  0.00  0.00    +0.000 A 
ATOM     12  C   UNL     1       3.460   2.539  19.597  0.00  0.00    +0.000 A 
ATOM     13  C   UNL     1       3.857   3.840  19.299  0.00  0.00    +0.000 A 
ENDBRANCH   1   8
BRANCH   1  14
ATOM     14  C   UNL     1       5.087   6.212  18.354  0.00  0.00    +0.000 C 
BRANCH  14  15
ATOM     15  C   UNL     1       6.034   5.767  17.285  0.00  0.00    +0.000 A 
ATOM     16  N   UNL     1       7.300   5.420  17.562  0.00  0.00    +0.000 NA
ATOM     17  O   UNL     1       7.732   4.804  16.382  0.00  0.00    +0.000 OA
ATOM     18  C   UNL     1       6.679   4.850  15.513  0.00  0.00    +0.000 A 
ATOM     19  N   UNL     1       5.639   5.469  16.008  0.00  0.00    +0.000 NA
BRANCH  18  20
ATOM     20  C   UNL     1       6.826   4.120  14.243  0.00  0.00    +0.000 C 
ATOM     21  C   UNL     1       5.505   3.839  13.554  0.00  0.00    +0.000 C 
ATOM     22  C   UNL     1       5.983   3.450  12.173  0.00  0.00    +0.000 C 
ATOM     23  O   UNL     1       7.142   4.260  11.905  0.00  0.00    +0.000 OA
ATOM     24  C   UNL     1       7.542   4.884  13.145  0.00  0.00    +0.000 C 
ENDBRANCH  18  20
ENDBRANCH  14  15
ENDBRANCH   1  14
TORSDOF 5
ENDMDL
MODEL 7
REMARK VINA RESULT:      -8.3      3.674      7.425
REMARK  Name = 
REMARK  5 active torsions:
REMARK  status: ('A' for Active; 'I' for Inactive)
REMARK    1  A    between atoms: C_4  and  C_5
REMARK    2  A    between atoms: C_5  and  C_6
REMARK    3  A    between atoms: C_5  and  C_17
REMARK    4  A    between atoms: C_6  and  C_7
REMARK    5  A    between atoms: C_10  and  C_11
REMARK                            x       y       z     vdW  Elec       q    Type
REMARK                         _______ _______ _______ _____ _____    ______ ____
ROOT
ATOM      1  C   UNL     1       3.055   5.915  18.307  0.00  0.00    +0.000 C 
ENDROOT
BRANCH   1   5
ATOM      2  C   UNL     1       1.442   1.882  18.715  0.00  0.00    +0.000 A 
ATOM      3  C   UNL     1       0.974   2.894  19.545  0.00  0.00    +0.000 A 
ATOM      4  C   UNL     1       1.420   4.206  19.368  0.00  0.00    +0.000 A 
ATOM      5  C   UNL     1       2.392   4.526  18.406  0.00  0.00    +0.000 A 
ATOM      6  C   UNL     1       2.786   3.503  17.524  0.00  0.00    +0.000 A 
ATOM      7  C   UNL     1       2.326   2.193  17.686  0.00  0.00    +0.000 A 
ENDBRANCH   1   5
BRANCH   1   8
ATOM      8  C   UNL     1       4.592   5.896  18.200  0.00  0.00    +0.000 A 
ATOM      9  C   UNL     1       5.230   6.487  17.097  0.00  0.00    +0.000 A 
ATOM     10  C   UNL     1       6.625   6.565  17.036  0.00  0.00    +0.000 A 
ATOM     11  C   UNL     1       7.404   6.055  18.075  0.00  0.00    +0.000 A 
ATOM     12  C   UNL     1       6.791   5.452  19.166  0.00  0.00    +0.000 A 
ATOM     13  C   UNL     1       5.401   5.371  19.227  0.00  0.00    +0.000 A 
ENDBRANCH   1   8
BRANCH   1  14
ATOM     14  C   UNL     1       2.622   6.969  19.371  0.00  0.00    +0.000 C 
BRANCH  14  15
ATOM     15  C   UNL     1       2.135   8.277  18.834  0.00  0.00    +0.000 A 
ATOM     16  N   UNL     1       2.341   8.638  17.558  0.00  0.00    +0.000 NA
ATOM     17  O   UNL     1       1.499   9.743  17.395  0.00  0.00    +0.000 OA
ATOM     18  C   UNL     1       0.876   9.936  18.594  0.00  0.00    +0.000 A 
ATOM     19  N   UNL     1       1.268   9.092  19.512  0.00  0.00    +0.000 NA
BRANCH  18  20
ATOM     20  C   UNL     1      -0.191  10.951  18.639  0.00  0.00    +0.000 C 
ATOM     21  C   UNL     1      -1.443  10.539  17.891  0.00  0.00    +0.000 C 
ATOM     22  C   UNL     1      -2.434  11.554  18.418  0.00  0.00    +0.000 C 
ATOM     23  O   UNL     1      -2.076  11.790  19.791  0.00  0.00    +0.000 OA
ATOM     24  C   UNL     1      -0.775  11.204  20.017  0.00  0.00    +0.000 C 
ENDBRANCH  18  20
ENDBRANCH  14  15
ENDBRANCH   1  14
TORSDOF 5
ENDMDL
MODEL 8
REMARK VINA RESULT:      -8.3      4.014      7.514
REMARK  Name = 
REMARK  5 active torsions:
REMARK  status: ('A' for Active; 'I' for Inactive)
REMARK    1  A    between atoms: C_4  and  C_5
REMARK    2  A    between atoms: C_5  and  C_6
REMARK    3  A    between atoms: C_5  and  C_17
REMARK    4  A    between atoms: C_6  and  C_7
REMARK    5  A    between atoms: C_10  and  C_11
REMARK                            x       y       z     vdW  Elec       q    Type
REMARK                         _______ _______ _______ _____ _____    ______ ____
ROOT
ATOM      1  C   UNL     1       3.445   6.399  18.638  0.00  0.00    +0.000 C 
ENDROOT
BRANCH   1   5
ATOM      2  C   UNL     1       7.448   5.152  17.434  0.00  0.00    +0.000 A 
ATOM      3  C   UNL     1       6.874   6.271  16.844  0.00  0.00    +0.000 A 
ATOM      4  C   UNL     1       5.629   6.729  17.280  0.00  0.00    +0.000 A 
ATOM      5  C   UNL     1       4.900   6.045  18.267  0.00  0.00    +0.000 A 
ATOM      6  C   UNL     1       5.539   4.967  18.907  0.00  0.00    +0.000 A 
ATOM      7  C   UNL     1       6.794   4.518  18.486  0.00  0.00    +0.000 A 
ENDBRANCH   1   5
BRANCH   1   8
ATOM      8  C   UNL     1       2.567   5.199  19.044  0.00  0.00    +0.000 A 
ATOM      9  C   UNL     1       2.163   5.040  20.379  0.00  0.00    +0.000 A 
ATOM     10  C   UNL     1       1.286   4.014  20.743  0.00  0.00    +0.000 A 
ATOM     11  C   UNL     1       0.799   3.131  19.780  0.00  0.00    +0.000 A 
ATOM     12  C   UNL     1       1.200   3.263  18.456  0.00  0.00    +0.000 A 
ATOM     13  C   UNL     1       2.076   4.283  18.092  0.00  0.00    +0.000 A 
ENDBRANCH   1   8
BRANCH   1  14
ATOM     14  C   UNL     1       2.667   7.292  17.624  0.00  0.00    +0.000 C 
BRANCH  14  15
ATOM     15  C   UNL     1       1.938   8.459  18.209  0.00  0.00    +0.000 A 
ATOM     16  N   UNL     1       1.284   9.342  17.438  0.00  0.00    +0.000 NA
ATOM     17  O   UNL     1       0.520  10.070  18.357  0.00  0.00    +0.000 OA
ATOM     18  C   UNL     1       0.799   9.552  19.589  0.00  0.00    +0.000 A 
ATOM     19  N   UNL     1       1.692   8.598  19.549  0.00  0.00    +0.000 NA
BRANCH  18  20
ATOM     20  C   UNL     1      -0.004  10.045  20.721  0.00  0.00    +0.000 C 
ATOM     21  C   UNL     1      -0.116   9.048  21.857  0.00  0.00    +0.000 C 
ATOM     22  C   UNL     1      -0.638   9.939  22.964  0.00  0.00    +0.000 C 
ATOM     23  O   UNL     1      -0.024  11.225  22.768  0.00  0.00    +0.000 OA
ATOM     24  C   UNL     1       0.591  11.228  21.461  0.00  0.00    +0.000 C 
ENDBRANCH  18  20
ENDBRANCH  14  15
ENDBRANCH   1  14
TORSDOF 5
ENDMDL
MODEL 9
REMARK VINA RESULT:      -8.2      0.767      3.982
REMARK  Name = 
REMARK  5 active torsions:
REMARK  status: ('A' for Active; 'I' for Inactive)
REMARK    1  A    between atoms: C_4  and  C_5
REMARK    2  A    between atoms: C_5  and  C_6
REMARK    3  A    between atoms: C_5  and  C_17
REMARK    4  A    between atoms: C_6  and  C_7
REMARK    5  A    between atoms: C_10  and  C_11
REMARK                            x       y       z     vdW  Elec       q    Type
REMARK                         _______ _______ _______ _____ _____    ______ ____
ROOT
ATOM      1  C   UNL     1       3.356   6.619  18.621  0.00  0.00    +0.000 C 
ENDROOT
BRANCH   1   5
ATOM      2  C   UNL     1       1.950   2.503  18.955  0.00  0.00    +0.000 A 
ATOM      3  C   UNL     1       1.415   3.332  17.976  0.00  0.00    +0.000 A 
ATOM      4  C   UNL     1       1.915   4.624  17.805  0.00  0.00    +0.000 A 
ATOM      5  C   UNL     1       2.914   5.142  18.647  0.00  0.00    +0.000 A 
ATOM      6  C   UNL     1       3.498   4.256  19.571  0.00  0.00    +0.000 A 
ATOM      7  C   UNL     1       3.012   2.956  19.732  0.00  0.00    +0.000 A 
ENDBRANCH   1   5
BRANCH   1   8
ATOM      8  C   UNL     1       2.315   7.619  19.159  0.00  0.00    +0.000 A 
ATOM      9  C   UNL     1       1.832   7.497  20.473  0.00  0.00    +0.000 A 
ATOM     10  C   UNL     1       0.964   8.455  21.006  0.00  0.00    +0.000 A 
ATOM     11  C   UNL     1       0.565   9.547  20.238  0.00  0.00    +0.000 A 
ATOM     12  C   UNL     1       1.019   9.676  18.931  0.00  0.00    +0.000 A 
ATOM     13  C   UNL     1       1.882   8.722  18.397  0.00  0.00    +0.000 A 
ENDBRANCH   1   8
BRANCH   1  14
ATOM     14  C   UNL     1       3.936   7.148  17.274  0.00  0.00    +0.000 C 
BRANCH  14  15
ATOM     15  C   UNL     1       5.101   6.390  16.723  0.00  0.00    +0.000 A 
ATOM     16  N   UNL     1       5.954   5.727  17.519  0.00  0.00    +0.000 NA
ATOM     17  O   UNL     1       6.687   4.940  16.625  0.00  0.00    +0.000 OA
ATOM     18  C   UNL     1       6.201   5.215  15.379  0.00  0.00    +0.000 A 
ATOM     19  N   UNL     1       5.264   6.126  15.388  0.00  0.00    +0.000 NA
BRANCH  18  20
ATOM     20  C   UNL     1       6.702   4.389  14.267  0.00  0.00    +0.000 C 
ATOM     21  C   UNL     1       5.598   3.784  13.422  0.00  0.00    +0.000 C 
ATOM     22  C   UNL     1       6.382   3.343  12.206  0.00  0.00    +0.000 C 
ATOM     23  O   UNL     1       7.416   4.325  12.015  0.00  0.00    +0.000 OA
ATOM     24  C   UNL     1       7.468   5.149  13.200  0.00  0.00    +0.000 C 
ENDBRANCH  18  20
ENDBRANCH  14  15
ENDBRANCH   1  14
TORSDOF 5
ENDMDL
