MODEL 1
REMARK VINA RESULT:      -7.6      0.000      0.000
REMARK  Name = 
REMARK  11 active torsions:
REMARK  status: ('A' for Active; 'I' for Inactive)
REMARK    1  A    between atoms: C_1  and  O_2
REMARK    2  A    between atoms: O_2  and  C_3
REMARK    3  A    between atoms: C_5  and  C_6
REMARK    4  A    between atoms: C_7  and  C_8
REMARK    5  A    between atoms: C_11  and  O_12
REMARK    6  A    between atoms: O_12  and  C_13
REMARK    7  A    between atoms: C_14  and  N_15
REMARK    8  A    between atoms: C_18  and  O_19
REMARK    9  A    between atoms: O_19  and  C_20
REMARK   10  A    between atoms: C_20  and  C_21
REMARK   11  A    between atoms: C_20  and  C_22
REMARK                            x       y       z     vdW  Elec       q    Type
REMARK                         _______ _______ _______ _____ _____    ______ ____
ROOT
ATOM      1  C   UNL     1       4.281   7.372  17.104  0.00  0.00    +0.000 C 
ATOM      2  C   UNL     1       3.155   7.218  17.811  0.00  0.00    +0.000 C 
ENDROOT
BRANCH   1   5
ATOM      3  C   UNL     1       7.187   5.006  17.685  0.00  0.00    +0.000 A 
ATOM      4  C   UNL     1       6.276   6.056  17.871  0.00  0.00    +0.000 A 
ATOM      5  C   UNL     1       5.362   6.390  16.866  0.00  0.00    +0.000 A 
ATOM      6  C   UNL     1       5.377   5.661  15.669  0.00  0.00    +0.000 A 
ATOM      7  C   UNL     1       6.232   4.568  15.497  0.00  0.00    +0.000 A 
ATOM      8  C   UNL     1       7.160   4.268  16.494  0.00  0.00    +0.000 A 
BRANCH   3  10
ATOM      9  C   UNL     1       7.991   5.690  19.819  0.00  0.00    +0.000 C 
ATOM     10  O   UNL     1       8.013   4.754  18.751  0.00  0.00    +0.000 OA
ENDBRANCH   3  10
BRANCH   7  11
ATOM     11  O   UNL     1       5.972   3.785  14.410  0.00  0.00    +0.000 OA
BRANCH  11  12
ATOM     12  C   UNL     1       6.146   4.313  13.093  0.00  0.00    +0.000 C 
ATOM     13  C   UNL     1       7.561   4.838  12.846  0.00  0.00    +0.000 C 
ATOM     14  C   UNL     1       5.907   3.127  12.158  0.00  0.00    +0.000 C 
ENDBRANCH  11  12
ENDBRANCH   7  11
ENDBRANCH   1   5
BRANCH   2  15
ATOM     15  C   UNL     1       2.788   5.985  18.500  0.00  0.00    +0.000 A 
ATOM     16  C   UNL     1       2.374   6.021  19.826  0.00  0.00    +0.000 A 
ATOM     17  C   UNL     1       1.897   4.858  20.425  0.00  0.00    +0.000 A 
ATOM     18  C   UNL     1       1.779   3.660  19.700  0.00  0.00    +0.000 A 
ATOM     19  C   UNL     1       2.193   3.617  18.354  0.00  0.00    +0.000 A 
ATOM     20  C   UNL     1       2.776   4.774  17.805  0.00  0.00    +0.000 A 
BRANCH  19  21
ATOM     21  N   UNL     1       2.248   2.453  17.563  0.00  0.00    +0.000 N 
ATOM     22  H   UNL     1       2.846   1.737  17.948  0.00  0.00    +0.000 HD
ATOM     23  H   UNL     1       1.325   2.067  17.383  0.00  0.00    +0.000 HD
ENDBRANCH  19  21
BRANCH  18  24
ATOM     24  O   UNL     1       1.306   2.632  20.473  0.00  0.00    +0.000 OA
ATOM     25  C   UNL     1       1.728   2.568  21.824  0.00  0.00    +0.000 C 
ENDBRANCH  18  24
ENDBRANCH   2  15
TORSDOF 7
ENDMDL
MODEL 2
REMARK VINA RESULT:      -7.6      2.772      6.626
REMARK  Name = 
REMARK  11 active torsions:
REMARK  status: ('A' for Active; 'I' for Inactive)
REMARK    1  A    between atoms: C_1  and  O_2
REMARK    2  A    between atoms: O_2  and  C_3
REMARK    3  A    between atoms: C_5  and  C_6
REMARK    4  A    between atoms: C_7  and  C_8
REMARK    5  A    between atoms: C_11  and  O_12
REMARK    6  A    between atoms: O_12  and  C_13
REMARK    7  A    between atoms: C_14  and  N_15
REMARK    8  A    between atoms: C_18  and  O_19
REMARK    9  A    between atoms: O_19  and  C_20
REMARK   10  A    between atoms: C_20  and  C_21
REMARK   11  A    between atoms: C_20  and  C_22
REMARK                            x       y       z     vdW  Elec       q    Type
REMARK                         _______ _______ _______ _____ _____    ______ ____
ROOT
ATOM      1  C   UNL     1       3.746   3.845  17.053  0.00  0.00    +0.000 C 
ATOM      2  C   UNL     1       4.975   3.984  16.543  0.00  0.00    +0.000 C 
ENDROOT
BRANCH   1   5
ATOM      3  C   UNL     1       2.459   4.727  20.509  0.00  0.00    +0.000 A 
ATOM      4  C   UNL     1       2.893   3.972  19.410  0.00  0.00    +0.000 A 
ATOM      5  C   UNL     1       3.124   4.584  18.174  0.00  0.00    +0.000 A 
ATOM      6  C   UNL     1       2.908   5.964  18.053  0.00  0.00    +0.000 A 
ATOM      7  C   UNL     1       2.543   6.740  19.157  0.00  0.00    +0.000 A 
ATOM      8  C   UNL     1       2.284   6.110  20.374  0.00  0.00    +0.000 A 
BRANCH   3  10
ATOM      9  C   UNL     1       2.235   2.606  21.568  0.00  0.00    +0.000 C 
ATOM     10  O   UNL     1       2.295   4.022  21.675  0.00  0.00    +0.000 OA
ENDBRANCH   3  10
BRANCH   7  11
ATOM     11  O   UNL     1       2.621   8.091  18.976  0.00  0.00    +0.000 OA
BRANCH  11  12
ATOM     12  C   UNL     1       1.427   8.859  18.814  0.00  0.00    +0.000 C 
ATOM     13  C   UNL     1       0.900   9.421  20.136  0.00  0.00    +0.000 C 
ATOM     14  C   UNL     1       1.832  10.035  17.924  0.00  0.00    +0.000 C 
ENDBRANCH  11  12
ENDBRANCH   7  11
ENDBRANCH   1   5
BRANCH   2  15
ATOM     15  C   UNL     1       5.958   4.944  17.035  0.00  0.00    +0.000 A 
ATOM     16  C   UNL     1       6.101   6.179  16.415  0.00  0.00    +0.000 A 
ATOM     17  C   UNL     1       6.944   7.133  16.978  0.00  0.00    +0.000 A 
ATOM     18  C   UNL     1       7.614   6.891  18.190  0.00  0.00    +0.000 A 
ATOM     19  C   UNL     1       7.469   5.643  18.826  0.00  0.00    +0.000 A 
ATOM     20  C   UNL     1       6.704   4.655  18.180  0.00  0.00    +0.000 A 
BRANCH  19  21
ATOM     21  N   UNL     1       8.185   5.231  19.967  0.00  0.00    +0.000 N 
ATOM     22  H   UNL     1       9.063   5.715  20.084  0.00  0.00    +0.000 HD
ATOM     23  H   UNL     1       7.634   5.314  20.817  0.00  0.00    +0.000 HD
ENDBRANCH  19  21
BRANCH  18  24
ATOM     24  O   UNL     1       8.403   7.946  18.565  0.00  0.00    +0.000 OA
ATOM     25  C   UNL     1       8.174   9.200  17.945  0.00  0.00    +0.000 C 
ENDBRANCH  18  24
ENDBRANCH   2  15
TORSDOF 7
ENDMDL
MODEL 3
REMARK VINA RESULT:      -7.3      2.678      6.485
REMARK  Name = 
REMARK  11 active torsions:
REMARK  status: ('A' for Active; 'I' for Inactive)
REMARK    1  A    between atoms: C_1  and  O_2
REMARK    2  A    between atoms: O_2  and  C_3
REMARK    3  A    between atoms: C_5  and  C_6
REMARK    4  A    between atoms: C_7  and  C_8
REMARK    5  A    between atoms: C_11  and  O_12
REMARK    6  A    between atoms: O_12  and  C_13
REMARK    7  A    between atoms: C_14  and  N_15
REMARK    8  A    between atoms: C_18  and  O_19
REMARK    9  A    between atoms: O_19  and  C_20
REMARK   10  A    between atoms: C_20  and  C_21
REMARK   11  A    between atoms: C_20  and  C_22
REMARK                            x       y       z     vdW  Elec       q    Type
REMARK                         _______ _______ _______ _____ _____    ______ ____
ROOT
ATOM      1  C   UNL     1       4.924   3.576  16.240  0.00  0.00    +0.000 C 
ATOM      2  C   UNL     1       6.176   3.970  15.980  0.00  0.00    +0.000 C 
ENDROOT
BRANCH   1   5
ATOM      3  C   UNL     1       2.793   3.718  19.373  0.00  0.00    +0.000 A 
ATOM      4  C   UNL     1       3.526   3.208  18.292  0.00  0.00    +0.000 A 
ATOM      5  C   UNL     1       4.004   4.062  17.292  0.00  0.00    +0.000 A 
ATOM      6  C   UNL     1       3.731   5.433  17.387  0.00  0.00    +0.000 A 
ATOM      7  C   UNL     1       3.061   5.964  18.494  0.00  0.00    +0.000 A 
ATOM      8  C   UNL     1       2.562   5.097  19.466  0.00  0.00    +0.000 A 
BRANCH   3  10
ATOM      9  C   UNL     1       2.286   3.236  21.648  0.00  0.00    +0.000 C 
ATOM     10  O   UNL     1       2.403   2.789  20.304  0.00  0.00    +0.000 OA
ENDBRANCH   3  10
BRANCH   7  11
ATOM     11  O   UNL     1       3.088   7.324  18.599  0.00  0.00    +0.000 OA
BRANCH  11  12
ATOM     12  C   UNL     1       1.865   8.056  18.710  0.00  0.00    +0.000 C 
ATOM     13  C   UNL     1       1.565   8.494  20.145  0.00  0.00    +0.000 C 
ATOM     14  C   UNL     1       2.078   9.311  17.864  0.00  0.00    +0.000 C 
ENDBRANCH  11  12
ENDBRANCH   7  11
ENDBRANCH   1   5
BRANCH   2  15
ATOM     15  C   UNL     1       6.877   5.005  16.733  0.00  0.00    +0.000 A 
ATOM     16  C   UNL     1       6.958   6.299  16.235  0.00  0.00    +0.000 A 
ATOM     17  C   UNL     1       7.510   7.303  17.026  0.00  0.00    +0.000 A 
ATOM     18  C   UNL     1       7.941   7.044  18.339  0.00  0.00    +0.000 A 
ATOM     19  C   UNL     1       7.857   5.734  18.852  0.00  0.00    +0.000 A 
ATOM     20  C   UNL     1       7.402   4.716  17.995  0.00  0.00    +0.000 A 
BRANCH  19  21
ATOM     21  N   UNL     1       8.372   5.321  20.096  0.00  0.00    +0.000 N 
ATOM     22  H   UNL     1       7.662   4.987  20.731  0.00  0.00    +0.000 HD
ATOM     23  H   UNL     1       9.099   4.617  19.996  0.00  0.00    +0.000 HD
ENDBRANCH  19  21
BRANCH  18  24
ATOM     24  O   UNL     1       8.465   8.157  18.942  0.00  0.00    +0.000 OA
ATOM     25  C   UNL     1       8.467   9.370  18.209  0.00  0.00    +0.000 C 
ENDBRANCH  18  24
ENDBRANCH   2  15
TORSDOF 7
ENDMDL
MODEL 4
REMARK VINA RESULT:      -7.2      2.120      3.025
REMARK  Name = 
REMARK  11 active torsions:
REMARK  status: ('A' for Active; 'I' for Inactive)
REMARK    1  A    between atoms: C_1  and  O_2
REMARK    2  A    between atoms: O_2  and  C_3
REMARK    3  A    between atoms: C_5  and  C_6
REMARK    4  A    between atoms: C_7  and  C_8
REMARK    5  A    between atoms: C_11  and  O_12
REMARK    6  A    between atoms: O_12  and  C_13
REMARK    7  A    between atoms: C_14  and  N_15
REMARK    8  A    between atoms: C_18  and  O_19
REMARK    9  A    between atoms: O_19  and  C_20
REMARK   10  A    between atoms: C_20  and  C_21
REMARK   11  A    between atoms: C_20  and  C_22
REMARK                            x       y       z     vdW  Elec       q    Type
REMARK                         _______ _______ _______ _____ _____    ______ ____
ROOT
ATOM      1  C   UNL     1       3.409   3.031  17.573  0.00  0.00    +0.000 C 
ATOM      2  C   UNL     1       2.318   3.389  18.261  0.00  0.00    +0.000 C 
ENDROOT
BRANCH   1   5
ATOM      3  C   UNL     1       6.844   4.626  17.756  0.00  0.00    +0.000 A 
ATOM      4  C   UNL     1       5.655   3.992  18.146  0.00  0.00    +0.000 A 
ATOM      5  C   UNL     1       4.599   3.846  17.242  0.00  0.00    +0.000 A 
ATOM      6  C   UNL     1       4.746   4.350  15.942  0.00  0.00    +0.000 A 
ATOM      7  C   UNL     1       5.950   4.922  15.519  0.00  0.00    +0.000 A 
ATOM      8  C   UNL     1       6.983   5.091  16.441  0.00  0.00    +0.000 A 
BRANCH   3  10
ATOM      9  C   UNL     1       7.782   5.795  19.605  0.00  0.00    +0.000 C 
ATOM     10  O   UNL     1       7.819   4.685  18.720  0.00  0.00    +0.000 OA
ENDBRANCH   3  10
BRANCH   7  11
ATOM     11  O   UNL     1       6.061   5.130  14.175  0.00  0.00    +0.000 OA
BRANCH  11  12
ATOM     12  C   UNL     1       6.792   4.205  13.367  0.00  0.00    +0.000 C 
ATOM     13  C   UNL     1       5.889   3.376  12.451  0.00  0.00    +0.000 C 
ATOM     14  C   UNL     1       7.693   5.073  12.489  0.00  0.00    +0.000 C 
ENDBRANCH  11  12
ENDBRANCH   7  11
ENDBRANCH   1   5
BRANCH   2  15
ATOM     15  C   UNL     1       2.114   4.716  18.831  0.00  0.00    +0.000 A 
ATOM     16  C   UNL     1       1.789   4.858  20.175  0.00  0.00    +0.000 A 
ATOM     17  C   UNL     1       1.732   6.132  20.733  0.00  0.00    +0.000 A 
ATOM     18  C   UNL     1       2.046   7.275  19.977  0.00  0.00    +0.000 A 
ATOM     19  C   UNL     1       2.380   7.138  18.616  0.00  0.00    +0.000 A 
ATOM     20  C   UNL     1       2.320   5.853  18.047  0.00  0.00    +0.000 A 
BRANCH  19  21
ATOM     21  N   UNL     1       2.586   8.208  17.724  0.00  0.00    +0.000 N 
ATOM     22  H   UNL     1       2.260   9.094  18.081  0.00  0.00    +0.000 HD
ATOM     23  H   UNL     1       3.559   8.291  17.441  0.00  0.00    +0.000 HD
ENDBRANCH  19  21
BRANCH  18  24
ATOM     24  O   UNL     1       1.915   8.429  20.705  0.00  0.00    +0.000 OA
ATOM     25  C   UNL     1       0.658   9.084  20.691  0.00  0.00    +0.000 C 
ENDBRANCH  18  24
ENDBRANCH   2  15
TORSDOF 7
ENDMDL
MODEL 5
REMARK VINA RESULT:      -7.1      1.224      1.762
REMARK  Name = 
REMARK  11 active torsions:
REMARK  status: ('A' for Active; 'I' for Inactive)
REMARK    1  A    between atoms: C_1  and  O_2
REMARK    2  A    between atoms: O_2  and  C_3
REMARK    3  A    between atoms: C_5  and  C_6
REMARK    4  A    between atoms: C_7  and  C_8
REMARK    5  A    between atoms: C_11  and  O_12
REMARK    6  A    between atoms: O_12  and  C_13
REMARK    7  A    between atoms: C_14  and  N_15
REMARK    8  A    between atoms: C_18  and  O_19
REMARK    9  A    between atoms: O_19  and  C_20
REMARK   10  A    between atoms: C_20  and  C_21
REMARK   11  A    between atoms: C_20  and  C_22
REMARK                            x       y       z     vdW  Elec       q    Type
REMARK                         _______ _______ _______ _____ _____    ______ ____
ROOT
ATOM      1  C   UNL     1       3.937   7.698  17.451  0.00  0.00    +0.000 C 
ATOM      2  C   UNL     1       2.801   7.448  18.113  0.00  0.00    +0.000 C 
ENDROOT
BRANCH   1   5
ATOM      3  C   UNL     1       6.743   5.150  17.544  0.00  0.00    +0.000 A 
ATOM      4  C   UNL     1       5.871   6.174  17.938  0.00  0.00    +0.000 A 
ATOM      5  C   UNL     1       4.982   6.743  17.020  0.00  0.00    +0.000 A 
ATOM      6  C   UNL     1       4.983   6.275  15.699  0.00  0.00    +0.000 A 
ATOM      7  C   UNL     1       5.798   5.207  15.309  0.00  0.00    +0.000 A 
ATOM      8  C   UNL     1       6.702   4.673  16.226  0.00  0.00    +0.000 A 
BRANCH   3  10
ATOM      9  C   UNL     1       7.960   5.561  19.548  0.00  0.00    +0.000 C 
ATOM     10  O   UNL     1       7.547   4.651  18.537  0.00  0.00    +0.000 OA
ENDBRANCH   3  10
BRANCH   7  11
ATOM     11  O   UNL     1       5.521   4.675  14.083  0.00  0.00    +0.000 OA
BRANCH  11  12
ATOM     12  C   UNL     1       6.519   3.924  13.390  0.00  0.00    +0.000 C 
ATOM     13  C   UNL     1       5.954   3.137  12.206  0.00  0.00    +0.000 C 
ATOM     14  C   UNL     1       7.492   4.970  12.845  0.00  0.00    +0.000 C 
ENDBRANCH  11  12
ENDBRANCH   7  11
ENDBRANCH   1   5
BRANCH   2  15
ATOM     15  C   UNL     1       2.383   6.117  18.540  0.00  0.00    +0.000 A 
ATOM     16  C   UNL     1       1.979   5.175  17.602  0.00  0.00    +0.000 A 
ATOM     17  C   UNL     1       1.714   3.871  18.011  0.00  0.00    +0.000 A 
ATOM     18  C   UNL     1       1.898   3.475  19.348  0.00  0.00    +0.000 A 
ATOM     19  C   UNL     1       2.311   4.423  20.303  0.00  0.00    +0.000 A 
ATOM     20  C   UNL     1       2.462   5.758  19.888  0.00  0.00    +0.000 A 
BRANCH  19  21
ATOM     21  N   UNL     1       2.404   4.185  21.689  0.00  0.00    +0.000 N 
ATOM     22  H   UNL     1       1.692   4.659  22.224  0.00  0.00    +0.000 HD
ATOM     23  H   UNL     1       2.394   3.193  21.909  0.00  0.00    +0.000 HD
ENDBRANCH  19  21
BRANCH  18  24
ATOM     24  O   UNL     1       1.569   2.160  19.547  0.00  0.00    +0.000 OA
ATOM     25  C   UNL     1       2.439   1.171  19.022  0.00  0.00    +0.000 C 
ENDBRANCH  18  24
ENDBRANCH   2  15
TORSDOF 7
ENDMDL
MODEL 6
REMARK VINA RESULT:      -6.9      2.972      6.898
REMARK  Name = 
REMARK  11 active torsions:
REMARK  status: ('A' for Active; 'I' for Inactive)
REMARK    1  A    between atoms: C_1  and  O_2
REMARK    2  A    between atoms: O_2  and  C_3
REMARK    3  A    between atoms: C_5  and  C_6
REMARK    4  A    between atoms: C_7  and  C_8
REMARK    5  A    between atoms: C_11  and  O_12
REMARK    6  A    between atoms: O_12  and  C_13
REMARK    7  A    between atoms: C_14  and  N_15
REMARK    8  A    between atoms: C_18  and  O_19
REMARK    9  A    between atoms: O_19  and  C_20
REMARK   10  A    between atoms: C_20  and  C_21
REMARK   11  A    between atoms: C_20  and  C_22
REMARK                            x       y       z     vdW  Elec       q    Type
REMARK                         _______ _______ _______ _____ _____    ______ ____
ROOT
ATOM      1  C   UNL     1       3.893   4.726  17.144  0.00  0.00    +0.000 C 
ATOM      2  C   UNL     1       5.134   4.783  16.645  0.00  0.00    +0.000 C 
ENDROOT
BRANCH   1   5
ATOM      3  C   UNL     1       2.153   7.336  19.272  0.00  0.00    +0.000 A 
ATOM      4  C   UNL     1       2.827   6.738  18.199  0.00  0.00    +0.000 A 
ATOM      5  C   UNL     1       3.336   5.440  18.313  0.00  0.00    +0.000 A 
ATOM      6  C   UNL     1       3.165   4.752  19.522  0.00  0.00    +0.000 A 
ATOM      7  C   UNL     1       2.435   5.309  20.576  0.00  0.00    +0.000 A 
ATOM      8  C   UNL     1       1.962   6.616  20.460  0.00  0.00    +0.000 A 
BRANCH   3  10
ATOM      9  C   UNL     1       1.720   9.060  17.689  0.00  0.00    +0.000 C 
ATOM     10  O   UNL     1       1.674   8.599  19.032  0.00  0.00    +0.000 OA
ENDBRANCH   3  10
BRANCH   7  11
ATOM     11  O   UNL     1       2.115   4.449  21.588  0.00  0.00    +0.000 OA
BRANCH  11  12
ATOM     12  C   UNL     1       1.444   3.222  21.295  0.00  0.00    +0.000 C 
ATOM     13  C   UNL     1       0.734   3.243  19.940  0.00  0.00    +0.000 C 
ATOM     14  C   UNL     1       2.551   2.170  21.236  0.00  0.00    +0.000 C 
ENDBRANCH  11  12
ENDBRANCH   7  11
ENDBRANCH   1   5
BRANCH   2  15
ATOM     15  C   UNL     1       6.199   5.609  17.204  0.00  0.00    +0.000 A 
ATOM     16  C   UNL     1       6.436   6.882  16.700  0.00  0.00    +0.000 A 
ATOM     17  C   UNL     1       7.362   7.706  17.332  0.00  0.00    +0.000 A 
ATOM     18  C   UNL     1       8.026   7.296  18.501  0.00  0.00    +0.000 A 
ATOM     19  C   UNL     1       7.787   6.009  19.021  0.00  0.00    +0.000 A 
ATOM     20  C   UNL     1       6.934   5.153  18.301  0.00  0.00    +0.000 A 
BRANCH  19  21
ATOM     21  N   UNL     1       8.482   5.434  20.103  0.00  0.00    +0.000 N 
ATOM     22  H   UNL     1       8.901   4.543  19.881  0.00  0.00    +0.000 HD
ATOM     23  H   UNL     1       9.188   6.060  20.482  0.00  0.00    +0.000 HD
ENDBRANCH  19  21
BRANCH  18  24
ATOM     24  O   UNL     1       8.904   8.244  18.957  0.00  0.00    +0.000 OA
ATOM     25  C   UNL     1       8.740   9.576  18.502  0.00  0.00    +0.000 C 
ENDBRANCH  18  24
ENDBRANCH   2  15
TORSDOF 7
ENDMDL
MODEL 7
REMARK VINA RESULT:      -6.9      2.614      3.705
REMARK  Name = 
REMARK  11 active torsions:
REMARK  status: ('A' for Active; 'I' for Inactive)
REMARK    1  A    between atoms: C_1  and  O_2
REMARK    2  A    between atoms: O_2  and  C_3
REMARK    3  A    between atoms: C_5  and  C_6
REMARK    4  A    between atoms: C_7  and  C_8
REMARK    5  A    between atoms: C_11  and  O_12
REMARK    6  A    between atoms: O_12  and  C_13
REMARK    7  A    between atoms: C_14  and  N_15
REMARK    8  A    between atoms: C_18  and  O_19
REMARK    9  A    between atoms: O_19  and  C_20
REMARK   10  A    between atoms: C_20  and  C_21
REMARK   11  A    between atoms: C_20  and  C_22
REMARK                            x       y       z     vdW  Elec       q    Type
REMARK                         _______ _______ _______ _____ _____    ______ ____
ROOT
ATOM      1  C   UNL     1       3.113   3.645  18.456  0.00  0.00    +0.000 C 
ATOM      2  C   UNL     1       2.131   4.350  19.028  0.00  0.00    +0.000 C 
ENDROOT
BRANCH   1   5
ATOM      3  C   UNL     1       6.737   4.561  17.818  0.00  0.00    +0.000 A 
ATOM      4  C   UNL     1       5.549   4.249  18.494  0.00  0.00    +0.000 A 
ATOM      5  C   UNL     1       4.342   4.142  17.797  0.00  0.00    +0.000 A 
ATOM      6  C   UNL     1       4.339   4.358  16.412  0.00  0.00    +0.000 A 
ATOM      7  C   UNL     1       5.527   4.600  15.715  0.00  0.00    +0.000 A 
ATOM      8  C   UNL     1       6.718   4.737  16.428  0.00  0.00    +0.000 A 
BRANCH   3  10
ATOM      9  C   UNL     1       8.074   5.800  19.349  0.00  0.00    +0.000 C 
ATOM     10  O   UNL     1       7.862   4.610  18.603  0.00  0.00    +0.000 OA
ENDBRANCH   3  10
BRANCH   7  11
ATOM     11  O   UNL     1       5.434   4.530  14.355  0.00  0.00    +0.000 OA
BRANCH  11  12
ATOM     12  C   UNL     1       6.463   3.886  13.601  0.00  0.00    +0.000 C 
ATOM     13  C   UNL     1       5.934   3.205  12.337  0.00  0.00    +0.000 C 
ATOM     14  C   UNL     1       7.406   5.011  13.178  0.00  0.00    +0.000 C 
ENDBRANCH  11  12
ENDBRANCH   7  11
ENDBRANCH   1   5
BRANCH   2  15
ATOM     15  C   UNL     1       2.110   5.807  19.101  0.00  0.00    +0.000 A 
ATOM     16  C   UNL     1       2.204   6.568  17.942  0.00  0.00    +0.000 A 
ATOM     17  C   UNL     1       2.045   7.949  18.016  0.00  0.00    +0.000 A 
ATOM     18  C   UNL     1       1.741   8.585  19.233  0.00  0.00    +0.000 A 
ATOM     19  C   UNL     1       1.640   7.819  20.411  0.00  0.00    +0.000 A 
ATOM     20  C   UNL     1       1.917   6.442  20.330  0.00  0.00    +0.000 A 
BRANCH  19  21
ATOM     21  N   UNL     1       1.471   8.348  21.705  0.00  0.00    +0.000 N 
ATOM     22  H   UNL     1       2.036   9.167  21.879  0.00  0.00    +0.000 HD
ATOM     23  H   UNL     1       0.497   8.555  21.912  0.00  0.00    +0.000 HD
ENDBRANCH  19  21
BRANCH  18  24
ATOM     24  O   UNL     1       1.640   9.944  19.095  0.00  0.00    +0.000 OA
ATOM     25  C   UNL     1       0.348  10.501  18.926  0.00  0.00    +0.000 C 
ENDBRANCH  18  24
ENDBRANCH   2  15
TORSDOF 7
ENDMDL
MODEL 8
REMARK VINA RESULT:      -6.8      1.441      1.722
REMARK  Name = 
REMARK  11 active torsions:
REMARK  status: ('A' for Active; 'I' for Inactive)
REMARK    1  A    between atoms: C_1  and  O_2
REMARK    2  A    between atoms: O_2  and  C_3
REMARK    3  A    between atoms: C_5  and  C_6
REMARK    4  A    between atoms: C_7  and  C_8
REMARK    5  A    between atoms: C_11  and  O_12
REMARK    6  A    between atoms: O_12  and  C_13
REMARK    7  A    between atoms: C_14  and  N_15
REMARK    8  A    between atoms: C_18  and  O_19
REMARK    9  A    between atoms: O_19  and  C_20
REMARK   10  A    between atoms: C_20  and  C_21
REMARK   11  A    between atoms: C_20  and  C_22
REMARK                            x       y       z     vdW  Elec       q    Type
REMARK                         _______ _______ _______ _____ _____    ______ ____
ROOT
ATOM      1  C   UNL     1       4.556   7.351  16.997  0.00  0.00    +0.000 C 
ATOM      2  C   UNL     1       3.514   7.143  17.809  0.00  0.00    +0.000 C 
ENDROOT
BRANCH   1   5
ATOM      3  C   UNL     1       7.283   4.742  16.637  0.00  0.00    +0.000 A 
ATOM      4  C   UNL     1       6.524   5.801  17.153  0.00  0.00    +0.000 A 
ATOM      5  C   UNL     1       5.479   6.356  16.407  0.00  0.00    +0.000 A 
ATOM      6  C   UNL     1       5.210   5.839  15.132  0.00  0.00    +0.000 A 
ATOM      7  C   UNL     1       5.913   4.739  14.634  0.00  0.00    +0.000 A 
ATOM      8  C   UNL     1       6.973   4.217  15.375  0.00  0.00    +0.000 A 
BRANCH   3  10
ATOM      9  C   UNL     1       8.305   4.799  18.786  0.00  0.00    +0.000 C 
ATOM     10  O   UNL     1       8.261   4.262  17.471  0.00  0.00    +0.000 OA
ENDBRANCH   3  10
BRANCH   7  11
ATOM     11  O   UNL     1       5.389   4.167  13.510  0.00  0.00    +0.000 OA
BRANCH  11  12
ATOM     12  C   UNL     1       6.210   3.343  12.680  0.00  0.00    +0.000 C 
ATOM     13  C   UNL     1       5.400   2.521  11.675  0.00  0.00    +0.000 C 
ATOM     14  C   UNL     1       7.089   4.319  11.899  0.00  0.00    +0.000 C 
ENDBRANCH  11  12
ENDBRANCH   7  11
ENDBRANCH   1   5
BRANCH   2  15
ATOM     15  C   UNL     1       3.092   5.825  18.272  0.00  0.00    +0.000 A 
ATOM     16  C   UNL     1       1.865   5.305  17.877  0.00  0.00    +0.000 A 
ATOM     17  C   UNL     1       1.538   3.994  18.214  0.00  0.00    +0.000 A 
ATOM     18  C   UNL     1       2.445   3.170  18.902  0.00  0.00    +0.000 A 
ATOM     19  C   UNL     1       3.692   3.689  19.301  0.00  0.00    +0.000 A 
ATOM     20  C   UNL     1       3.953   5.048  19.050  0.00  0.00    +0.000 A 
BRANCH  19  21
ATOM     21  N   UNL     1       4.629   3.011  20.105  0.00  0.00    +0.000 N 
ATOM     22  H   UNL     1       5.582   3.128  19.793  0.00  0.00    +0.000 HD
ATOM     23  H   UNL     1       4.556   3.273  21.085  0.00  0.00    +0.000 HD
ENDBRANCH  19  21
BRANCH  18  24
ATOM     24  O   UNL     1       1.928   1.926  19.150  0.00  0.00    +0.000 OA
ATOM     25  C   UNL     1       0.523   1.761  19.064  0.00  0.00    +0.000 C 
ENDBRANCH  18  24
ENDBRANCH   2  15
TORSDOF 7
ENDMDL
MODEL 9
REMARK VINA RESULT:      -6.8      4.785      7.472
REMARK  Name = 
REMARK  11 active torsions:
REMARK  status: ('A' for Active; 'I' for Inactive)
REMARK    1  A    between atoms: C_1  and  O_2
REMARK    2  A    between atoms: O_2  and  C_3
REMARK    3  A    between atoms: C_5  and  C_6
REMARK    4  A    between atoms: C_7  and  C_8
REMARK    5  A    between atoms: C_11  and  O_12
REMARK    6  A    between atoms: O_12  and  C_13
REMARK    7  A    between atoms: C_14  and  N_15
REMARK    8  A    between atoms: C_18  and  O_19
REMARK    9  A    between atoms: O_19  and  C_20
REMARK   10  A    between atoms: C_20  and  C_21
REMARK   11  A    between atoms: C_20  and  C_22
REMARK                            x       y       z     vdW  Elec       q    Type
REMARK                         _______ _______ _______ _____ _____    ______ ____
ROOT
ATOM      1  C   UNL     1       2.254   9.242  17.698  0.00  0.00    +0.000 C 
ATOM      2  C   UNL     1       2.938   8.092  17.738  0.00  0.00    +0.000 C 
ENDROOT
BRANCH   1   5
ATOM      3  C   UNL     1      -0.131  10.774  20.216  0.00  0.00    +0.000 A 
ATOM      4  C   UNL     1       1.050  10.296  19.632  0.00  0.00    +0.000 A 
ATOM      5  C   UNL     1       1.012   9.601  18.419  0.00  0.00    +0.000 A 
ATOM      6  C   UNL     1      -0.228   9.385  17.802  0.00  0.00    +0.000 A 
ATOM      7  C   UNL     1      -1.405   9.916  18.337  0.00  0.00    +0.000 A 
ATOM      8  C   UNL     1      -1.356  10.578  19.564  0.00  0.00    +0.000 A 
BRANCH   3  10
ATOM      9  C   UNL     1      -0.931  11.243  22.409  0.00  0.00    +0.000 C 
ATOM     10  O   UNL     1       0.034  11.465  21.390  0.00  0.00    +0.000 OA
ENDBRANCH   3  10
BRANCH   7  11
ATOM     11  O   UNL     1      -2.497   9.867  17.519  0.00  0.00    +0.000 OA
BRANCH  11  12
ATOM     12  C   UNL     1      -2.743  10.929  16.594  0.00  0.00    +0.000 C 
ATOM     13  C   UNL     1      -2.843  10.443  15.147  0.00  0.00    +0.000 C 
ATOM     14  C   UNL     1      -4.102  11.499  17.000  0.00  0.00    +0.000 C 
ENDBRANCH  11  12
ENDBRANCH   7  11
ENDBRANCH   1   5
BRANCH   2  15
ATOM     15  C   UNL     1       2.550   6.941  18.547  0.00  0.00    +0.000 A 
ATOM     16  C   UNL     1       2.251   7.101  19.894  0.00  0.00    +0.000 A 
ATOM     17  C   UNL     1       1.753   6.021  20.616  0.00  0.00    +0.000 A 
ATOM     18  C   UNL     1       1.498   4.784  19.998  0.00  0.00    +0.000 A 
ATOM     19  C   UNL     1       1.795   4.617  18.632  0.00  0.00    +0.000 A 
ATOM     20  C   UNL     1       2.403   5.687  17.951  0.00  0.00    +0.000 A 
BRANCH  19  21
ATOM     21  N   UNL     1       1.709   3.397  17.931  0.00  0.00    +0.000 N 
ATOM     22  H   UNL     1       2.447   3.274  17.253  0.00  0.00    +0.000 HD
ATOM     23  H   UNL     1       1.681   2.596  18.556  0.00  0.00    +0.000 HD
ENDBRANCH  19  21
BRANCH  18  24
ATOM     24  O   UNL     1       1.026   3.851  20.883  0.00  0.00    +0.000 OA
ATOM     25  C   UNL     1       1.972   3.098  21.622  0.00  0.00    +0.000 C 
ENDBRANCH  18  24
ENDBRANCH   2  15
TORSDOF 7
ENDMDL
