MODEL 1
REMARK VINA RESULT:      -7.6      0.000      0.000
REMARK  Name = 
REMARK  7 active torsions:
REMARK  status: ('A' for Active; 'I' for Inactive)
REMARK    1  A    between atoms: C_1  and  C_2
REMARK    2  A    between atoms: C_5  and  N_6
REMARK    3  A    between atoms: N_6  and  N_7
REMARK    4  A    between atoms: C_8  and  C_9
REMARK    5  A    between atoms: C_8  and  C_12
REMARK    6  A    between atoms: C_9  and  O_11
REMARK    7  A    between atoms: C_12  and  C_14
REMARK                            x       y       z     vdW  Elec       q    Type
REMARK                         _______ _______ _______ _____ _____    ______ ____
ROOT
ATOM      1  N   UNL     1       4.442   3.752  19.607  0.00  0.00    +0.000 NA
ATOM      2  C   UNL     1       3.497   2.869  19.435  0.00  0.00    +0.000 C 
ENDROOT
BRANCH   1   3
ATOM      3  N   UNL     1       5.588   3.750  18.858  0.00  0.00    +0.000 N 
ATOM      4  H   UNL     1       5.808   2.990  18.200  0.00  0.00    +0.000 HD
BRANCH   3   9
ATOM      5  C   UNL     1       8.234   8.673  17.486  0.00  0.00    +0.000 C 
ATOM      6  C   UNL     1       7.544   7.387  17.830  0.00  0.00    +0.000 A 
ATOM      7  C   UNL     1       8.041   6.554  18.832  0.00  0.00    +0.000 A 
ATOM      8  C   UNL     1       7.384   5.354  19.135  0.00  0.00    +0.000 A 
ATOM      9  C   UNL     1       6.210   4.966  18.468  0.00  0.00    +0.000 A 
ATOM     10  C   UNL     1       5.715   5.808  17.469  0.00  0.00    +0.000 A 
ATOM     11  C   UNL     1       6.384   7.004  17.141  0.00  0.00    +0.000 A 
ENDBRANCH   3   9
ENDBRANCH   1   3
BRANCH   2  12
ATOM     12  C   UNL     1       3.511   1.827  18.301  0.00  0.00    +0.000 C 
ATOM     13  O   UNL     1       2.742   1.938  17.369  0.00  0.00    +0.000 OA
BRANCH  12  14
ATOM     14  O   UNL     1       4.353   0.771  18.340  0.00  0.00    +0.000 OA
ATOM     15  H   UNL     1       4.544   0.258  19.155  0.00  0.00    +0.000 HD
ENDBRANCH  12  14
ENDBRANCH   2  12
BRANCH   2  16
ATOM     16  C   UNL     1       2.365   2.999  20.407  0.00  0.00    +0.000 C 
ATOM     17  O   UNL     1       2.564   2.556  21.558  0.00  0.00    +0.000 OA
BRANCH  16  18
ATOM     18  C   UNL     1       1.069   3.667  19.943  0.00  0.00    +0.000 C 
ATOM     19  F   UNL     1       0.570   4.603  20.789  0.00  0.00    +0.000 F 
ATOM     20  F   UNL     1       1.241   4.314  18.757  0.00  0.00    +0.000 F 
ATOM     21  F   UNL     1       0.079   2.764  19.733  0.00  0.00    +0.000 F 
ENDBRANCH  16  18
ENDBRANCH   2  16
TORSDOF 6
ENDMDL
MODEL 2
REMARK VINA RESULT:      -7.6      1.505      2.187
REMARK  Name = 
REMARK  7 active torsions:
REMARK  status: ('A' for Active; 'I' for Inactive)
REMARK    1  A    between atoms: C_1  and  C_2
REMARK    2  A    between atoms: C_5  and  N_6
REMARK    3  A    between atoms: N_6  and  N_7
REMARK    4  A    between atoms: C_8  and  C_9
REMARK    5  A    between atoms: C_8  and  C_12
REMARK    6  A    between atoms: C_9  and  O_11
REMARK    7  A    between atoms: C_12  and  C_14
REMARK                            x       y       z     vdW  Elec       q    Type
REMARK                         _______ _______ _______ _____ _____    ______ ____
ROOT
ATOM      1  N   UNL     1       3.162   3.545  17.629  0.00  0.00    +0.000 NA
ATOM      2  C   UNL     1       3.012   2.796  18.686  0.00  0.00    +0.000 C 
ENDROOT
BRANCH   1   3
ATOM      3  N   UNL     1       4.350   3.622  16.952  0.00  0.00    +0.000 N 
ATOM      4  H   UNL     1       4.467   3.226  16.011  0.00  0.00    +0.000 HD
BRANCH   3   9
ATOM      5  C   UNL     1       7.882   8.105  17.696  0.00  0.00    +0.000 C 
ATOM      6  C   UNL     1       6.964   6.933  17.516  0.00  0.00    +0.000 A 
ATOM      7  C   UNL     1       5.711   7.090  16.923  0.00  0.00    +0.000 A 
ATOM      8  C   UNL     1       4.866   5.984  16.767  0.00  0.00    +0.000 A 
ATOM      9  C   UNL     1       5.252   4.696  17.175  0.00  0.00    +0.000 A 
ATOM     10  C   UNL     1       6.511   4.545  17.763  0.00  0.00    +0.000 A 
ATOM     11  C   UNL     1       7.356   5.658  17.946  0.00  0.00    +0.000 A 
ENDBRANCH   3   9
ENDBRANCH   1   3
BRANCH   2  12
ATOM     12  C   UNL     1       4.098   1.833  19.201  0.00  0.00    +0.000 C 
ATOM     13  O   UNL     1       4.741   2.121  20.188  0.00  0.00    +0.000 OA
BRANCH  12  14
ATOM     14  O   UNL     1       4.366   0.680  18.550  0.00  0.00    +0.000 OA
ATOM     15  H   UNL     1       5.260   0.279  18.500  0.00  0.00    +0.000 HD
ENDBRANCH  12  14
ENDBRANCH   2  12
BRANCH   2  16
ATOM     16  C   UNL     1       1.660   2.914  19.321  0.00  0.00    +0.000 C 
ATOM     17  O   UNL     1       0.719   2.330  18.743  0.00  0.00    +0.000 OA
BRANCH  16  18
ATOM     18  C   UNL     1       1.524   3.711  20.620  0.00  0.00    +0.000 C 
ATOM     19  F   UNL     1       0.598   4.701  20.592  0.00  0.00    +0.000 F 
ATOM     20  F   UNL     1       1.159   2.910  21.659  0.00  0.00    +0.000 F 
ATOM     21  F   UNL     1       2.696   4.285  20.989  0.00  0.00    +0.000 F 
ENDBRANCH  16  18
ENDBRANCH   2  16
TORSDOF 6
ENDMDL
MODEL 3
REMARK VINA RESULT:      -7.6      1.101      1.628
REMARK  Name = 
REMARK  7 active torsions:
REMARK  status: ('A' for Active; 'I' for Inactive)
REMARK    1  A    between atoms: C_1  and  C_2
REMARK    2  A    between atoms: C_5  and  N_6
REMARK    3  A    between atoms: N_6  and  N_7
REMARK    4  A    between atoms: C_8  and  C_9
REMARK    5  A    between atoms: C_8  and  C_12
REMARK    6  A    between atoms: C_9  and  O_11
REMARK    7  A    between atoms: C_12  and  C_14
REMARK                            x       y       z     vdW  Elec       q    Type
REMARK                         _______ _______ _______ _____ _____    ______ ____
ROOT
ATOM      1  N   UNL     1       4.828   3.366  19.324  0.00  0.00    +0.000 NA
ATOM      2  C   UNL     1       3.525   3.332  19.274  0.00  0.00    +0.000 C 
ENDROOT
BRANCH   1   3
ATOM      3  N   UNL     1       5.593   3.654  18.226  0.00  0.00    +0.000 N 
ATOM      4  H   UNL     1       5.423   3.212  17.313  0.00  0.00    +0.000 HD
BRANCH   3   9
ATOM      5  C   UNL     1       8.213   8.763  17.841  0.00  0.00    +0.000 C 
ATOM      6  C   UNL     1       7.531   7.431  17.928  0.00  0.00    +0.000 A 
ATOM      7  C   UNL     1       7.954   6.469  18.844  0.00  0.00    +0.000 A 
ATOM      8  C   UNL     1       7.306   5.228  18.907  0.00  0.00    +0.000 A 
ATOM      9  C   UNL     1       6.214   4.922  18.077  0.00  0.00    +0.000 A 
ATOM     10  C   UNL     1       5.792   5.893  17.165  0.00  0.00    +0.000 A 
ATOM     11  C   UNL     1       6.454   7.134  17.079  0.00  0.00    +0.000 A 
ENDBRANCH   3   9
ENDBRANCH   1   3
BRANCH   2  12
ATOM     12  C   UNL     1       2.716   3.734  18.027  0.00  0.00    +0.000 C 
ATOM     13  O   UNL     1       2.511   4.906  17.792  0.00  0.00    +0.000 OA
BRANCH  12  14
ATOM     14  O   UNL     1       2.206   2.795  17.200  0.00  0.00    +0.000 OA
ATOM     15  H   UNL     1       1.399   2.274  17.401  0.00  0.00    +0.000 HD
ENDBRANCH  12  14
ENDBRANCH   2  12
BRANCH   2  16
ATOM     16  C   UNL     1       2.882   2.921  20.564  0.00  0.00    +0.000 C 
ATOM     17  O   UNL     1       3.622   2.367  21.405  0.00  0.00    +0.000 OA
BRANCH  16  18
ATOM     18  C   UNL     1       1.395   3.216  20.772  0.00  0.00    +0.000 C 
ATOM     19  F   UNL     1       0.566   2.662  19.853  0.00  0.00    +0.000 F 
ATOM     20  F   UNL     1       0.959   2.747  21.975  0.00  0.00    +0.000 F 
ATOM     21  F   UNL     1       1.137   4.547  20.777  0.00  0.00    +0.000 F 
ENDBRANCH  16  18
ENDBRANCH   2  16
TORSDOF 6
ENDMDL
MODEL 4
REMARK VINA RESULT:      -7.6      0.958      1.204
REMARK  Name = 
REMARK  7 active torsions:
REMARK  status: ('A' for Active; 'I' for Inactive)
REMARK    1  A    between atoms: C_1  and  C_2
REMARK    2  A    between atoms: C_5  and  N_6
REMARK    3  A    between atoms: N_6  and  N_7
REMARK    4  A    between atoms: C_8  and  C_9
REMARK    5  A    between atoms: C_8  and  C_12
REMARK    6  A    between atoms: C_9  and  O_11
REMARK    7  A    between atoms: C_12  and  C_14
REMARK                            x       y       z     vdW  Elec       q    Type
REMARK                         _______ _______ _______ _____ _____    ______ ____
ROOT
ATOM      1  N   UNL     1       5.040   3.508  19.514  0.00  0.00    +0.000 NA
ATOM      2  C   UNL     1       3.852   2.983  19.391  0.00  0.00    +0.000 C 
ENDROOT
BRANCH   1   3
ATOM      3  N   UNL     1       5.846   3.752  18.435  0.00  0.00    +0.000 N 
ATOM      4  H   UNL     1       5.757   3.222  17.558  0.00  0.00    +0.000 HD
BRANCH   3   9
ATOM      5  C   UNL     1       8.185   8.959  17.706  0.00  0.00    +0.000 C 
ATOM      6  C   UNL     1       7.575   7.602  17.882  0.00  0.00    +0.000 A 
ATOM      7  C   UNL     1       8.135   6.674  18.760  0.00  0.00    +0.000 A 
ATOM      8  C   UNL     1       7.552   5.409  18.908  0.00  0.00    +0.000 A 
ATOM      9  C   UNL     1       6.392   5.043  18.204  0.00  0.00    +0.000 A 
ATOM     10  C   UNL     1       5.834   5.979  17.330  0.00  0.00    +0.000 A 
ATOM     11  C   UNL     1       6.428   7.245  17.158  0.00  0.00    +0.000 A 
ENDBRANCH   3   9
ENDBRANCH   1   3
BRANCH   2  12
ATOM     12  C   UNL     1       3.189   2.706  18.029  0.00  0.00    +0.000 C 
ATOM     13  O   UNL     1       3.290   3.516  17.132  0.00  0.00    +0.000 OA
BRANCH  12  14
ATOM     14  O   UNL     1       2.468   1.581  17.825  0.00  0.00    +0.000 OA
ATOM     15  H   UNL     1       2.662   0.724  18.262  0.00  0.00    +0.000 HD
ENDBRANCH  12  14
ENDBRANCH   2  12
BRANCH   2  16
ATOM     16  C   UNL     1       3.167   2.727  20.698  0.00  0.00    +0.000 C 
ATOM     17  O   UNL     1       3.751   1.961  21.494  0.00  0.00    +0.000 OA
BRANCH  16  18
ATOM     18  C   UNL     1       1.831   3.419  20.977  0.00  0.00    +0.000 C 
ATOM     19  F   UNL     1       1.087   2.857  21.961  0.00  0.00    +0.000 F 
ATOM     20  F   UNL     1       2.012   4.713  21.361  0.00  0.00    +0.000 F 
ATOM     21  F   UNL     1       1.044   3.466  19.873  0.00  0.00    +0.000 F 
ENDBRANCH  16  18
ENDBRANCH   2  16
TORSDOF 6
ENDMDL
MODEL 5
REMARK VINA RESULT:      -7.5      1.188      2.009
REMARK  Name = 
REMARK  7 active torsions:
REMARK  status: ('A' for Active; 'I' for Inactive)
REMARK    1  A    between atoms: C_1  and  C_2
REMARK    2  A    between atoms: C_5  and  N_6
REMARK    3  A    between atoms: N_6  and  N_7
REMARK    4  A    between atoms: C_8  and  C_9
REMARK    5  A    between atoms: C_8  and  C_12
REMARK    6  A    between atoms: C_9  and  O_11
REMARK    7  A    between atoms: C_12  and  C_14
REMARK                            x       y       z     vdW  Elec       q    Type
REMARK                         _______ _______ _______ _____ _____    ______ ____
ROOT
ATOM      1  N   UNL     1       4.107   3.925  18.049  0.00  0.00    +0.000 NA
ATOM      2  C   UNL     1       3.533   3.009  18.780  0.00  0.00    +0.000 C 
ENDROOT
BRANCH   1   3
ATOM      3  N   UNL     1       5.459   3.947  17.834  0.00  0.00    +0.000 N 
ATOM      4  H   UNL     1       5.924   3.263  17.223  0.00  0.00    +0.000 HD
BRANCH   3   9
ATOM      5  C   UNL     1       8.321   8.939  17.901  0.00  0.00    +0.000 C 
ATOM      6  C   UNL     1       7.576   7.638  17.898  0.00  0.00    +0.000 A 
ATOM      7  C   UNL     1       6.431   7.471  17.119  0.00  0.00    +0.000 A 
ATOM      8  C   UNL     1       5.746   6.249  17.132  0.00  0.00    +0.000 A 
ATOM      9  C   UNL     1       6.192   5.161  17.901  0.00  0.00    +0.000 A 
ATOM     10  C   UNL     1       7.343   5.333  18.675  0.00  0.00    +0.000 A 
ATOM     11  C   UNL     1       8.023   6.567  18.686  0.00  0.00    +0.000 A 
ENDBRANCH   3   9
ENDBRANCH   1   3
BRANCH   2  12
ATOM     12  C   UNL     1       4.287   1.799  19.362  0.00  0.00    +0.000 C 
ATOM     13  O   UNL     1       4.895   1.912  20.406  0.00  0.00    +0.000 OA
BRANCH  12  14
ATOM     14  O   UNL     1       4.305   0.615  18.712  0.00  0.00    +0.000 OA
ATOM     15  H   UNL     1       3.510   0.205  18.308  0.00  0.00    +0.000 HD
ENDBRANCH  12  14
ENDBRANCH   2  12
BRANCH   2  16
ATOM     16  C   UNL     1       2.059   3.211  18.953  0.00  0.00    +0.000 C 
ATOM     17  O   UNL     1       1.359   3.125  17.922  0.00  0.00    +0.000 OA
BRANCH  16  18
ATOM     18  C   UNL     1       1.513   3.488  20.356  0.00  0.00    +0.000 C 
ATOM     19  F   UNL     1       1.211   2.383  21.082  0.00  0.00    +0.000 F 
ATOM     20  F   UNL     1       2.412   4.178  21.111  0.00  0.00    +0.000 F 
ATOM     21  F   UNL     1       0.392   4.251  20.323  0.00  0.00    +0.000 F 
ENDBRANCH  16  18
ENDBRANCH   2  16
TORSDOF 6
ENDMDL
MODEL 6
REMARK VINA RESULT:      -7.5      1.502      1.867
REMARK  Name = 
REMARK  7 active torsions:
REMARK  status: ('A' for Active; 'I' for Inactive)
REMARK    1  A    between atoms: C_1  and  C_2
REMARK    2  A    between atoms: C_5  and  N_6
REMARK    3  A    between atoms: N_6  and  N_7
REMARK    4  A    between atoms: C_8  and  C_9
REMARK    5  A    between atoms: C_8  and  C_12
REMARK    6  A    between atoms: C_9  and  O_11
REMARK    7  A    between atoms: C_12  and  C_14
REMARK                            x       y       z     vdW  Elec       q    Type
REMARK                         _______ _______ _______ _____ _____    ______ ____
ROOT
ATOM      1  N   UNL     1       3.215   3.578  17.534  0.00  0.00    +0.000 NA
ATOM      2  C   UNL     1       3.015   2.835  18.587  0.00  0.00    +0.000 C 
ENDROOT
BRANCH   1   3
ATOM      3  N   UNL     1       4.436   3.660  16.919  0.00  0.00    +0.000 N 
ATOM      4  H   UNL     1       4.627   3.192  16.023  0.00  0.00    +0.000 HD
BRANCH   3   9
ATOM      5  C   UNL     1       7.960   8.124  17.794  0.00  0.00    +0.000 C 
ATOM      6  C   UNL     1       7.039   6.966  17.553  0.00  0.00    +0.000 A 
ATOM      7  C   UNL     1       7.418   5.668  17.894  0.00  0.00    +0.000 A 
ATOM      8  C   UNL     1       6.545   4.598  17.657  0.00  0.00    +0.000 A 
ATOM      9  C   UNL     1       5.272   4.793  17.097  0.00  0.00    +0.000 A 
ATOM     10  C   UNL     1       4.897   6.097  16.762  0.00  0.00    +0.000 A 
ATOM     11  C   UNL     1       5.779   7.175  16.975  0.00  0.00    +0.000 A 
ENDBRANCH   3   9
ENDBRANCH   1   3
BRANCH   2  12
ATOM     12  C   UNL     1       4.080   1.885  19.164  0.00  0.00    +0.000 C 
ATOM     13  O   UNL     1       4.814   2.268  20.051  0.00  0.00    +0.000 OA
BRANCH  12  14
ATOM     14  O   UNL     1       4.229   0.633  18.678  0.00  0.00    +0.000 OA
ATOM     15  H   UNL     1       4.431   0.436  17.738  0.00  0.00    +0.000 HD
ENDBRANCH  12  14
ENDBRANCH   2  12
BRANCH   2  16
ATOM     16  C   UNL     1       1.632   2.947  19.150  0.00  0.00    +0.000 C 
ATOM     17  O   UNL     1       0.706   2.476  18.456  0.00  0.00    +0.000 OA
BRANCH  16  18
ATOM     18  C   UNL     1       1.445   3.603  20.520  0.00  0.00    +0.000 C 
ATOM     19  F   UNL     1       1.106   2.755  21.522  0.00  0.00    +0.000 F 
ATOM     20  F   UNL     1       2.590   4.211  20.940  0.00  0.00    +0.000 F 
ATOM     21  F   UNL     1       0.498   4.574  20.494  0.00  0.00    +0.000 F 
ENDBRANCH  16  18
ENDBRANCH   2  16
TORSDOF 6
ENDMDL
MODEL 7
REMARK VINA RESULT:      -7.5      1.176      2.068
REMARK  Name = 
REMARK  7 active torsions:
REMARK  status: ('A' for Active; 'I' for Inactive)
REMARK    1  A    between atoms: C_1  and  C_2
REMARK    2  A    between atoms: C_5  and  N_6
REMARK    3  A    between atoms: N_6  and  N_7
REMARK    4  A    between atoms: C_8  and  C_9
REMARK    5  A    between atoms: C_8  and  C_12
REMARK    6  A    between atoms: C_9  and  O_11
REMARK    7  A    between atoms: C_12  and  C_14
REMARK                            x       y       z     vdW  Elec       q    Type
REMARK                         _______ _______ _______ _____ _____    ______ ____
ROOT
ATOM      1  N   UNL     1       4.674   3.339  19.284  0.00  0.00    +0.000 NA
ATOM      2  C   UNL     1       3.370   3.389  19.266  0.00  0.00    +0.000 C 
ENDROOT
BRANCH   1   3
ATOM      3  N   UNL     1       5.432   3.658  18.189  0.00  0.00    +0.000 N 
ATOM      4  H   UNL     1       5.221   3.287  17.254  0.00  0.00    +0.000 HD
BRANCH   3   9
ATOM      5  C   UNL     1       8.092   8.734  17.658  0.00  0.00    +0.000 C 
ATOM      6  C   UNL     1       7.400   7.412  17.810  0.00  0.00    +0.000 A 
ATOM      7  C   UNL     1       6.239   7.126  17.092  0.00  0.00    +0.000 A 
ATOM      8  C   UNL     1       5.604   5.887  17.252  0.00  0.00    +0.000 A 
ATOM      9  C   UNL     1       6.117   4.899  18.109  0.00  0.00    +0.000 A 
ATOM     10  C   UNL     1       7.284   5.191  18.821  0.00  0.00    +0.000 A 
ATOM     11  C   UNL     1       7.914   6.444  18.685  0.00  0.00    +0.000 A 
ENDBRANCH   3   9
ENDBRANCH   1   3
BRANCH   2  12
ATOM     12  C   UNL     1       2.562   3.929  18.071  0.00  0.00    +0.000 C 
ATOM     13  O   UNL     1       2.293   3.195  17.143  0.00  0.00    +0.000 OA
BRANCH  12  14
ATOM     14  O   UNL     1       2.171   5.221  18.027  0.00  0.00    +0.000 OA
ATOM     15  H   UNL     1       1.961   5.698  17.195  0.00  0.00    +0.000 HD
ENDBRANCH  12  14
ENDBRANCH   2  12
BRANCH   2  16
ATOM     16  C   UNL     1       2.731   2.927  20.539  0.00  0.00    +0.000 C 
ATOM     17  O   UNL     1       3.483   2.386  21.377  0.00  0.00    +0.000 OA
BRANCH  16  18
ATOM     18  C   UNL     1       1.231   3.157  20.736  0.00  0.00    +0.000 C 
ATOM     19  F   UNL     1       0.440   2.660  19.753  0.00  0.00    +0.000 F 
ATOM     20  F   UNL     1       0.785   2.574  21.883  0.00  0.00    +0.000 F 
ATOM     21  F   UNL     1       0.930   4.475  20.849  0.00  0.00    +0.000 F 
ENDBRANCH  16  18
ENDBRANCH   2  16
TORSDOF 6
ENDMDL
MODEL 8
REMARK VINA RESULT:      -7.5      4.149      6.390
REMARK  Name = 
REMARK  7 active torsions:
REMARK  status: ('A' for Active; 'I' for Inactive)
REMARK    1  A    between atoms: C_1  and  C_2
REMARK    2  A    between atoms: C_5  and  N_6
REMARK    3  A    between atoms: N_6  and  N_7
REMARK    4  A    between atoms: C_8  and  C_9
REMARK    5  A    between atoms: C_8  and  C_12
REMARK    6  A    between atoms: C_9  and  O_11
REMARK    7  A    between atoms: C_12  and  C_14
REMARK                            x       y       z     vdW  Elec       q    Type
REMARK                         _______ _______ _______ _____ _____    ______ ____
ROOT
ATOM      1  N   UNL     1       5.405   5.995  16.466  0.00  0.00    +0.000 NA
ATOM      2  C   UNL     1       6.566   5.407  16.376  0.00  0.00    +0.000 C 
ENDROOT
BRANCH   1   3
ATOM      3  N   UNL     1       4.857   6.349  17.670  0.00  0.00    +0.000 N 
ATOM      4  H   UNL     1       4.820   7.327  17.985  0.00  0.00    +0.000 HD
BRANCH   3   9
ATOM      5  C   UNL     1       0.730   3.294  20.268  0.00  0.00    +0.000 C 
ATOM      6  C   UNL     1       1.796   4.091  19.580  0.00  0.00    +0.000 A 
ATOM      7  C   UNL     1       2.496   5.088  20.261  0.00  0.00    +0.000 A 
ATOM      8  C   UNL     1       3.486   5.825  19.600  0.00  0.00    +0.000 A 
ATOM      9  C   UNL     1       3.819   5.578  18.257  0.00  0.00    +0.000 A 
ATOM     10  C   UNL     1       3.117   4.575  17.583  0.00  0.00    +0.000 A 
ATOM     11  C   UNL     1       2.103   3.846  18.234  0.00  0.00    +0.000 A 
ENDBRANCH   3   9
ENDBRANCH   1   3
BRANCH   2  12
ATOM     12  C   UNL     1       7.488   5.169  17.586  0.00  0.00    +0.000 C 
ATOM     13  O   UNL     1       7.606   6.029  18.434  0.00  0.00    +0.000 OA
BRANCH  12  14
ATOM     14  O   UNL     1       8.192   4.022  17.706  0.00  0.00    +0.000 OA
ATOM     15  H   UNL     1       7.952   3.186  17.251  0.00  0.00    +0.000 HD
ENDBRANCH  12  14
ENDBRANCH   2  12
BRANCH   2  16
ATOM     16  C   UNL     1       6.947   5.036  14.976  0.00  0.00    +0.000 C 
ATOM     17  O   UNL     1       7.920   5.645  14.482  0.00  0.00    +0.000 OA
BRANCH  16  18
ATOM     18  C   UNL     1       6.148   3.945  14.259  0.00  0.00    +0.000 C 
ATOM     19  F   UNL     1       6.762   3.397  13.181  0.00  0.00    +0.000 F 
ATOM     20  F   UNL     1       5.881   2.898  15.089  0.00  0.00    +0.000 F 
ATOM     21  F   UNL     1       4.942   4.397  13.832  0.00  0.00    +0.000 F 
ENDBRANCH  16  18
ENDBRANCH   2  16
TORSDOF 6
ENDMDL
MODEL 9
REMARK VINA RESULT:      -7.4      1.389      1.984
REMARK  Name = 
REMARK  7 active torsions:
REMARK  status: ('A' for Active; 'I' for Inactive)
REMARK    1  A    between atoms: C_1  and  C_2
REMARK    2  A    between atoms: C_5  and  N_6
REMARK    3  A    between atoms: N_6  and  N_7
REMARK    4  A    between atoms: C_8  and  C_9
REMARK    5  A    between atoms: C_8  and  C_12
REMARK    6  A    between atoms: C_9  and  O_11
REMARK    7  A    between atoms: C_12  and  C_14
REMARK                            x       y       z     vdW  Elec       q    Type
REMARK                         _______ _______ _______ _____ _____    ______ ____
ROOT
ATOM      1  N   UNL     1       4.078   3.751  19.486  0.00  0.00    +0.000 NA
ATOM      2  C   UNL     1       3.116   2.912  19.216  0.00  0.00    +0.000 C 
ENDROOT
BRANCH   1   3
ATOM      3  N   UNL     1       5.289   3.702  18.848  0.00  0.00    +0.000 N 
ATOM      4  H   UNL     1       5.526   2.953  18.185  0.00  0.00    +0.000 HD
BRANCH   3   9
ATOM      5  C   UNL     1       8.115   8.532  17.506  0.00  0.00    +0.000 C 
ATOM      6  C   UNL     1       7.381   7.276  17.869  0.00  0.00    +0.000 A 
ATOM      7  C   UNL     1       6.175   6.948  17.250  0.00  0.00    +0.000 A 
ATOM      8  C   UNL     1       5.502   5.773  17.606  0.00  0.00    +0.000 A 
ATOM      9  C   UNL     1       6.018   4.888  18.568  0.00  0.00    +0.000 A 
ATOM     10  C   UNL     1       7.229   5.221  19.181  0.00  0.00    +0.000 A 
ATOM     11  C   UNL     1       7.899   6.414  18.846  0.00  0.00    +0.000 A 
ENDBRANCH   3   9
ENDBRANCH   1   3
BRANCH   2  12
ATOM     12  C   UNL     1       3.192   1.878  18.078  0.00  0.00    +0.000 C 
ATOM     13  O   UNL     1       2.499   2.014  17.091  0.00  0.00    +0.000 OA
BRANCH  12  14
ATOM     14  O   UNL     1       4.001   0.801  18.173  0.00  0.00    +0.000 OA
ATOM     15  H   UNL     1       4.256   0.242  17.407  0.00  0.00    +0.000 HD
ENDBRANCH  12  14
ENDBRANCH   2  12
BRANCH   2  16
ATOM     16  C   UNL     1       1.904   3.088  20.079  0.00  0.00    +0.000 C 
ATOM     17  O   UNL     1       0.825   3.305  19.488  0.00  0.00    +0.000 OA
BRANCH  16  18
ATOM     18  C   UNL     1       2.058   2.975  21.597  0.00  0.00    +0.000 C 
ATOM     19  F   UNL     1       0.967   2.508  22.253  0.00  0.00    +0.000 F 
ATOM     20  F   UNL     1       3.067   2.124  21.933  0.00  0.00    +0.000 F 
ATOM     21  F   UNL     1       2.373   4.166  22.165  0.00  0.00    +0.000 F 
ENDBRANCH  16  18
ENDBRANCH   2  16
TORSDOF 6
ENDMDL
