MODEL 1
REMARK VINA RESULT:      -7.3      0.000      0.000
REMARK  Name = 
REMARK  3 active torsions:
REMARK  status: ('A' for Active; 'I' for Inactive)
REMARK    1  A    between atoms: C_1  and  O_2
REMARK    2  A    between atoms: O_2  and  C_3
REMARK    3  A    between atoms: C_8  and  N_9
REMARK                            x       y       z     vdW  Elec       q    Type
REMARK                         _______ _______ _______ _____ _____    ______ ____
ROOT
ATOM      1  N   UNL     1       3.842   5.063  18.227  0.00  0.00    +0.000 N 
ATOM      2  C   UNL     1       3.416   6.317  18.628  0.00  0.00    +0.000 A 
ATOM      3  N   UNL     1       2.511   6.290  19.574  0.00  0.00    +0.000 NA
ATOM      4  C   UNL     1       2.221   4.969  19.729  0.00  0.00    +0.000 A 
ATOM      5  C   UNL     1       1.284   4.397  20.604  0.00  0.00    +0.000 A 
ATOM      6  C   UNL     1       1.057   3.023  20.558  0.00  0.00    +0.000 A 
ATOM      7  C   UNL     1       1.790   2.224  19.684  0.00  0.00    +0.000 A 
ATOM      8  C   UNL     1       2.782   2.768  18.849  0.00  0.00    +0.000 A 
ATOM      9  C   UNL     1       2.975   4.165  18.863  0.00  0.00    +0.000 A 
ENDROOT
BRANCH   1  15
ATOM     10  C   UNL     1       6.267   4.744  17.798  0.00  0.00    +0.000 A 
ATOM     11  C   UNL     1       7.326   4.572  16.894  0.00  0.00    +0.000 A 
ATOM     12  C   UNL     1       7.077   4.408  15.535  0.00  0.00    +0.000 A 
ATOM     13  C   UNL     1       5.770   4.447  15.065  0.00  0.00    +0.000 A 
ATOM     14  C   UNL     1       4.707   4.667  15.950  0.00  0.00    +0.000 A 
ATOM     15  C   UNL     1       4.935   4.826  17.325  0.00  0.00    +0.000 A 
BRANCH  10  17
ATOM     16  C   UNL     1       7.577   5.682  19.533  0.00  0.00    +0.000 C 
ATOM     17  O   UNL     1       6.507   4.823  19.146  0.00  0.00    +0.000 OA
ENDBRANCH  10  17
ENDBRANCH   1  15
TORSDOF 2
ENDMDL
MODEL 2
REMARK VINA RESULT:      -7.3      1.177      2.053
REMARK  Name = 
REMARK  3 active torsions:
REMARK  status: ('A' for Active; 'I' for Inactive)
REMARK    1  A    between atoms: C_1  and  O_2
REMARK    2  A    between atoms: O_2  and  C_3
REMARK    3  A    between atoms: C_8  and  N_9
REMARK                            x       y       z     vdW  Elec       q    Type
REMARK                         _______ _______ _______ _____ _____    ______ ____
ROOT
ATOM      1  N   UNL     1       4.033   3.446  17.871  0.00  0.00    +0.000 N 
ATOM      2  C   UNL     1       3.674   2.113  17.970  0.00  0.00    +0.000 A 
ATOM      3  N   UNL     1       2.614   1.906  18.710  0.00  0.00    +0.000 NA
ATOM      4  C   UNL     1       2.321   3.128  19.234  0.00  0.00    +0.000 A 
ATOM      5  C   UNL     1       1.285   3.448  20.127  0.00  0.00    +0.000 A 
ATOM      6  C   UNL     1       1.195   4.744  20.630  0.00  0.00    +0.000 A 
ATOM      7  C   UNL     1       2.098   5.718  20.213  0.00  0.00    +0.000 A 
ATOM      8  C   UNL     1       3.099   5.435  19.267  0.00  0.00    +0.000 A 
ATOM      9  C   UNL     1       3.218   4.111  18.796  0.00  0.00    +0.000 A 
ENDROOT
BRANCH   1  15
ATOM     10  C   UNL     1       6.269   4.463  17.510  0.00  0.00    +0.000 A 
ATOM     11  C   UNL     1       7.229   5.005  16.642  0.00  0.00    +0.000 A 
ATOM     12  C   UNL     1       7.032   4.981  15.265  0.00  0.00    +0.000 A 
ATOM     13  C   UNL     1       5.860   4.443  14.746  0.00  0.00    +0.000 A 
ATOM     14  C   UNL     1       4.872   3.943  15.604  0.00  0.00    +0.000 A 
ATOM     15  C   UNL     1       5.055   3.950  16.995  0.00  0.00    +0.000 A 
BRANCH  10  17
ATOM     16  C   UNL     1       7.154   5.550  19.418  0.00  0.00    +0.000 C 
ATOM     17  O   UNL     1       6.501   4.412  18.860  0.00  0.00    +0.000 OA
ENDBRANCH  10  17
ENDBRANCH   1  15
TORSDOF 2
ENDMDL
MODEL 3
REMARK VINA RESULT:      -7.2      1.522      5.308
REMARK  Name = 
REMARK  3 active torsions:
REMARK  status: ('A' for Active; 'I' for Inactive)
REMARK    1  A    between atoms: C_1  and  O_2
REMARK    2  A    between atoms: O_2  and  C_3
REMARK    3  A    between atoms: C_8  and  N_9
REMARK                            x       y       z     vdW  Elec       q    Type
REMARK                         _______ _______ _______ _____ _____    ______ ____
ROOT
ATOM      1  N   UNL     1       5.056   4.859  18.721  0.00  0.00    +0.000 N 
ATOM      2  C   UNL     1       6.233   5.256  19.333  0.00  0.00    +0.000 A 
ATOM      3  N   UNL     1       7.203   5.515  18.493  0.00  0.00    +0.000 NA
ATOM      4  C   UNL     1       6.706   5.157  17.278  0.00  0.00    +0.000 A 
ATOM      5  C   UNL     1       7.362   5.207  16.038  0.00  0.00    +0.000 A 
ATOM      6  C   UNL     1       6.721   4.710  14.905  0.00  0.00    +0.000 A 
ATOM      7  C   UNL     1       5.424   4.212  15.001  0.00  0.00    +0.000 A 
ATOM      8  C   UNL     1       4.724   4.217  16.220  0.00  0.00    +0.000 A 
ATOM      9  C   UNL     1       5.393   4.675  17.373  0.00  0.00    +0.000 A 
ENDROOT
BRANCH   1  15
ATOM     10  C   UNL     1       3.344   3.378  19.741  0.00  0.00    +0.000 A 
ATOM     11  C   UNL     1       2.093   3.214  20.355  0.00  0.00    +0.000 A 
ATOM     12  C   UNL     1       1.326   4.321  20.705  0.00  0.00    +0.000 A 
ATOM     13  C   UNL     1       1.789   5.599  20.416  0.00  0.00    +0.000 A 
ATOM     14  C   UNL     1       3.014   5.775  19.759  0.00  0.00    +0.000 A 
ATOM     15  C   UNL     1       3.807   4.673  19.405  0.00  0.00    +0.000 A 
BRANCH  10  17
ATOM     16  C   UNL     1       3.645   1.404  18.468  0.00  0.00    +0.000 C 
ATOM     17  O   UNL     1       4.135   2.291  19.471  0.00  0.00    +0.000 OA
ENDBRANCH  10  17
ENDBRANCH   1  15
TORSDOF 2
ENDMDL
MODEL 4
REMARK VINA RESULT:      -7.1      1.889      2.970
REMARK  Name = 
REMARK  3 active torsions:
REMARK  status: ('A' for Active; 'I' for Inactive)
REMARK    1  A    between atoms: C_1  and  O_2
REMARK    2  A    between atoms: O_2  and  C_3
REMARK    3  A    between atoms: C_8  and  N_9
REMARK                            x       y       z     vdW  Elec       q    Type
REMARK                         _______ _______ _______ _____ _____    ______ ____
ROOT
ATOM      1  N   UNL     1       4.302   4.427  18.126  0.00  0.00    +0.000 N 
ATOM      2  C   UNL     1       4.056   3.445  17.182  0.00  0.00    +0.000 A 
ATOM      3  N   UNL     1       2.881   2.879  17.303  0.00  0.00    +0.000 NA
ATOM      4  C   UNL     1       2.365   3.408  18.446  0.00  0.00    +0.000 A 
ATOM      5  C   UNL     1       1.130   3.109  19.044  0.00  0.00    +0.000 A 
ATOM      6  C   UNL     1       0.809   3.686  20.271  0.00  0.00    +0.000 A 
ATOM      7  C   UNL     1       1.687   4.585  20.870  0.00  0.00    +0.000 A 
ATOM      8  C   UNL     1       2.897   4.951  20.254  0.00  0.00    +0.000 A 
ATOM      9  C   UNL     1       3.242   4.329  19.037  0.00  0.00    +0.000 A 
ENDROOT
BRANCH   1  15
ATOM     10  C   UNL     1       5.413   6.528  17.408  0.00  0.00    +0.000 A 
ATOM     11  C   UNL     1       6.557   7.339  17.356  0.00  0.00    +0.000 A 
ATOM     12  C   UNL     1       7.708   6.983  18.052  0.00  0.00    +0.000 A 
ATOM     13  C   UNL     1       7.735   5.799  18.779  0.00  0.00    +0.000 A 
ATOM     14  C   UNL     1       6.616   4.956  18.799  0.00  0.00    +0.000 A 
ATOM     15  C   UNL     1       5.443   5.301  18.111  0.00  0.00    +0.000 A 
BRANCH  10  17
ATOM     16  C   UNL     1       3.375   7.722  17.576  0.00  0.00    +0.000 C 
ATOM     17  O   UNL     1       4.253   6.920  16.790  0.00  0.00    +0.000 OA
ENDBRANCH  10  17
ENDBRANCH   1  15
TORSDOF 2
ENDMDL
MODEL 5
REMARK VINA RESULT:      -7.0      1.475      5.294
REMARK  Name = 
REMARK  3 active torsions:
REMARK  status: ('A' for Active; 'I' for Inactive)
REMARK    1  A    between atoms: C_1  and  O_2
REMARK    2  A    between atoms: O_2  and  C_3
REMARK    3  A    between atoms: C_8  and  N_9
REMARK                            x       y       z     vdW  Elec       q    Type
REMARK                         _______ _______ _______ _____ _____    ______ ____
ROOT
ATOM      1  N   UNL     1       4.911   4.421  18.794  0.00  0.00    +0.000 N 
ATOM      2  C   UNL     1       6.067   4.741  19.484  0.00  0.00    +0.000 A 
ATOM      3  N   UNL     1       7.065   5.086  18.710  0.00  0.00    +0.000 NA
ATOM      4  C   UNL     1       6.607   4.870  17.447  0.00  0.00    +0.000 A 
ATOM      5  C   UNL     1       7.303   5.056  16.242  0.00  0.00    +0.000 A 
ATOM      6  C   UNL     1       6.697   4.692  15.041  0.00  0.00    +0.000 A 
ATOM      7  C   UNL     1       5.397   4.195  15.039  0.00  0.00    +0.000 A 
ATOM      8  C   UNL     1       4.658   4.067  16.228  0.00  0.00    +0.000 A 
ATOM      9  C   UNL     1       5.290   4.389  17.446  0.00  0.00    +0.000 A 
ENDROOT
BRANCH   1  15
ATOM     10  C   UNL     1       2.775   5.230  19.768  0.00  0.00    +0.000 A 
ATOM     11  C   UNL     1       1.564   4.964  20.425  0.00  0.00    +0.000 A 
ATOM     12  C   UNL     1       1.166   3.655  20.672  0.00  0.00    +0.000 A 
ATOM     13  C   UNL     1       1.989   2.601  20.291  0.00  0.00    +0.000 A 
ATOM     14  C   UNL     1       3.223   2.854  19.678  0.00  0.00    +0.000 A 
ATOM     15  C   UNL     1       3.639   4.167  19.413  0.00  0.00    +0.000 A 
BRANCH  10  17
ATOM     16  C   UNL     1       2.534   7.047  18.268  0.00  0.00    +0.000 C 
ATOM     17  O   UNL     1       3.128   6.517  19.451  0.00  0.00    +0.000 OA
ENDBRANCH  10  17
ENDBRANCH   1  15
TORSDOF 2
ENDMDL
MODEL 6
REMARK VINA RESULT:      -6.9      1.643      3.017
REMARK  Name = 
REMARK  3 active torsions:
REMARK  status: ('A' for Active; 'I' for Inactive)
REMARK    1  A    between atoms: C_1  and  O_2
REMARK    2  A    between atoms: O_2  and  C_3
REMARK    3  A    between atoms: C_8  and  N_9
REMARK                            x       y       z     vdW  Elec       q    Type
REMARK                         _______ _______ _______ _____ _____    ______ ____
ROOT
ATOM      1  N   UNL     1       4.433   4.208  18.318  0.00  0.00    +0.000 N 
ATOM      2  C   UNL     1       4.264   3.108  17.494  0.00  0.00    +0.000 A 
ATOM      3  N   UNL     1       3.074   2.568  17.572  0.00  0.00    +0.000 NA
ATOM      4  C   UNL     1       2.458   3.247  18.578  0.00  0.00    +0.000 A 
ATOM      5  C   UNL     1       1.166   3.035  19.085  0.00  0.00    +0.000 A 
ATOM      6  C   UNL     1       0.735   3.773  20.186  0.00  0.00    +0.000 A 
ATOM      7  C   UNL     1       1.566   4.742  20.743  0.00  0.00    +0.000 A 
ATOM      8  C   UNL     1       2.836   5.018  20.207  0.00  0.00    +0.000 A 
ATOM      9  C   UNL     1       3.287   4.236  19.124  0.00  0.00    +0.000 A 
ENDROOT
BRANCH   1  15
ATOM     10  C   UNL     1       5.847   5.911  17.194  0.00  0.00    +0.000 A 
ATOM     11  C   UNL     1       7.008   6.699  17.170  0.00  0.00    +0.000 A 
ATOM     12  C   UNL     1       7.875   6.716  18.258  0.00  0.00    +0.000 A 
ATOM     13  C   UNL     1       7.605   5.921  19.366  0.00  0.00    +0.000 A 
ATOM     14  C   UNL     1       6.475   5.093  19.382  0.00  0.00    +0.000 A 
ATOM     15  C   UNL     1       5.584   5.068  18.300  0.00  0.00    +0.000 A 
BRANCH  10  17
ATOM     16  C   UNL     1       5.449   5.527  14.892  0.00  0.00    +0.000 C 
ATOM     17  O   UNL     1       4.951   5.958  16.156  0.00  0.00    +0.000 OA
ENDBRANCH  10  17
ENDBRANCH   1  15
TORSDOF 2
ENDMDL
MODEL 7
REMARK VINA RESULT:      -6.7      1.980      5.351
REMARK  Name = 
REMARK  3 active torsions:
REMARK  status: ('A' for Active; 'I' for Inactive)
REMARK    1  A    between atoms: C_1  and  O_2
REMARK    2  A    between atoms: O_2  and  C_3
REMARK    3  A    between atoms: C_8  and  N_9
REMARK                            x       y       z     vdW  Elec       q    Type
REMARK                         _______ _______ _______ _____ _____    ______ ____
ROOT
ATOM      1  N   UNL     1       3.402   5.579  18.791  0.00  0.00    +0.000 N 
ATOM      2  C   UNL     1       2.894   6.761  18.279  0.00  0.00    +0.000 A 
ATOM      3  N   UNL     1       3.734   7.407  17.511  0.00  0.00    +0.000 NA
ATOM      4  C   UNL     1       4.895   6.703  17.609  0.00  0.00    +0.000 A 
ATOM      5  C   UNL     1       6.125   6.996  16.998  0.00  0.00    +0.000 A 
ATOM      6  C   UNL     1       7.236   6.207  17.289  0.00  0.00    +0.000 A 
ATOM      7  C   UNL     1       7.110   5.114  18.142  0.00  0.00    +0.000 A 
ATOM      8  C   UNL     1       5.873   4.763  18.709  0.00  0.00    +0.000 A 
ATOM      9  C   UNL     1       4.761   5.591  18.452  0.00  0.00    +0.000 A 
ENDROOT
BRANCH   1  15
ATOM     10  C   UNL     1       1.796   3.687  18.860  0.00  0.00    +0.000 A 
ATOM     11  C   UNL     1       1.006   2.793  19.598  0.00  0.00    +0.000 A 
ATOM     12  C   UNL     1       1.088   2.757  20.987  0.00  0.00    +0.000 A 
ATOM     13  C   UNL     1       1.936   3.636  21.650  0.00  0.00    +0.000 A 
ATOM     14  C   UNL     1       2.693   4.568  20.927  0.00  0.00    +0.000 A 
ATOM     15  C   UNL     1       2.632   4.614  19.526  0.00  0.00    +0.000 A 
BRANCH  10  17
ATOM     16  C   UNL     1       2.761   2.841  16.870  0.00  0.00    +0.000 C 
ATOM     17  O   UNL     1       1.776   3.666  17.489  0.00  0.00    +0.000 OA
ENDBRANCH  10  17
ENDBRANCH   1  15
TORSDOF 2
ENDMDL
MODEL 8
REMARK VINA RESULT:      -6.6      1.801      5.372
REMARK  Name = 
REMARK  3 active torsions:
REMARK  status: ('A' for Active; 'I' for Inactive)
REMARK    1  A    between atoms: C_1  and  O_2
REMARK    2  A    between atoms: O_2  and  C_3
REMARK    3  A    between atoms: C_8  and  N_9
REMARK                            x       y       z     vdW  Elec       q    Type
REMARK                         _______ _______ _______ _____ _____    ______ ____
ROOT
ATOM      1  N   UNL     1       4.847   4.025  17.801  0.00  0.00    +0.000 N 
ATOM      2  C   UNL     1       5.839   4.423  18.680  0.00  0.00    +0.000 A 
ATOM      3  N   UNL     1       6.882   4.954  18.093  0.00  0.00    +0.000 NA
ATOM      4  C   UNL     1       6.642   4.794  16.762  0.00  0.00    +0.000 A 
ATOM      5  C   UNL     1       7.472   5.167  15.693  0.00  0.00    +0.000 A 
ATOM      6  C   UNL     1       7.098   4.837  14.392  0.00  0.00    +0.000 A 
ATOM      7  C   UNL     1       5.890   4.186  14.158  0.00  0.00    +0.000 A 
ATOM      8  C   UNL     1       5.013   3.866  15.208  0.00  0.00    +0.000 A 
ATOM      9  C   UNL     1       5.415   4.156  16.528  0.00  0.00    +0.000 A 
ENDROOT
BRANCH   1  15
ATOM     10  C   UNL     1       2.479   4.473  18.400  0.00  0.00    +0.000 A 
ATOM     11  C   UNL     1       1.232   4.009  18.847  0.00  0.00    +0.000 A 
ATOM     12  C   UNL     1       1.008   2.648  19.030  0.00  0.00    +0.000 A 
ATOM     13  C   UNL     1       2.037   1.743  18.798  0.00  0.00    +0.000 A 
ATOM     14  C   UNL     1       3.301   2.197  18.399  0.00  0.00    +0.000 A 
ATOM     15  C   UNL     1       3.545   3.564  18.200  0.00  0.00    +0.000 A 
BRANCH  10  17
ATOM     16  C   UNL     1       2.572   6.674  19.266  0.00  0.00    +0.000 C 
ATOM     17  O   UNL     1       2.674   5.805  18.140  0.00  0.00    +0.000 OA
ENDBRANCH  10  17
ENDBRANCH   1  15
TORSDOF 2
ENDMDL
MODEL 9
REMARK VINA RESULT:      -6.6      1.979      5.085
REMARK  Name = 
REMARK  3 active torsions:
REMARK  status: ('A' for Active; 'I' for Inactive)
REMARK    1  A    between atoms: C_1  and  O_2
REMARK    2  A    between atoms: O_2  and  C_3
REMARK    3  A    between atoms: C_8  and  N_9
REMARK                            x       y       z     vdW  Elec       q    Type
REMARK                         _______ _______ _______ _____ _____    ______ ____
ROOT
ATOM      1  N   UNL     1       4.402   5.437  17.646  0.00  0.00    +0.000 N 
ATOM      2  C   UNL     1       4.273   6.319  16.586  0.00  0.00    +0.000 A 
ATOM      3  N   UNL     1       5.365   6.992  16.325  0.00  0.00    +0.000 NA
ATOM      4  C   UNL     1       6.225   6.647  17.322  0.00  0.00    +0.000 A 
ATOM      5  C   UNL     1       7.532   7.118  17.524  0.00  0.00    +0.000 A 
ATOM      6  C   UNL     1       8.233   6.719  18.661  0.00  0.00    +0.000 A 
ATOM      7  C   UNL     1       7.655   5.825  19.558  0.00  0.00    +0.000 A 
ATOM      8  C   UNL     1       6.375   5.289  19.338  0.00  0.00    +0.000 A 
ATOM      9  C   UNL     1       5.649   5.732  18.214  0.00  0.00    +0.000 A 
ENDROOT
BRANCH   1  15
ATOM     10  C   UNL     1       2.525   4.725  19.106  0.00  0.00    +0.000 A 
ATOM     11  C   UNL     1       1.599   3.747  19.501  0.00  0.00    +0.000 A 
ATOM     12  C   UNL     1       1.488   2.553  18.797  0.00  0.00    +0.000 A 
ATOM     13  C   UNL     1       2.321   2.313  17.711  0.00  0.00    +0.000 A 
ATOM     14  C   UNL     1       3.283   3.260  17.336  0.00  0.00    +0.000 A 
ATOM     15  C   UNL     1       3.406   4.474  18.028  0.00  0.00    +0.000 A 
BRANCH  10  17
ATOM     16  C   UNL     1       1.573   6.153  20.738  0.00  0.00    +0.000 C 
ATOM     17  O   UNL     1       2.578   5.935  19.750  0.00  0.00    +0.000 OA
ENDBRANCH  10  17
ENDBRANCH   1  15
TORSDOF 2
ENDMDL
