MODEL 1
REMARK VINA RESULT:      -8.1      0.000      0.000
REMARK  Name = 
REMARK  5 active torsions:
REMARK  status: ('A' for Active; 'I' for Inactive)
REMARK    1  A    between atoms: C_2  and  C_24
REMARK    2  A    between atoms: N_3  and  C_4
REMARK    3  A    between atoms: C_4  and  C_5
REMARK    4  A    between atoms: C_4  and  C_12
REMARK    5  A    between atoms: C_5  and  C_6
REMARK                            x       y       z     vdW  Elec       q    Type
REMARK                         _______ _______ _______ _____ _____    ______ ____
ROOT
ATOM      1  C   UNL     1       3.197   7.688  18.125  0.00  0.00    +0.000 C 
ENDROOT
BRANCH   1   2
ATOM      2  C   UNL     1       1.981   8.655  18.101  0.00  0.00    +0.000 C 
ATOM      3  O   UNL     1       1.335   8.728  17.041  0.00  0.00    +0.000 OA
ATOM      4  N   UNL     1       1.586   9.437  19.183  0.00  0.00    +0.000 N 
ATOM      5  C   UNL     1       0.611  10.483  18.848  0.00  0.00    +0.000 C 
ATOM      6  C   UNL     1       0.701  11.666  19.804  0.00  0.00    +0.000 C 
ATOM      7  C   UNL     1       0.241  11.138  21.132  0.00  0.00    +0.000 A 
ATOM      8  C   UNL     1      -0.721  11.835  21.876  0.00  0.00    +0.000 A 
ATOM      9  C   UNL     1      -1.292  11.232  22.988  0.00  0.00    +0.000 A 
ATOM     10  C   UNL     1      -0.877   9.957  23.370  0.00  0.00    +0.000 A 
ATOM     11  C   UNL     1       0.126   9.282  22.653  0.00  0.00    +0.000 A 
ATOM     12  C   UNL     1       0.696   9.858  21.509  0.00  0.00    +0.000 A 
ATOM     13  C   UNL     1       1.767   9.164  20.637  0.00  0.00    +0.000 C 
ENDBRANCH   1   2
BRANCH   1  16
ATOM     14  O   UNL     1       4.543   5.629  19.718  0.00  0.00    +0.000 OA
ATOM     15  C   UNL     1       3.350   5.536  19.479  0.00  0.00    +0.000 C 
ATOM     16  N   UNL     1       2.660   6.427  18.701  0.00  0.00    +0.000 N 
ATOM     17  H   UNL     1       1.642   6.369  18.663  0.00  0.00    +0.000 HD
BRANCH  15  18
ATOM     18  C   UNL     1       2.535   4.442  20.080  0.00  0.00    +0.000 A 
ATOM     19  C   UNL     1       1.473   3.818  19.422  0.00  0.00    +0.000 A 
ATOM     20  C   UNL     1       0.701   2.870  20.101  0.00  0.00    +0.000 A 
ATOM     21  C   UNL     1       1.026   2.569  21.413  0.00  0.00    +0.000 A 
ATOM     22  N   UNL     1       2.076   3.119  22.066  0.00  0.00    +0.000 NA
ATOM     23  C   UNL     1       2.812   4.033  21.380  0.00  0.00    +0.000 A 
ENDBRANCH  15  18
ENDBRANCH   1  16
BRANCH   1  24
ATOM     24  C   UNL     1       3.882   7.465  16.766  0.00  0.00    +0.000 C 
BRANCH  24  25
ATOM     25  C   UNL     1       5.104   6.563  16.666  0.00  0.00    +0.000 A 
ATOM     26  C   UNL     1       6.327   6.961  17.214  0.00  0.00    +0.000 A 
ATOM     27  C   UNL     1       7.392   6.054  17.308  0.00  0.00    +0.000 A 
ATOM     28  C   UNL     1       7.251   4.748  16.845  0.00  0.00    +0.000 A 
ATOM     29  C   UNL     1       6.056   4.354  16.252  0.00  0.00    +0.000 A 
ATOM     30  C   UNL     1       4.991   5.257  16.159  0.00  0.00    +0.000 A 
ENDBRANCH  24  25
ENDBRANCH   1  24
TORSDOF 5
ENDMDL
MODEL 2
REMARK VINA RESULT:      -8.0      0.829      1.066
REMARK  Name = 
REMARK  5 active torsions:
REMARK  status: ('A' for Active; 'I' for Inactive)
REMARK    1  A    between atoms: C_2  and  C_24
REMARK    2  A    between atoms: N_3  and  C_4
REMARK    3  A    between atoms: C_4  and  C_5
REMARK    4  A    between atoms: C_4  and  C_12
REMARK    5  A    between atoms: C_5  and  C_6
REMARK                            x       y       z     vdW  Elec       q    Type
REMARK                         _______ _______ _______ _____ _____    ______ ____
ROOT
ATOM      1  C   UNL     1       3.258   7.751  18.111  0.00  0.00    +0.000 C 
ENDROOT
BRANCH   1   2
ATOM      2  C   UNL     1       2.078   8.763  18.090  0.00  0.00    +0.000 C 
ATOM      3  O   UNL     1       1.471   8.904  17.015  0.00  0.00    +0.000 OA
ATOM      4  N   UNL     1       1.675   9.512  19.192  0.00  0.00    +0.000 N 
ATOM      5  C   UNL     1       0.749  10.606  18.872  0.00  0.00    +0.000 C 
ATOM      6  C   UNL     1       0.849  11.744  19.881  0.00  0.00    +0.000 C 
ATOM      7  C   UNL     1       0.326  11.178  21.168  0.00  0.00    +0.000 A 
ATOM      8  C   UNL     1      -0.636  11.877  21.911  0.00  0.00    +0.000 A 
ATOM      9  C   UNL     1      -1.265  11.249  22.977  0.00  0.00    +0.000 A 
ATOM     10  C   UNL     1      -0.909   9.944  23.316  0.00  0.00    +0.000 A 
ATOM     11  C   UNL     1       0.093   9.265  22.603  0.00  0.00    +0.000 A 
ATOM     12  C   UNL     1       0.722   9.866  21.504  0.00  0.00    +0.000 A 
ATOM     13  C   UNL     1       1.797   9.172  20.637  0.00  0.00    +0.000 C 
ENDBRANCH   1   2
BRANCH   1  16
ATOM     14  O   UNL     1       4.223   5.494  19.713  0.00  0.00    +0.000 OA
ATOM     15  C   UNL     1       3.120   5.448  19.192  0.00  0.00    +0.000 C 
ATOM     16  N   UNL     1       2.618   6.438  18.388  0.00  0.00    +0.000 N 
ATOM     17  H   UNL     1       1.639   6.400  18.105  0.00  0.00    +0.000 HD
BRANCH  15  18
ATOM     18  C   UNL     1       2.202   4.302  19.447  0.00  0.00    +0.000 A 
ATOM     19  C   UNL     1       1.886   3.834  20.724  0.00  0.00    +0.000 A 
ATOM     20  C   UNL     1       1.095   2.690  20.864  0.00  0.00    +0.000 A 
ATOM     21  C   UNL     1       0.634   2.059  19.719  0.00  0.00    +0.000 A 
ATOM     22  N   UNL     1       0.882   2.512  18.469  0.00  0.00    +0.000 NA
ATOM     23  C   UNL     1       1.650   3.629  18.363  0.00  0.00    +0.000 A 
ENDBRANCH  15  18
ENDBRANCH   1  16
BRANCH   1  24
ATOM     24  C   UNL     1       4.120   7.726  16.838  0.00  0.00    +0.000 C 
BRANCH  24  25
ATOM     25  C   UNL     1       5.255   6.721  16.704  0.00  0.00    +0.000 A 
ATOM     26  C   UNL     1       6.427   6.869  17.452  0.00  0.00    +0.000 A 
ATOM     27  C   UNL     1       7.381   5.841  17.488  0.00  0.00    +0.000 A 
ATOM     28  C   UNL     1       7.180   4.665  16.771  0.00  0.00    +0.000 A 
ATOM     29  C   UNL     1       6.042   4.524  15.984  0.00  0.00    +0.000 A 
ATOM     30  C   UNL     1       5.088   5.548  15.947  0.00  0.00    +0.000 A 
ENDBRANCH  24  25
ENDBRANCH   1  24
TORSDOF 5
ENDMDL
MODEL 3
REMARK VINA RESULT:      -7.9      3.600      6.894
REMARK  Name = 
REMARK  5 active torsions:
REMARK  status: ('A' for Active; 'I' for Inactive)
REMARK    1  A    between atoms: C_2  and  C_24
REMARK    2  A    between atoms: N_3  and  C_4
REMARK    3  A    between atoms: C_4  and  C_5
REMARK    4  A    between atoms: C_4  and  C_12
REMARK    5  A    between atoms: C_5  and  C_6
REMARK                            x       y       z     vdW  Elec       q    Type
REMARK                         _______ _______ _______ _____ _____    ______ ____
ROOT
ATOM      1  C   UNL     1       0.262  10.857  19.103  0.00  0.00    +0.000 C 
ENDROOT
BRANCH   1   2
ATOM      2  C   UNL     1       1.048  11.714  20.135  0.00  0.00    +0.000 C 
ATOM      3  O   UNL     1       1.087  11.297  21.305  0.00  0.00    +0.000 OA
ATOM      4  N   UNL     1       1.696  12.907  19.826  0.00  0.00    +0.000 N 
ATOM      5  C   UNL     1       2.113  13.688  20.997  0.00  0.00    +0.000 C 
ATOM      6  C   UNL     1       2.191  15.177  20.683  0.00  0.00    +0.000 C 
ATOM      7  C   UNL     1       3.329  15.319  19.715  0.00  0.00    +0.000 A 
ATOM      8  C   UNL     1       4.323  16.284  19.927  0.00  0.00    +0.000 A 
ATOM      9  C   UNL     1       5.474  16.261  19.152  0.00  0.00    +0.000 A 
ATOM     10  C   UNL     1       5.612  15.300  18.151  0.00  0.00    +0.000 A 
ATOM     11  C   UNL     1       4.591  14.367  17.906  0.00  0.00    +0.000 A 
ATOM     12  C   UNL     1       3.433  14.351  18.695  0.00  0.00    +0.000 A 
ATOM     13  C   UNL     1       2.285  13.329  18.524  0.00  0.00    +0.000 C 
ENDBRANCH   1   2
BRANCH   1  16
ATOM     14  O   UNL     1       2.181   9.687  17.222  0.00  0.00    +0.000 OA
ATOM     15  C   UNL     1       1.861   9.077  18.229  0.00  0.00    +0.000 C 
ATOM     16  N   UNL     1       0.934   9.532  19.130  0.00  0.00    +0.000 N 
ATOM     17  H   UNL     1       0.822   9.041  20.017  0.00  0.00    +0.000 HD
BRANCH  15  18
ATOM     18  C   UNL     1       2.516   7.784  18.578  0.00  0.00    +0.000 A 
ATOM     19  C   UNL     1       3.465   7.154  17.770  0.00  0.00    +0.000 A 
ATOM     20  C   UNL     1       3.951   5.894  18.131  0.00  0.00    +0.000 A 
ATOM     21  C   UNL     1       3.482   5.312  19.297  0.00  0.00    +0.000 A 
ATOM     22  N   UNL     1       2.599   5.914  20.127  0.00  0.00    +0.000 NA
ATOM     23  C   UNL     1       2.146   7.140  19.754  0.00  0.00    +0.000 A 
ENDBRANCH  15  18
ENDBRANCH   1  16
BRANCH   1  24
ATOM     24  C   UNL     1      -1.250  10.753  19.356  0.00  0.00    +0.000 C 
BRANCH  24  25
ATOM     25  C   UNL     1      -2.217  10.657  18.184  0.00  0.00    +0.000 A 
ATOM     26  C   UNL     1      -3.380  11.432  18.158  0.00  0.00    +0.000 A 
ATOM     27  C   UNL     1      -4.160  11.502  16.994  0.00  0.00    +0.000 A 
ATOM     28  C   UNL     1      -3.794  10.791  15.854  0.00  0.00    +0.000 A 
ATOM     29  C   UNL     1      -2.667   9.978  15.883  0.00  0.00    +0.000 A 
ATOM     30  C   UNL     1      -1.886   9.907  17.043  0.00  0.00    +0.000 A 
ENDBRANCH  24  25
ENDBRANCH   1  24
TORSDOF 5
ENDMDL
MODEL 4
REMARK VINA RESULT:      -7.7      0.929      1.307
REMARK  Name = 
REMARK  5 active torsions:
REMARK  status: ('A' for Active; 'I' for Inactive)
REMARK    1  A    between atoms: C_2  and  C_24
REMARK    2  A    between atoms: N_3  and  C_4
REMARK    3  A    between atoms: C_4  and  C_5
REMARK    4  A    between atoms: C_4  and  C_12
REMARK    5  A    between atoms: C_5  and  C_6
REMARK                            x       y       z     vdW  Elec       q    Type
REMARK                         _______ _______ _______ _____ _____    ______ ____
ROOT
ATOM      1  C   UNL     1       3.336   7.605  18.291  0.00  0.00    +0.000 C 
ENDROOT
BRANCH   1   2
ATOM      2  C   UNL     1       2.033   8.446  18.195  0.00  0.00    +0.000 C 
ATOM      3  O   UNL     1       1.371   8.348  17.148  0.00  0.00    +0.000 OA
ATOM      4  N   UNL     1       1.578   9.296  19.199  0.00  0.00    +0.000 N 
ATOM      5  C   UNL     1       0.504  10.205  18.780  0.00  0.00    +0.000 C 
ATOM      6  C   UNL     1       0.492  11.485  19.608  0.00  0.00    +0.000 C 
ATOM      7  C   UNL     1       0.101  11.058  20.992  0.00  0.00    +0.000 A 
ATOM      8  C   UNL     1      -0.915  11.734  21.682  0.00  0.00    +0.000 A 
ATOM      9  C   UNL     1      -1.413  11.200  22.862  0.00  0.00    +0.000 A 
ATOM     10  C   UNL     1      -0.874  10.016  23.364  0.00  0.00    +0.000 A 
ATOM     11  C   UNL     1       0.181   9.368  22.698  0.00  0.00    +0.000 A 
ATOM     12  C   UNL     1       0.679   9.871  21.489  0.00  0.00    +0.000 A 
ATOM     13  C   UNL     1       1.802   9.195  20.669  0.00  0.00    +0.000 C 
ENDBRANCH   1   2
BRANCH   1  16
ATOM     14  O   UNL     1       1.845   5.177  17.605  0.00  0.00    +0.000 OA
ATOM     15  C   UNL     1       2.303   5.317  18.727  0.00  0.00    +0.000 C 
ATOM     16  N   UNL     1       2.967   6.442  19.141  0.00  0.00    +0.000 N 
ATOM     17  H   UNL     1       3.447   6.432  20.041  0.00  0.00    +0.000 HD
BRANCH  15  18
ATOM     18  C   UNL     1       2.212   4.219  19.731  0.00  0.00    +0.000 A 
ATOM     19  C   UNL     1       1.063   3.946  20.476  0.00  0.00    +0.000 A 
ATOM     20  C   UNL     1       1.101   2.960  21.467  0.00  0.00    +0.000 A 
ATOM     21  C   UNL     1       2.286   2.271  21.670  0.00  0.00    +0.000 A 
ATOM     22  N   UNL     1       3.403   2.476  20.935  0.00  0.00    +0.000 NA
ATOM     23  C   UNL     1       3.336   3.438  19.975  0.00  0.00    +0.000 A 
ENDBRANCH  15  18
ENDBRANCH   1  16
BRANCH   1  24
ATOM     24  C   UNL     1       3.940   7.177  16.943  0.00  0.00    +0.000 C 
BRANCH  24  25
ATOM     25  C   UNL     1       5.078   6.168  16.902  0.00  0.00    +0.000 A 
ATOM     26  C   UNL     1       5.067   5.123  15.973  0.00  0.00    +0.000 A 
ATOM     27  C   UNL     1       6.203   4.320  15.794  0.00  0.00    +0.000 A 
ATOM     28  C   UNL     1       7.354   4.545  16.546  0.00  0.00    +0.000 A 
ATOM     29  C   UNL     1       7.361   5.549  17.508  0.00  0.00    +0.000 A 
ATOM     30  C   UNL     1       6.229   6.352  17.689  0.00  0.00    +0.000 A 
ENDBRANCH  24  25
ENDBRANCH   1  24
TORSDOF 5
ENDMDL
MODEL 5
REMARK VINA RESULT:      -7.7      2.082      4.897
REMARK  Name = 
REMARK  5 active torsions:
REMARK  status: ('A' for Active; 'I' for Inactive)
REMARK    1  A    between atoms: C_2  and  C_24
REMARK    2  A    between atoms: N_3  and  C_4
REMARK    3  A    between atoms: C_4  and  C_5
REMARK    4  A    between atoms: C_4  and  C_12
REMARK    5  A    between atoms: C_5  and  C_6
REMARK                            x       y       z     vdW  Elec       q    Type
REMARK                         _______ _______ _______ _____ _____    ______ ____
ROOT
ATOM      1  C   UNL     1       1.939   6.292  19.468  0.00  0.00    +0.000 C 
ENDROOT
BRANCH   1   2
ATOM      2  C   UNL     1       1.624   7.528  20.356  0.00  0.00    +0.000 C 
ATOM      3  O   UNL     1       1.716   7.379  21.587  0.00  0.00    +0.000 OA
ATOM      4  N   UNL     1       1.244   8.770  19.856  0.00  0.00    +0.000 N 
ATOM      5  C   UNL     1       0.713   9.691  20.869  0.00  0.00    +0.000 C 
ATOM      6  C   UNL     1      -0.255  10.700  20.263  0.00  0.00    +0.000 C 
ATOM      7  C   UNL     1       0.583  11.568  19.372  0.00  0.00    +0.000 A 
ATOM      8  C   UNL     1       0.491  12.965  19.453  0.00  0.00    +0.000 A 
ATOM      9  C   UNL     1       1.420  13.750  18.785  0.00  0.00    +0.000 A 
ATOM     10  C   UNL     1       2.410  13.143  18.015  0.00  0.00    +0.000 A 
ATOM     11  C   UNL     1       2.469  11.744  17.893  0.00  0.00    +0.000 A 
ATOM     12  C   UNL     1       1.561  10.928  18.582  0.00  0.00    +0.000 A 
ATOM     13  C   UNL     1       1.586   9.383  18.542  0.00  0.00    +0.000 C 
ENDBRANCH   1   2
BRANCH   1  16
ATOM     14  O   UNL     1       3.553   5.476  17.161  0.00  0.00    +0.000 OA
ATOM     15  C   UNL     1       4.088   5.978  18.136  0.00  0.00    +0.000 C 
ATOM     16  N   UNL     1       3.412   6.339  19.272  0.00  0.00    +0.000 N 
ATOM     17  H   UNL     1       3.896   6.882  19.987  0.00  0.00    +0.000 HD
BRANCH  15  18
ATOM     18  C   UNL     1       5.546   6.287  18.132  0.00  0.00    +0.000 A 
ATOM     19  C   UNL     1       6.468   5.681  18.990  0.00  0.00    +0.000 A 
ATOM     20  C   UNL     1       7.800   6.107  18.983  0.00  0.00    +0.000 A 
ATOM     21  C   UNL     1       8.168   7.116  18.108  0.00  0.00    +0.000 A 
ATOM     22  N   UNL     1       7.313   7.691  17.232  0.00  0.00    +0.000 NA
ATOM     23  C   UNL     1       6.025   7.255  17.257  0.00  0.00    +0.000 A 
ENDBRANCH  15  18
ENDBRANCH   1  16
BRANCH   1  24
ATOM     24  C   UNL     1       1.466   4.942  20.032  0.00  0.00    +0.000 C 
BRANCH  24  25
ATOM     25  C   UNL     1       2.113   3.648  19.562  0.00  0.00    +0.000 A 
ATOM     26  C   UNL     1       1.687   3.029  18.382  0.00  0.00    +0.000 A 
ATOM     27  C   UNL     1       2.414   1.959  17.840  0.00  0.00    +0.000 A 
ATOM     28  C   UNL     1       3.562   1.491  18.472  0.00  0.00    +0.000 A 
ATOM     29  C   UNL     1       3.969   2.066  19.672  0.00  0.00    +0.000 A 
ATOM     30  C   UNL     1       3.246   3.135  20.216  0.00  0.00    +0.000 A 
ENDBRANCH  24  25
ENDBRANCH   1  24
TORSDOF 5
ENDMDL
MODEL 6
REMARK VINA RESULT:      -7.6      1.804      7.441
REMARK  Name = 
REMARK  5 active torsions:
REMARK  status: ('A' for Active; 'I' for Inactive)
REMARK    1  A    between atoms: C_2  and  C_24
REMARK    2  A    between atoms: N_3  and  C_4
REMARK    3  A    between atoms: C_4  and  C_5
REMARK    4  A    between atoms: C_4  and  C_12
REMARK    5  A    between atoms: C_5  and  C_6
REMARK                            x       y       z     vdW  Elec       q    Type
REMARK                         _______ _______ _______ _____ _____    ______ ____
ROOT
ATOM      1  C   UNL     1       1.794   7.280  20.506  0.00  0.00    +0.000 C 
ENDROOT
BRANCH   1   2
ATOM      2  C   UNL     1       2.417   7.232  19.083  0.00  0.00    +0.000 C 
ATOM      3  O   UNL     1       2.005   8.063  18.255  0.00  0.00    +0.000 OA
ATOM      4  N   UNL     1       3.391   6.318  18.689  0.00  0.00    +0.000 N 
ATOM      5  C   UNL     1       3.614   6.261  17.239  0.00  0.00    +0.000 C 
ATOM      6  C   UNL     1       4.133   4.897  16.801  0.00  0.00    +0.000 C 
ATOM      7  C   UNL     1       5.507   4.787  17.394  0.00  0.00    +0.000 A 
ATOM      8  C   UNL     1       6.593   4.394  16.599  0.00  0.00    +0.000 A 
ATOM      9  C   UNL     1       7.882   4.505  17.100  0.00  0.00    +0.000 A 
ATOM     10  C   UNL     1       8.079   4.974  18.398  0.00  0.00    +0.000 A 
ATOM     11  C   UNL     1       6.986   5.318  19.211  0.00  0.00    +0.000 A 
ATOM     12  C   UNL     1       5.677   5.243  18.718  0.00  0.00    +0.000 A 
ATOM     13  C   UNL     1       4.424   5.648  19.528  0.00  0.00    +0.000 C 
ENDBRANCH   1   2
BRANCH   1  16
ATOM     14  O   UNL     1       1.625   9.212  22.703  0.00  0.00    +0.000 OA
ATOM     15  C   UNL     1       1.112   9.464  21.625  0.00  0.00    +0.000 C 
ATOM     16  N   UNL     1       1.103   8.595  20.566  0.00  0.00    +0.000 N 
ATOM     17  H   UNL     1       0.786   8.925  19.655  0.00  0.00    +0.000 HD
BRANCH  15  18
ATOM     18  C   UNL     1       0.490  10.795  21.368  0.00  0.00    +0.000 A 
ATOM     19  C   UNL     1      -0.580  11.304  22.107  0.00  0.00    +0.000 A 
ATOM     20  C   UNL     1      -1.163  12.518  21.730  0.00  0.00    +0.000 A 
ATOM     21  C   UNL     1      -0.647  13.188  20.633  0.00  0.00    +0.000 A 
ATOM     22  N   UNL     1       0.417  12.748  19.924  0.00  0.00    +0.000 NA
ATOM     23  C   UNL     1       0.968  11.568  20.315  0.00  0.00    +0.000 A 
ENDBRANCH  15  18
ENDBRANCH   1  16
BRANCH   1  24
ATOM     24  C   UNL     1       0.858   6.110  20.850  0.00  0.00    +0.000 C 
BRANCH  24  25
ATOM     25  C   UNL     1       1.296   4.677  20.584  0.00  0.00    +0.000 A 
ATOM     26  C   UNL     1       1.005   4.061  19.363  0.00  0.00    +0.000 A 
ATOM     27  C   UNL     1       1.583   2.825  19.036  0.00  0.00    +0.000 A 
ATOM     28  C   UNL     1       2.445   2.190  19.926  0.00  0.00    +0.000 A 
ATOM     29  C   UNL     1       2.704   2.768  21.164  0.00  0.00    +0.000 A 
ATOM     30  C   UNL     1       2.129   4.002  21.493  0.00  0.00    +0.000 A 
ENDBRANCH  24  25
ENDBRANCH   1  24
TORSDOF 5
ENDMDL
MODEL 7
REMARK VINA RESULT:      -7.5      3.011      6.510
REMARK  Name = 
REMARK  5 active torsions:
REMARK  status: ('A' for Active; 'I' for Inactive)
REMARK    1  A    between atoms: C_2  and  C_24
REMARK    2  A    between atoms: N_3  and  C_4
REMARK    3  A    between atoms: C_4  and  C_5
REMARK    4  A    between atoms: C_4  and  C_12
REMARK    5  A    between atoms: C_5  and  C_6
REMARK                            x       y       z     vdW  Elec       q    Type
REMARK                         _______ _______ _______ _____ _____    ______ ____
ROOT
ATOM      1  C   UNL     1       0.554  11.062  20.191  0.00  0.00    +0.000 C 
ENDROOT
BRANCH   1   2
ATOM      2  C   UNL     1      -0.280  10.910  21.494  0.00  0.00    +0.000 C 
ATOM      3  O   UNL     1      -0.284   9.791  22.037  0.00  0.00    +0.000 OA
ATOM      4  N   UNL     1      -1.016  11.940  22.073  0.00  0.00    +0.000 N 
ATOM      5  C   UNL     1      -1.953  11.500  23.115  0.00  0.00    +0.000 C 
ATOM      6  C   UNL     1      -3.139  12.448  23.244  0.00  0.00    +0.000 C 
ATOM      7  C   UNL     1      -2.566  13.730  23.773  0.00  0.00    +0.000 A 
ATOM      8  C   UNL     1      -3.157  14.369  24.872  0.00  0.00    +0.000 A 
ATOM      9  C   UNL     1      -2.498  15.427  25.483  0.00  0.00    +0.000 A 
ATOM     10  C   UNL     1      -1.274  15.861  24.976  0.00  0.00    +0.000 A 
ATOM     11  C   UNL     1      -0.709  15.252  23.842  0.00  0.00    +0.000 A 
ATOM     12  C   UNL     1      -1.341  14.163  23.226  0.00  0.00    +0.000 A 
ATOM     13  C   UNL     1      -0.765  13.406  22.007  0.00  0.00    +0.000 C 
ENDBRANCH   1   2
BRANCH   1  16
ATOM     14  O   UNL     1       2.049  10.055  17.880  0.00  0.00    +0.000 OA
ATOM     15  C   UNL     1       1.776   9.308  18.805  0.00  0.00    +0.000 C 
ATOM     16  N   UNL     1       1.038   9.688  19.896  0.00  0.00    +0.000 N 
ATOM     17  H   UNL     1       0.971   9.057  20.694  0.00  0.00    +0.000 HD
BRANCH  15  18
ATOM     18  C   UNL     1       2.288   7.908  18.833  0.00  0.00    +0.000 A 
ATOM     19  C   UNL     1       2.994   7.322  17.780  0.00  0.00    +0.000 A 
ATOM     20  C   UNL     1       3.348   5.971  17.854  0.00  0.00    +0.000 A 
ATOM     21  C   UNL     1       2.995   5.255  18.986  0.00  0.00    +0.000 A 
ATOM     22  N   UNL     1       2.353   5.802  20.043  0.00  0.00    +0.000 NA
ATOM     23  C   UNL     1       2.025   7.119  19.947  0.00  0.00    +0.000 A 
ENDBRANCH  15  18
ENDBRANCH   1  16
BRANCH   1  24
ATOM     24  C   UNL     1      -0.197  11.686  19.003  0.00  0.00    +0.000 C 
BRANCH  24  25
ATOM     25  C   UNL     1      -1.597  11.207  18.648  0.00  0.00    +0.000 A 
ATOM     26  C   UNL     1      -2.720  11.950  19.028  0.00  0.00    +0.000 A 
ATOM     27  C   UNL     1      -3.989  11.625  18.527  0.00  0.00    +0.000 A 
ATOM     28  C   UNL     1      -4.151  10.553  17.654  0.00  0.00    +0.000 A 
ATOM     29  C   UNL     1      -3.051   9.776  17.307  0.00  0.00    +0.000 A 
ATOM     30  C   UNL     1      -1.783  10.098  17.805  0.00  0.00    +0.000 A 
ENDBRANCH  24  25
ENDBRANCH   1  24
TORSDOF 5
ENDMDL
MODEL 8
REMARK VINA RESULT:      -7.4      1.951      7.403
REMARK  Name = 
REMARK  5 active torsions:
REMARK  status: ('A' for Active; 'I' for Inactive)
REMARK    1  A    between atoms: C_2  and  C_24
REMARK    2  A    between atoms: N_3  and  C_4
REMARK    3  A    between atoms: C_4  and  C_5
REMARK    4  A    between atoms: C_4  and  C_12
REMARK    5  A    between atoms: C_5  and  C_6
REMARK                            x       y       z     vdW  Elec       q    Type
REMARK                         _______ _______ _______ _____ _____    ______ ____
ROOT
ATOM      1  C   UNL     1       1.830   7.198  20.571  0.00  0.00    +0.000 C 
ENDROOT
BRANCH   1   2
ATOM      2  C   UNL     1       2.465   7.229  19.153  0.00  0.00    +0.000 C 
ATOM      3  O   UNL     1       2.085   8.126  18.381  0.00  0.00    +0.000 OA
ATOM      4  N   UNL     1       3.416   6.316  18.705  0.00  0.00    +0.000 N 
ATOM      5  C   UNL     1       3.651   6.351  17.256  0.00  0.00    +0.000 C 
ATOM      6  C   UNL     1       4.135   5.006  16.730  0.00  0.00    +0.000 C 
ATOM      7  C   UNL     1       5.499   4.815  17.324  0.00  0.00    +0.000 A 
ATOM      8  C   UNL     1       6.581   4.445  16.512  0.00  0.00    +0.000 A 
ATOM      9  C   UNL     1       7.868   4.485  17.029  0.00  0.00    +0.000 A 
ATOM     10  C   UNL     1       8.066   4.858  18.358  0.00  0.00    +0.000 A 
ATOM     11  C   UNL     1       6.976   5.177  19.185  0.00  0.00    +0.000 A 
ATOM     12  C   UNL     1       5.669   5.175  18.677  0.00  0.00    +0.000 A 
ATOM     13  C   UNL     1       4.421   5.560  19.504  0.00  0.00    +0.000 C 
ENDBRANCH   1   2
BRANCH   1  16
ATOM     14  O   UNL     1      -0.676   7.959  21.886  0.00  0.00    +0.000 OA
ATOM     15  C   UNL     1       0.047   8.815  21.404  0.00  0.00    +0.000 C 
ATOM     16  N   UNL     1       1.207   8.538  20.730  0.00  0.00    +0.000 N 
ATOM     17  H   UNL     1       1.833   9.305  20.481  0.00  0.00    +0.000 HD
BRANCH  15  18
ATOM     18  C   UNL     1      -0.269  10.263  21.569  0.00  0.00    +0.000 A 
ATOM     19  C   UNL     1      -0.177  11.198  20.535  0.00  0.00    +0.000 A 
ATOM     20  C   UNL     1      -0.397  12.551  20.807  0.00  0.00    +0.000 A 
ATOM     21  C   UNL     1      -0.715  12.924  22.103  0.00  0.00    +0.000 A 
ATOM     22  N   UNL     1      -0.858  12.041  23.118  0.00  0.00    +0.000 NA
ATOM     23  C   UNL     1      -0.644  10.730  22.824  0.00  0.00    +0.000 A 
ENDBRANCH  15  18
ENDBRANCH   1  16
BRANCH   1  24
ATOM     24  C   UNL     1       0.831   6.055  20.817  0.00  0.00    +0.000 C 
BRANCH  24  25
ATOM     25  C   UNL     1       1.244   4.613  20.562  0.00  0.00    +0.000 A 
ATOM     26  C   UNL     1       0.975   4.003  19.333  0.00  0.00    +0.000 A 
ATOM     27  C   UNL     1       1.533   2.754  19.023  0.00  0.00    +0.000 A 
ATOM     28  C   UNL     1       2.353   2.099  19.938  0.00  0.00    +0.000 A 
ATOM     29  C   UNL     1       2.589   2.672  21.183  0.00  0.00    +0.000 A 
ATOM     30  C   UNL     1       2.034   3.918  21.495  0.00  0.00    +0.000 A 
ENDBRANCH  24  25
ENDBRANCH   1  24
TORSDOF 5
ENDMDL
MODEL 9
REMARK VINA RESULT:      -7.4      2.197      4.706
REMARK  Name = 
REMARK  5 active torsions:
REMARK  status: ('A' for Active; 'I' for Inactive)
REMARK    1  A    between atoms: C_2  and  C_24
REMARK    2  A    between atoms: N_3  and  C_4
REMARK    3  A    between atoms: C_4  and  C_5
REMARK    4  A    between atoms: C_4  and  C_12
REMARK    5  A    between atoms: C_5  and  C_6
REMARK                            x       y       z     vdW  Elec       q    Type
REMARK                         _______ _______ _______ _____ _____    ______ ____
ROOT
ATOM      1  C   UNL     1       2.184   7.085  18.065  0.00  0.00    +0.000 C 
ENDROOT
BRANCH   1   2
ATOM      2  C   UNL     1       1.688   8.003  19.217  0.00  0.00    +0.000 C 
ATOM      3  O   UNL     1       1.633   7.506  20.355  0.00  0.00    +0.000 OA
ATOM      4  N   UNL     1       1.301   9.330  19.045  0.00  0.00    +0.000 N 
ATOM      5  C   UNL     1       0.594   9.906  20.195  0.00  0.00    +0.000 C 
ATOM      6  C   UNL     1      -0.348  11.027  19.774  0.00  0.00    +0.000 C 
ATOM      7  C   UNL     1       0.543  12.134  19.292  0.00  0.00    +0.000 A 
ATOM      8  C   UNL     1       0.360  13.444  19.753  0.00  0.00    +0.000 A 
ATOM      9  C   UNL     1       1.317  14.409  19.471  0.00  0.00    +0.000 A 
ATOM     10  C   UNL     1       2.431  14.071  18.704  0.00  0.00    +0.000 A 
ATOM     11  C   UNL     1       2.586  12.769  18.198  0.00  0.00    +0.000 A 
ATOM     12  C   UNL     1       1.649  11.770  18.495  0.00  0.00    +0.000 A 
ATOM     13  C   UNL     1       1.769  10.304  18.020  0.00  0.00    +0.000 C 
ENDBRANCH   1   2
BRANCH   1  16
ATOM     14  O   UNL     1       4.531   6.604  16.377  0.00  0.00    +0.000 OA
ATOM     15  C   UNL     1       4.632   6.562  17.592  0.00  0.00    +0.000 C 
ATOM     16  N   UNL     1       3.575   6.725  18.448  0.00  0.00    +0.000 N 
ATOM     17  H   UNL     1       3.755   6.822  19.448  0.00  0.00    +0.000 HD
BRANCH  15  18
ATOM     18  C   UNL     1       5.961   6.377  18.242  0.00  0.00    +0.000 A 
ATOM     19  C   UNL     1       7.112   7.069  17.858  0.00  0.00    +0.000 A 
ATOM     20  C   UNL     1       8.336   6.758  18.458  0.00  0.00    +0.000 A 
ATOM     21  C   UNL     1       8.365   5.774  19.433  0.00  0.00    +0.000 A 
ATOM     22  N   UNL     1       7.263   5.118  19.862  0.00  0.00    +0.000 NA
ATOM     23  C   UNL     1       6.085   5.444  19.265  0.00  0.00    +0.000 A 
ENDBRANCH  15  18
ENDBRANCH   1  16
BRANCH   1  24
ATOM     24  C   UNL     1       1.313   5.848  17.793  0.00  0.00    +0.000 C 
BRANCH  24  25
ATOM     25  C   UNL     1       1.729   4.487  18.332  0.00  0.00    +0.000 A 
ATOM     26  C   UNL     1       1.344   4.083  19.615  0.00  0.00    +0.000 A 
ATOM     27  C   UNL     1       1.546   2.760  20.033  0.00  0.00    +0.000 A 
ATOM     28  C   UNL     1       2.142   1.833  19.182  0.00  0.00    +0.000 A 
ATOM     29  C   UNL     1       2.574   2.234  17.923  0.00  0.00    +0.000 A 
ATOM     30  C   UNL     1       2.374   3.554  17.502  0.00  0.00    +0.000 A 
ENDBRANCH  24  25
ENDBRANCH   1  24
TORSDOF 5
ENDMDL
