MODEL 1
REMARK VINA RESULT:      -6.5      0.000      0.000
REMARK  Name = 
REMARK  5 active torsions:
REMARK  status: ('A' for Active; 'I' for Inactive)
REMARK    1  A    between atoms: C_2  and  C_3
REMARK    2  A    between atoms: C_3  and  C_4
REMARK    3  A    between atoms: C_3  and  N_14
REMARK    4  A    between atoms: C_7  and  C_8
REMARK    5  A    between atoms: N_17  and  C_18
REMARK                            x       y       z     vdW  Elec       q    Type
REMARK                         _______ _______ _______ _____ _____    ______ ____
ROOT
ATOM      1  N   UNL     1       0.446  11.854  19.377  0.00  0.00    +0.000 NA
ATOM      2  C   UNL     1      -0.558  12.964  19.278  0.00  0.00    +0.000 C 
ATOM      3  C   UNL     1      -1.537  13.090  20.481  0.00  0.00    +0.000 C 
ATOM      4  N   UNL     1      -0.733  13.124  21.702  0.00  0.00    +0.000 N 
ATOM      5  C   UNL     1       0.164  11.988  21.889  0.00  0.00    +0.000 C 
ATOM      6  C   UNL     1       1.136  11.968  20.689  0.00  0.00    +0.000 C 
ENDROOT
BRANCH   4   7
ATOM      7  C   UNL     1      -1.030  14.003  22.716  0.00  0.00    +0.000 A 
ATOM      8  N   UNL     1      -0.144  14.999  22.922  0.00  0.00    +0.000 NA
ATOM      9  C   UNL     1      -0.425  15.888  23.886  0.00  0.00    +0.000 A 
ATOM     10  N   UNL     1      -1.507  15.890  24.671  0.00  0.00    +0.000 NA
ATOM     11  C   UNL     1      -2.356  14.877  24.485  0.00  0.00    +0.000 A 
ATOM     12  N   UNL     1      -3.513  14.907  25.269  0.00  0.00    +0.000 N 
ATOM     13  C   UNL     1      -2.161  13.887  23.531  0.00  0.00    +0.000 A 
ATOM     14 BR   UNL     1      -3.324  12.366  23.568  0.00  0.00    +0.000 Br
ATOM     15  H   UNL     1      -3.425  15.621  25.979  0.00  0.00    +0.000 HD
ATOM     16  H   UNL     1      -3.755  13.993  25.637  0.00  0.00    +0.000 HD
ENDBRANCH   4   7
BRANCH   1  17
ATOM     17  C   UNL     1      -0.206  10.533  19.226  0.00  0.00    +0.000 C 
BRANCH  17  18
ATOM     18  C   UNL     1       0.794   9.379  19.034  0.00  0.00    +0.000 A 
ATOM     19  C   UNL     1       1.421   9.148  17.800  0.00  0.00    +0.000 A 
ATOM     20  C   UNL     1       2.340   8.104  17.645  0.00  0.00    +0.000 A 
ATOM     21  C   UNL     1       2.672   7.276  18.726  0.00  0.00    +0.000 A 
ATOM     22  C   UNL     1       2.042   7.496  19.959  0.00  0.00    +0.000 A 
ATOM     23  C   UNL     1       1.110   8.530  20.112  0.00  0.00    +0.000 A 
BRANCH  21  24
ATOM     24  C   UNL     1       3.697   6.175  18.582  0.00  0.00    +0.000 C 
ATOM     25  F   UNL     1       4.801   6.544  17.874  0.00  0.00    +0.000 F 
ATOM     26  F   UNL     1       4.159   5.738  19.788  0.00  0.00    +0.000 F 
ATOM     27  F   UNL     1       3.202   5.074  17.953  0.00  0.00    +0.000 F 
ENDBRANCH  21  24
ENDBRANCH  17  18
BRANCH  17  29
ATOM     28  N   UNL     1      -1.961  10.526  17.068  0.00  0.00    +0.000 NA
ATOM     29  C   UNL     1      -1.165  10.529  18.047  0.00  0.00    +0.000 C 
ENDBRANCH  17  29
ENDBRANCH   1  17
TORSDOF 5
ENDMDL
MODEL 2
REMARK VINA RESULT:      -6.4      0.207      1.114
REMARK  Name = 
REMARK  5 active torsions:
REMARK  status: ('A' for Active; 'I' for Inactive)
REMARK    1  A    between atoms: C_2  and  C_3
REMARK    2  A    between atoms: C_3  and  C_4
REMARK    3  A    between atoms: C_3  and  N_14
REMARK    4  A    between atoms: C_7  and  C_8
REMARK    5  A    between atoms: N_17  and  C_18
REMARK                            x       y       z     vdW  Elec       q    Type
REMARK                         _______ _______ _______ _____ _____    ______ ____
ROOT
ATOM      1  N   UNL     1       0.450  11.857  19.398  0.00  0.00    +0.000 NA
ATOM      2  C   UNL     1      -0.566  12.956  19.290  0.00  0.00    +0.000 C 
ATOM      3  C   UNL     1      -1.541  13.086  20.495  0.00  0.00    +0.000 C 
ATOM      4  N   UNL     1      -0.732  13.144  21.713  0.00  0.00    +0.000 N 
ATOM      5  C   UNL     1       0.178  12.020  21.910  0.00  0.00    +0.000 C 
ATOM      6  C   UNL     1       1.144  11.994  20.705  0.00  0.00    +0.000 C 
ENDROOT
BRANCH   4   7
ATOM      7  C   UNL     1      -1.034  14.032  22.717  0.00  0.00    +0.000 A 
ATOM      8  N   UNL     1      -0.148  15.029  22.919  0.00  0.00    +0.000 NA
ATOM      9  C   UNL     1      -0.432  15.927  23.872  0.00  0.00    +0.000 A 
ATOM     10  N   UNL     1      -1.519  15.938  24.652  0.00  0.00    +0.000 NA
ATOM     11  C   UNL     1      -2.368  14.924  24.470  0.00  0.00    +0.000 A 
ATOM     12  N   UNL     1      -3.530  14.962  25.247  0.00  0.00    +0.000 N 
ATOM     13  C   UNL     1      -2.169  13.925  23.527  0.00  0.00    +0.000 A 
ATOM     14 BR   UNL     1      -3.334  12.406  23.570  0.00  0.00    +0.000 Br
ATOM     15  H   UNL     1      -3.445  15.683  25.951  0.00  0.00    +0.000 HD
ATOM     16  H   UNL     1      -3.774  14.052  25.622  0.00  0.00    +0.000 HD
ENDBRANCH   4   7
BRANCH   1  17
ATOM     17  C   UNL     1      -0.189  10.527  19.267  0.00  0.00    +0.000 C 
BRANCH  17  18
ATOM     18  C   UNL     1       0.823   9.378  19.112  0.00  0.00    +0.000 A 
ATOM     19  C   UNL     1       1.087   8.485  20.162  0.00  0.00    +0.000 A 
ATOM     20  C   UNL     1       1.998   7.436  20.002  0.00  0.00    +0.000 A 
ATOM     21  C   UNL     1       2.656   7.240  18.780  0.00  0.00    +0.000 A 
ATOM     22  C   UNL     1       2.403   8.134  17.729  0.00  0.00    +0.000 A 
ATOM     23  C   UNL     1       1.503   9.194  17.894  0.00  0.00    +0.000 A 
BRANCH  21  24
ATOM     24  C   UNL     1       3.608   6.082  18.580  0.00  0.00    +0.000 C 
ATOM     25  F   UNL     1       4.501   5.927  19.596  0.00  0.00    +0.000 F 
ATOM     26  F   UNL     1       2.956   4.890  18.474  0.00  0.00    +0.000 F 
ATOM     27  F   UNL     1       4.350   6.203  17.445  0.00  0.00    +0.000 F 
ENDBRANCH  21  24
ENDBRANCH  17  18
BRANCH  17  29
ATOM     28  N   UNL     1      -1.913  10.460  17.085  0.00  0.00    +0.000 NA
ATOM     29  C   UNL     1      -1.132  10.491  18.075  0.00  0.00    +0.000 C 
ENDBRANCH  17  29
ENDBRANCH   1  17
TORSDOF 5
ENDMDL
MODEL 3
REMARK VINA RESULT:      -6.4      1.210      1.852
REMARK  Name = 
REMARK  5 active torsions:
REMARK  status: ('A' for Active; 'I' for Inactive)
REMARK    1  A    between atoms: C_2  and  C_3
REMARK    2  A    between atoms: C_3  and  C_4
REMARK    3  A    between atoms: C_3  and  N_14
REMARK    4  A    between atoms: C_7  and  C_8
REMARK    5  A    between atoms: N_17  and  C_18
REMARK                            x       y       z     vdW  Elec       q    Type
REMARK                         _______ _______ _______ _____ _____    ______ ____
ROOT
ATOM      1  N   UNL     1       0.157  11.597  19.692  0.00  0.00    +0.000 NA
ATOM      2  C   UNL     1      -0.932  12.621  19.556  0.00  0.00    +0.000 C 
ATOM      3  C   UNL     1      -2.069  12.534  20.614  0.00  0.00    +0.000 C 
ATOM      4  N   UNL     1      -1.441  12.509  21.935  0.00  0.00    +0.000 N 
ATOM      5  C   UNL     1      -0.467  11.441  22.141  0.00  0.00    +0.000 C 
ATOM      6  C   UNL     1       0.652  11.631  21.094  0.00  0.00    +0.000 C 
ENDROOT
BRANCH   4   7
ATOM      7  C   UNL     1      -1.956  13.246  22.974  0.00  0.00    +0.000 A 
ATOM      8  N   UNL     1      -3.110  12.800  23.509  0.00  0.00    +0.000 NA
ATOM      9  C   UNL     1      -3.619  13.483  24.544  0.00  0.00    +0.000 A 
ATOM     10  N   UNL     1      -3.092  14.575  25.109  0.00  0.00    +0.000 NA
ATOM     11  C   UNL     1      -1.971  15.031  24.545  0.00  0.00    +0.000 A 
ATOM     12  N   UNL     1      -1.390  16.140  25.166  0.00  0.00    +0.000 N 
ATOM     13  C   UNL     1      -1.363  14.417  23.458  0.00  0.00    +0.000 A 
ATOM     14 BR   UNL     1       0.083  15.337  22.602  0.00  0.00    +0.000 Br
ATOM     15  H   UNL     1      -2.027  16.517  25.855  0.00  0.00    +0.000 HD
ATOM     16  H   UNL     1      -1.058  16.827  24.498  0.00  0.00    +0.000 HD
ENDBRANCH   4   7
BRANCH   1  17
ATOM     17  C   UNL     1      -0.335  10.248  19.329  0.00  0.00    +0.000 C 
BRANCH  17  18
ATOM     18  C   UNL     1       0.796   9.233  19.088  0.00  0.00    +0.000 A 
ATOM     19  C   UNL     1       1.175   8.306  20.070  0.00  0.00    +0.000 A 
ATOM     20  C   UNL     1       2.195   7.379  19.829  0.00  0.00    +0.000 A 
ATOM     21  C   UNL     1       2.852   7.343  18.592  0.00  0.00    +0.000 A 
ATOM     22  C   UNL     1       2.484   8.273  17.609  0.00  0.00    +0.000 A 
ATOM     23  C   UNL     1       1.474   9.211  17.854  0.00  0.00    +0.000 A 
BRANCH  21  24
ATOM     24  C   UNL     1       3.924   6.316  18.305  0.00  0.00    +0.000 C 
ATOM     25  F   UNL     1       5.004   6.822  17.648  0.00  0.00    +0.000 F 
ATOM     26  F   UNL     1       4.413   5.748  19.443  0.00  0.00    +0.000 F 
ATOM     27  F   UNL     1       3.471   5.285  17.539  0.00  0.00    +0.000 F 
ENDBRANCH  21  24
ENDBRANCH  17  18
BRANCH  17  29
ATOM     28  N   UNL     1      -1.915  10.343  17.043  0.00  0.00    +0.000 NA
ATOM     29  C   UNL     1      -1.199  10.301  18.080  0.00  0.00    +0.000 C 
ENDBRANCH  17  29
ENDBRANCH   1  17
TORSDOF 5
ENDMDL
MODEL 4
REMARK VINA RESULT:      -6.3      1.352      1.797
REMARK  Name = 
REMARK  5 active torsions:
REMARK  status: ('A' for Active; 'I' for Inactive)
REMARK    1  A    between atoms: C_2  and  C_3
REMARK    2  A    between atoms: C_3  and  C_4
REMARK    3  A    between atoms: C_3  and  N_14
REMARK    4  A    between atoms: C_7  and  C_8
REMARK    5  A    between atoms: N_17  and  C_18
REMARK                            x       y       z     vdW  Elec       q    Type
REMARK                         _______ _______ _______ _____ _____    ______ ____
ROOT
ATOM      1  N   UNL     1       0.330  11.205  20.084  0.00  0.00    +0.000 NA
ATOM      2  C   UNL     1      -0.647  12.318  19.846  0.00  0.00    +0.000 C 
ATOM      3  C   UNL     1      -1.974  12.228  20.653  0.00  0.00    +0.000 C 
ATOM      4  N   UNL     1      -1.622  12.038  22.060  0.00  0.00    +0.000 N 
ATOM      5  C   UNL     1      -0.773  10.884  22.340  0.00  0.00    +0.000 C 
ATOM      6  C   UNL     1       0.540  11.077  21.550  0.00  0.00    +0.000 C 
ENDROOT
BRANCH   4   7
ATOM      7  C   UNL     1      -2.287  12.720  23.050  0.00  0.00    +0.000 A 
ATOM      8  N   UNL     1      -3.427  12.158  23.500  0.00  0.00    +0.000 NA
ATOM      9  C   UNL     1      -4.081  12.786  24.487  0.00  0.00    +0.000 A 
ATOM     10  N   UNL     1      -3.712  13.927  25.081  0.00  0.00    +0.000 NA
ATOM     11  C   UNL     1      -2.605  14.494  24.600  0.00  0.00    +0.000 A 
ATOM     12  N   UNL     1      -2.188  15.658  25.254  0.00  0.00    +0.000 N 
ATOM     13  C   UNL     1      -1.855  13.946  23.568  0.00  0.00    +0.000 A 
ATOM     14 BR   UNL     1      -0.450  15.008  22.816  0.00  0.00    +0.000 Br
ATOM     15  H   UNL     1      -2.912  15.968  25.890  0.00  0.00    +0.000 HD
ATOM     16  H   UNL     1      -1.878  16.376  24.608  0.00  0.00    +0.000 HD
ENDBRANCH   4   7
BRANCH   1  17
ATOM     17  C   UNL     1      -0.159   9.934  19.499  0.00  0.00    +0.000 C 
BRANCH  17  18
ATOM     18  C   UNL     1       0.974   8.971  19.104  0.00  0.00    +0.000 A 
ATOM     19  C   UNL     1       1.645   9.089  17.877  0.00  0.00    +0.000 A 
ATOM     20  C   UNL     1       2.684   8.214  17.540  0.00  0.00    +0.000 A 
ATOM     21  C   UNL     1       3.093   7.210  18.428  0.00  0.00    +0.000 A 
ATOM     22  C   UNL     1       2.419   7.081  19.652  0.00  0.00    +0.000 A 
ATOM     23  C   UNL     1       1.370   7.946  19.985  0.00  0.00    +0.000 A 
BRANCH  21  24
ATOM     24  C   UNL     1       4.244   6.290  18.093  0.00  0.00    +0.000 C 
ATOM     25  F   UNL     1       5.311   6.928  17.537  0.00  0.00    +0.000 F 
ATOM     26  F   UNL     1       4.727   5.646  19.193  0.00  0.00    +0.000 F 
ATOM     27  F   UNL     1       3.895   5.311  17.213  0.00  0.00    +0.000 F 
ENDBRANCH  21  24
ENDBRANCH  17  18
BRANCH  17  29
ATOM     28  N   UNL     1      -1.718  10.409  17.245  0.00  0.00    +0.000 NA
ATOM     29  C   UNL     1      -1.010  10.194  18.267  0.00  0.00    +0.000 C 
ENDBRANCH  17  29
ENDBRANCH   1  17
TORSDOF 5
ENDMDL
MODEL 5
REMARK VINA RESULT:      -6.3      0.722      1.018
REMARK  Name = 
REMARK  5 active torsions:
REMARK  status: ('A' for Active; 'I' for Inactive)
REMARK    1  A    between atoms: C_2  and  C_3
REMARK    2  A    between atoms: C_3  and  C_4
REMARK    3  A    between atoms: C_3  and  N_14
REMARK    4  A    between atoms: C_7  and  C_8
REMARK    5  A    between atoms: N_17  and  C_18
REMARK                            x       y       z     vdW  Elec       q    Type
REMARK                         _______ _______ _______ _____ _____    ______ ____
ROOT
ATOM      1  N   UNL     1       0.278  12.048  19.839  0.00  0.00    +0.000 NA
ATOM      2  C   UNL     1      -0.643  13.216  19.643  0.00  0.00    +0.000 C 
ATOM      3  C   UNL     1      -1.822  13.314  20.653  0.00  0.00    +0.000 C 
ATOM      4  N   UNL     1      -1.258  13.223  22.000  0.00  0.00    +0.000 N 
ATOM      5  C   UNL     1      -0.459  12.030  22.261  0.00  0.00    +0.000 C 
ATOM      6  C   UNL     1       0.717  12.036  21.259  0.00  0.00    +0.000 C 
ENDROOT
BRANCH   4   7
ATOM      7  C   UNL     1      -1.702  14.047  23.006  0.00  0.00    +0.000 A 
ATOM      8  N   UNL     1      -0.754  14.732  23.678  0.00  0.00    +0.000 NA
ATOM      9  C   UNL     1      -1.161  15.566  24.646  0.00  0.00    +0.000 A 
ATOM     10  N   UNL     1      -2.426  15.794  25.015  0.00  0.00    +0.000 NA
ATOM     11  C   UNL     1      -3.352  15.080  24.371  0.00  0.00    +0.000 A 
ATOM     12  N   UNL     1      -4.678  15.355  24.718  0.00  0.00    +0.000 N 
ATOM     13  C   UNL     1      -3.048  14.172  23.365  0.00  0.00    +0.000 A 
ATOM     14 BR   UNL     1      -4.453  13.039  22.725  0.00  0.00    +0.000 Br
ATOM     15  H   UNL     1      -4.699  15.944  25.540  0.00  0.00    +0.000 HD
ATOM     16  H   UNL     1      -5.237  14.513  24.806  0.00  0.00    +0.000 HD
ENDBRANCH   4   7
BRANCH   1  17
ATOM     17  C   UNL     1      -0.389  10.777  19.473  0.00  0.00    +0.000 C 
BRANCH  17  18
ATOM     18  C   UNL     1       0.598   9.630  19.193  0.00  0.00    +0.000 A 
ATOM     19  C   UNL     1       1.169   9.444  17.925  0.00  0.00    +0.000 A 
ATOM     20  C   UNL     1       2.077   8.406  17.691  0.00  0.00    +0.000 A 
ATOM     21  C   UNL     1       2.454   7.538  18.724  0.00  0.00    +0.000 A 
ATOM     22  C   UNL     1       1.881   7.713  19.992  0.00  0.00    +0.000 A 
ATOM     23  C   UNL     1       0.960   8.742  20.224  0.00  0.00    +0.000 A 
BRANCH  21  24
ATOM     24  C   UNL     1       3.469   6.442  18.494  0.00  0.00    +0.000 C 
ATOM     25  F   UNL     1       2.979   5.379  17.798  0.00  0.00    +0.000 F 
ATOM     26  F   UNL     1       4.552   6.879  17.790  0.00  0.00    +0.000 F 
ATOM     27  F   UNL     1       3.963   5.931  19.655  0.00  0.00    +0.000 F 
ENDBRANCH  21  24
ENDBRANCH  17  18
BRANCH  17  29
ATOM     28  N   UNL     1      -1.994  11.104  17.225  0.00  0.00    +0.000 NA
ATOM     29  C   UNL     1      -1.266  10.956  18.244  0.00  0.00    +0.000 C 
ENDBRANCH  17  29
ENDBRANCH   1  17
TORSDOF 5
ENDMDL
MODEL 6
REMARK VINA RESULT:      -6.2      1.051      1.702
REMARK  Name = 
REMARK  5 active torsions:
REMARK  status: ('A' for Active; 'I' for Inactive)
REMARK    1  A    between atoms: C_2  and  C_3
REMARK    2  A    between atoms: C_3  and  C_4
REMARK    3  A    between atoms: C_3  and  N_14
REMARK    4  A    between atoms: C_7  and  C_8
REMARK    5  A    between atoms: N_17  and  C_18
REMARK                            x       y       z     vdW  Elec       q    Type
REMARK                         _______ _______ _______ _____ _____    ______ ____
ROOT
ATOM      1  N   UNL     1       0.085  12.053  20.233  0.00  0.00    +0.000 NA
ATOM      2  C   UNL     1      -0.780  13.242  19.933  0.00  0.00    +0.000 C 
ATOM      3  C   UNL     1      -2.108  13.325  20.739  0.00  0.00    +0.000 C 
ATOM      4  N   UNL     1      -1.774  13.177  22.156  0.00  0.00    +0.000 N 
ATOM      5  C   UNL     1      -1.041  11.962  22.499  0.00  0.00    +0.000 C 
ATOM      6  C   UNL     1       0.283  11.984  21.705  0.00  0.00    +0.000 C 
ENDROOT
BRANCH   4   7
ATOM      7  C   UNL     1      -2.368  13.972  23.105  0.00  0.00    +0.000 A 
ATOM      8  N   UNL     1      -1.537  14.609  23.956  0.00  0.00    +0.000 NA
ATOM      9  C   UNL     1      -2.088  15.415  24.874  0.00  0.00    +0.000 A 
ATOM     10  N   UNL     1      -3.393  15.659  25.033  0.00  0.00    +0.000 NA
ATOM     11  C   UNL     1      -4.208  14.992  24.213  0.00  0.00    +0.000 A 
ATOM     12  N   UNL     1      -5.569  15.284  24.342  0.00  0.00    +0.000 N 
ATOM     13  C   UNL     1      -3.753  14.115  23.236  0.00  0.00    +0.000 A 
ATOM     14 BR   UNL     1      -5.048  13.041  22.322  0.00  0.00    +0.000 Br
ATOM     15  H   UNL     1      -5.719  15.843  25.173  0.00  0.00    +0.000 HD
ATOM     16  H   UNL     1      -6.149  14.453  24.300  0.00  0.00    +0.000 HD
ENDBRANCH   4   7
BRANCH   1  17
ATOM     17  C   UNL     1      -0.527  10.807  19.715  0.00  0.00    +0.000 C 
BRANCH  17  18
ATOM     18  C   UNL     1       0.504   9.710  19.397  0.00  0.00    +0.000 A 
ATOM     19  C   UNL     1       0.954   8.816  20.382  0.00  0.00    +0.000 A 
ATOM     20  C   UNL     1       1.880   7.814  20.073  0.00  0.00    +0.000 A 
ATOM     21  C   UNL     1       2.367   7.666  18.768  0.00  0.00    +0.000 A 
ATOM     22  C   UNL     1       1.927   8.561  17.781  0.00  0.00    +0.000 A 
ATOM     23  C   UNL     1       1.013   9.574  18.092  0.00  0.00    +0.000 A 
BRANCH  21  24
ATOM     24  C   UNL     1       3.332   6.558  18.413  0.00  0.00    +0.000 C 
ATOM     25  F   UNL     1       3.879   5.941  19.497  0.00  0.00    +0.000 F 
ATOM     26  F   UNL     1       2.740   5.571  17.683  0.00  0.00    +0.000 F 
ATOM     27  F   UNL     1       4.381   6.995  17.664  0.00  0.00    +0.000 F 
ENDBRANCH  21  24
ENDBRANCH  17  18
BRANCH  17  29
ATOM     28  N   UNL     1      -2.001  11.305  17.410  0.00  0.00    +0.000 NA
ATOM     29  C   UNL     1      -1.333  11.079  18.455  0.00  0.00    +0.000 C 
ENDBRANCH  17  29
ENDBRANCH   1  17
TORSDOF 5
ENDMDL
MODEL 7
REMARK VINA RESULT:      -6.2      4.378      6.862
REMARK  Name = 
REMARK  5 active torsions:
REMARK  status: ('A' for Active; 'I' for Inactive)
REMARK    1  A    between atoms: C_2  and  C_3
REMARK    2  A    between atoms: C_3  and  C_4
REMARK    3  A    between atoms: C_3  and  N_14
REMARK    4  A    between atoms: C_7  and  C_8
REMARK    5  A    between atoms: N_17  and  C_18
REMARK                            x       y       z     vdW  Elec       q    Type
REMARK                         _______ _______ _______ _____ _____    ______ ____
ROOT
ATOM      1  N   UNL     1       2.508   5.134  18.510  0.00  0.00    +0.000 NA
ATOM      2  C   UNL     1       1.927   5.083  19.892  0.00  0.00    +0.000 C 
ATOM      3  C   UNL     1       2.273   6.290  20.810  0.00  0.00    +0.000 C 
ATOM      4  N   UNL     1       1.946   7.512  20.074  0.00  0.00    +0.000 N 
ATOM      5  C   UNL     1       2.599   7.651  18.776  0.00  0.00    +0.000 C 
ATOM      6  C   UNL     1       2.161   6.450  17.910  0.00  0.00    +0.000 C 
ENDROOT
BRANCH   4   7
ATOM      7  C   UNL     1       1.315   8.561  20.697  0.00  0.00    +0.000 A 
ATOM      8  N   UNL     1       1.201   8.478  22.038  0.00  0.00    +0.000 NA
ATOM      9  C   UNL     1       0.617   9.503  22.675  0.00  0.00    +0.000 A 
ATOM     10  N   UNL     1       0.131  10.614  22.110  0.00  0.00    +0.000 NA
ATOM     11  C   UNL     1       0.212  10.665  20.779  0.00  0.00    +0.000 A 
ATOM     12  N   UNL     1      -0.247  11.848  20.191  0.00  0.00    +0.000 N 
ATOM     13  C   UNL     1       0.779   9.656  20.012  0.00  0.00    +0.000 A 
ATOM     14 BR   UNL     1       0.582   9.758  18.110  0.00  0.00    +0.000 Br
ATOM     15  H   UNL     1      -0.729  12.407  20.883  0.00  0.00    +0.000 HD
ATOM     16  H   UNL     1      -0.793  11.677  19.353  0.00  0.00    +0.000 HD
ENDBRANCH   4   7
BRANCH   1  17
ATOM     17  C   UNL     1       3.975   4.930  18.543  0.00  0.00    +0.000 C 
BRANCH  17  18
ATOM     18  C   UNL     1       4.597   4.759  17.146  0.00  0.00    +0.000 A 
ATOM     19  C   UNL     1       4.998   5.865  16.379  0.00  0.00    +0.000 A 
ATOM     20  C   UNL     1       5.576   5.692  15.117  0.00  0.00    +0.000 A 
ATOM     21  C   UNL     1       5.786   4.409  14.595  0.00  0.00    +0.000 A 
ATOM     22  C   UNL     1       5.380   3.300  15.352  0.00  0.00    +0.000 A 
ATOM     23  C   UNL     1       4.787   3.472  16.609  0.00  0.00    +0.000 A 
BRANCH  21  24
ATOM     24  C   UNL     1       6.452   4.209  13.253  0.00  0.00    +0.000 C 
ATOM     25  F   UNL     1       7.414   5.133  12.976  0.00  0.00    +0.000 F 
ATOM     26  F   UNL     1       7.064   2.995  13.155  0.00  0.00    +0.000 F 
ATOM     27  F   UNL     1       5.571   4.266  12.216  0.00  0.00    +0.000 F 
ENDBRANCH  21  24
ENDBRANCH  17  18
BRANCH  17  29
ATOM     28  N   UNL     1       4.637   2.698  20.063  0.00  0.00    +0.000 NA
ATOM     29  C   UNL     1       4.337   3.710  19.374  0.00  0.00    +0.000 C 
ENDBRANCH  17  29
ENDBRANCH   1  17
TORSDOF 5
ENDMDL
MODEL 8
REMARK VINA RESULT:      -6.0      1.395      2.046
REMARK  Name = 
REMARK  5 active torsions:
REMARK  status: ('A' for Active; 'I' for Inactive)
REMARK    1  A    between atoms: C_2  and  C_3
REMARK    2  A    between atoms: C_3  and  C_4
REMARK    3  A    between atoms: C_3  and  N_14
REMARK    4  A    between atoms: C_7  and  C_8
REMARK    5  A    between atoms: N_17  and  C_18
REMARK                            x       y       z     vdW  Elec       q    Type
REMARK                         _______ _______ _______ _____ _____    ______ ____
ROOT
ATOM      1  N   UNL     1       0.692  12.091  18.636  0.00  0.00    +0.000 NA
ATOM      2  C   UNL     1      -0.302  13.203  18.468  0.00  0.00    +0.000 C 
ATOM      3  C   UNL     1      -0.901  13.771  19.786  0.00  0.00    +0.000 C 
ATOM      4  N   UNL     1       0.216  14.103  20.671  0.00  0.00    +0.000 N 
ATOM      5  C   UNL     1       1.132  13.003  20.957  0.00  0.00    +0.000 C 
ATOM      6  C   UNL     1       1.724  12.536  19.609  0.00  0.00    +0.000 C 
ENDROOT
BRANCH   4   7
ATOM      7  C   UNL     1       0.216  15.269  21.397  0.00  0.00    +0.000 A 
ATOM      8  N   UNL     1       0.992  16.266  20.926  0.00  0.00    +0.000 NA
ATOM      9  C   UNL     1       0.988  17.426  21.599  0.00  0.00    +0.000 A 
ATOM     10  N   UNL     1       0.281  17.700  22.701  0.00  0.00    +0.000 NA
ATOM     11  C   UNL     1      -0.451  16.693  23.180  0.00  0.00    +0.000 A 
ATOM     12  N   UNL     1      -1.231  16.993  24.302  0.00  0.00    +0.000 N 
ATOM     13  C   UNL     1      -0.510  15.442  22.580  0.00  0.00    +0.000 A 
ATOM     14 BR   UNL     1      -1.391  14.032  23.531  0.00  0.00    +0.000 Br
ATOM     15  H   UNL     1      -0.969  17.900  24.665  0.00  0.00    +0.000 HD
ATOM     16  H   UNL     1      -1.210  16.254  24.996  0.00  0.00    +0.000 HD
ENDBRANCH   4   7
BRANCH   1  17
ATOM     17  C   UNL     1       0.027  10.848  19.091  0.00  0.00    +0.000 C 
BRANCH  17  18
ATOM     18  C   UNL     1       0.939   9.611  19.025  0.00  0.00    +0.000 A 
ATOM     19  C   UNL     1       1.141   8.786  20.142  0.00  0.00    +0.000 A 
ATOM     20  C   UNL     1       1.962   7.656  20.061  0.00  0.00    +0.000 A 
ATOM     21  C   UNL     1       2.588   7.309  18.857  0.00  0.00    +0.000 A 
ATOM     22  C   UNL     1       2.398   8.135  17.739  0.00  0.00    +0.000 A 
ATOM     23  C   UNL     1       1.589   9.275  17.822  0.00  0.00    +0.000 A 
BRANCH  21  24
ATOM     24  C   UNL     1       3.440   6.065  18.746  0.00  0.00    +0.000 C 
ATOM     25  F   UNL     1       2.791   5.006  18.188  0.00  0.00    +0.000 F 
ATOM     26  F   UNL     1       4.550   6.266  17.982  0.00  0.00    +0.000 F 
ATOM     27  F   UNL     1       3.893   5.630  19.954  0.00  0.00    +0.000 F 
ENDBRANCH  21  24
ENDBRANCH  17  18
BRANCH  17  29
ATOM     28  N   UNL     1      -2.250  10.326  17.581  0.00  0.00    +0.000 NA
ATOM     29  C   UNL     1      -1.218  10.563  18.266  0.00  0.00    +0.000 C 
ENDBRANCH  17  29
ENDBRANCH   1  17
TORSDOF 5
ENDMDL
MODEL 9
REMARK VINA RESULT:      -6.0      2.427      3.105
REMARK  Name = 
REMARK  5 active torsions:
REMARK  status: ('A' for Active; 'I' for Inactive)
REMARK    1  A    between atoms: C_2  and  C_3
REMARK    2  A    between atoms: C_3  and  C_4
REMARK    3  A    between atoms: C_3  and  N_14
REMARK    4  A    between atoms: C_7  and  C_8
REMARK    5  A    between atoms: N_17  and  C_18
REMARK                            x       y       z     vdW  Elec       q    Type
REMARK                         _______ _______ _______ _____ _____    ______ ____
ROOT
ATOM      1  N   UNL     1       0.593  12.146  18.590  0.00  0.00    +0.000 NA
ATOM      2  C   UNL     1      -0.335  13.323  18.658  0.00  0.00    +0.000 C 
ATOM      3  C   UNL     1      -0.543  13.930  20.075  0.00  0.00    +0.000 C 
ATOM      4  N   UNL     1       0.780  14.184  20.645  0.00  0.00    +0.000 N 
ATOM      5  C   UNL     1       1.663  13.024  20.710  0.00  0.00    +0.000 C 
ATOM      6  C   UNL     1       1.865  12.519  19.265  0.00  0.00    +0.000 C 
ENDROOT
BRANCH   4   7
ATOM      7  C   UNL     1       1.040  15.347  21.329  0.00  0.00    +0.000 A 
ATOM      8  N   UNL     1       0.598  15.403  22.602  0.00  0.00    +0.000 NA
ATOM      9  C   UNL     1       0.865  16.515  23.302  0.00  0.00    +0.000 A 
ATOM     10  N   UNL     1       1.535  17.586  22.863  0.00  0.00    +0.000 NA
ATOM     11  C   UNL     1       1.932  17.535  21.590  0.00  0.00    +0.000 A 
ATOM     12  N   UNL     1       2.678  18.631  21.145  0.00  0.00    +0.000 N 
ATOM     13  C   UNL     1       1.696  16.445  20.762  0.00  0.00    +0.000 A 
ATOM     14 BR   UNL     1       2.091  16.632  18.898  0.00  0.00    +0.000 Br
ATOM     15  H   UNL     1       2.644  19.369  21.836  0.00  0.00    +0.000 HD
ATOM     16  H   UNL     1       2.407  18.931  20.214  0.00  0.00    +0.000 HD
ENDBRANCH   4   7
BRANCH   1  17
ATOM     17  C   UNL     1      -0.017  10.951  19.218  0.00  0.00    +0.000 C 
BRANCH  17  18
ATOM     18  C   UNL     1       0.844   9.683  19.077  0.00  0.00    +0.000 A 
ATOM     19  C   UNL     1       1.386   9.297  17.841  0.00  0.00    +0.000 A 
ATOM     20  C   UNL     1       2.180   8.150  17.732  0.00  0.00    +0.000 A 
ATOM     21  C   UNL     1       2.469   7.369  18.859  0.00  0.00    +0.000 A 
ATOM     22  C   UNL     1       1.922   7.744  20.095  0.00  0.00    +0.000 A 
ATOM     23  C   UNL     1       1.115   8.883  20.203  0.00  0.00    +0.000 A 
BRANCH  21  24
ATOM     24  C   UNL     1       3.363   6.154  18.761  0.00  0.00    +0.000 C 
ATOM     25  F   UNL     1       2.797   5.111  18.093  0.00  0.00    +0.000 F 
ATOM     26  F   UNL     1       4.530   6.423  18.110  0.00  0.00    +0.000 F 
ATOM     27  F   UNL     1       3.721   5.666  19.980  0.00  0.00    +0.000 F 
ENDBRANCH  21  24
ENDBRANCH  17  18
BRANCH  17  29
ATOM     28  N   UNL     1      -2.522  10.424  18.131  0.00  0.00    +0.000 NA
ATOM     29  C   UNL     1      -1.386  10.662  18.624  0.00  0.00    +0.000 C 
ENDBRANCH  17  29
ENDBRANCH   1  17
TORSDOF 5
ENDMDL
