MODEL 1
REMARK VINA RESULT:      -6.9      0.000      0.000
REMARK  Name = 
REMARK  7 active torsions:
REMARK  status: ('A' for Active; 'I' for Inactive)
REMARK    1  A    between atoms: C_1  and  C_2
REMARK    2  A    between atoms: C_2  and  O_3
REMARK    3  A    between atoms: O_3  and  C_4
REMARK    4  A    between atoms: C_8  and  C_10
REMARK    5  A    between atoms: C_10  and  N_11
REMARK    6  A    between atoms: C_18  and  N_19
REMARK    7  A    between atoms: C_20  and  C_21
REMARK                            x       y       z     vdW  Elec       q    Type
REMARK                         _______ _______ _______ _____ _____    ______ ____
ROOT
ATOM      1  C   UNL     1       0.529   8.549  20.743  0.00  0.00    +0.000 A 
ATOM      2  N   UNL     1       1.372   7.491  20.846  0.00  0.00    +0.000 NA
ATOM      3  C   UNL     1       2.214   7.284  19.822  0.00  0.00    +0.000 A 
ATOM      4  N   UNL     1       3.087   6.208  19.957  0.00  0.00    +0.000 N 
ATOM      5  C   UNL     1       3.211   5.241  18.980  0.00  0.00    +0.000 C 
ATOM      6  O   UNL     1       2.672   5.289  17.875  0.00  0.00    +0.000 OA
ATOM      7  C   UNL     1       2.293   8.125  18.720  0.00  0.00    +0.000 A 
ATOM      8  C   UNL     1       1.444   9.230  18.629  0.00  0.00    +0.000 A 
ATOM      9  C   UNL     1       0.545   9.451  19.683  0.00  0.00    +0.000 A 
ATOM     10  H   UNL     1       3.227   5.866  20.900  0.00  0.00    +0.000 HD
ENDROOT
BRANCH   8  11
ATOM     11  N   UNL     1       1.705  10.192  17.634  0.00  0.00    +0.000 N 
ATOM     12  H   UNL     1       2.000   9.809  16.739  0.00  0.00    +0.000 HD
ATOM     13  H   UNL     1       1.008  10.925  17.525  0.00  0.00    +0.000 HD
ENDBRANCH   8  11
BRANCH   9  14
ATOM     14  C   UNL     1      -0.315  10.594  19.699  0.00  0.00    +0.000 C 
ATOM     15  N   UNL     1      -1.010  11.516  19.759  0.00  0.00    +0.000 NA
ENDBRANCH   9  14
BRANCH   1  16
ATOM     16  O   UNL     1      -0.416   8.725  21.739  0.00  0.00    +0.000 OA
BRANCH  16  18
ATOM     17  C   UNL     1      -0.901  10.509  23.276  0.00  0.00    +0.000 C 
ATOM     18  C   UNL     1       0.100   9.446  22.860  0.00  0.00    +0.000 C 
ENDBRANCH  16  18
ENDBRANCH   1  16
BRANCH   5  19
ATOM     19  C   UNL     1       4.135   4.080  19.355  0.00  0.00    +0.000 C 
BRANCH  19  20
ATOM     20  N   UNL     1       5.511   4.184  18.784  0.00  0.00    +0.000 NA
ATOM     21  C   UNL     1       5.471   4.280  17.311  0.00  0.00    +0.000 C 
ATOM     22  C   UNL     1       6.870   4.477  16.722  0.00  0.00    +0.000 C 
ATOM     23  C   UNL     1       7.526   5.729  17.286  0.00  0.00    +0.000 C 
ATOM     24  C   UNL     1       7.539   5.662  18.806  0.00  0.00    +0.000 C 
ATOM     25  C   UNL     1       6.138   5.398  19.358  0.00  0.00    +0.000 C 
ENDBRANCH  19  20
ENDBRANCH   5  19
TORSDOF 6
ENDMDL
MODEL 2
REMARK VINA RESULT:      -6.7      2.038      8.080
REMARK  Name = 
REMARK  7 active torsions:
REMARK  status: ('A' for Active; 'I' for Inactive)
REMARK    1  A    between atoms: C_1  and  C_2
REMARK    2  A    between atoms: C_2  and  O_3
REMARK    3  A    between atoms: O_3  and  C_4
REMARK    4  A    between atoms: C_8  and  C_10
REMARK    5  A    between atoms: C_10  and  N_11
REMARK    6  A    between atoms: C_18  and  N_19
REMARK    7  A    between atoms: C_20  and  C_21
REMARK                            x       y       z     vdW  Elec       q    Type
REMARK                         _______ _______ _______ _____ _____    ______ ____
ROOT
ATOM      1  C   UNL     1       2.759   5.390  18.513  0.00  0.00    +0.000 A 
ATOM      2  N   UNL     1       2.696   6.574  19.172  0.00  0.00    +0.000 NA
ATOM      3  C   UNL     1       1.956   6.607  20.290  0.00  0.00    +0.000 A 
ATOM      4  N   UNL     1       1.924   7.825  20.965  0.00  0.00    +0.000 N 
ATOM      5  C   UNL     1       0.736   8.426  21.329  0.00  0.00    +0.000 C 
ATOM      6  O   UNL     1      -0.376   7.912  21.207  0.00  0.00    +0.000 OA
ATOM      7  C   UNL     1       1.322   5.490  20.816  0.00  0.00    +0.000 A 
ATOM      8  C   UNL     1       1.411   4.265  20.151  0.00  0.00    +0.000 A 
ATOM      9  C   UNL     1       2.166   4.217  18.970  0.00  0.00    +0.000 A 
ATOM     10  H   UNL     1       2.668   8.475  20.744  0.00  0.00    +0.000 HD
ENDROOT
BRANCH   8  11
ATOM     11  N   UNL     1       0.967   3.108  20.821  0.00  0.00    +0.000 N 
ATOM     12  H   UNL     1       0.161   3.249  21.424  0.00  0.00    +0.000 HD
ATOM     13  H   UNL     1       0.879   2.268  20.255  0.00  0.00    +0.000 HD
ENDBRANCH   8  11
BRANCH   9  14
ATOM     14  C   UNL     1       2.360   2.990  18.262  0.00  0.00    +0.000 C 
ATOM     15  N   UNL     1       2.519   2.022  17.649  0.00  0.00    +0.000 NA
ENDBRANCH   9  14
BRANCH   1  16
ATOM     16  O   UNL     1       3.433   5.355  17.304  0.00  0.00    +0.000 OA
BRANCH  16  18
ATOM     17  C   UNL     1       5.514   4.402  16.571  0.00  0.00    +0.000 C 
ATOM     18  C   UNL     1       4.850   5.433  17.466  0.00  0.00    +0.000 C 
ENDBRANCH  16  18
ENDBRANCH   1  16
BRANCH   5  19
ATOM     19  C   UNL     1       0.897   9.810  21.962  0.00  0.00    +0.000 C 
BRANCH  19  20
ATOM     20  N   UNL     1      -0.310  10.682  21.841  0.00  0.00    +0.000 NA
ATOM     21  C   UNL     1      -0.983  10.841  23.147  0.00  0.00    +0.000 C 
ATOM     22  C   UNL     1      -2.170  11.805  23.052  0.00  0.00    +0.000 C 
ATOM     23  C   UNL     1      -1.722  13.171  22.552  0.00  0.00    +0.000 C 
ATOM     24  C   UNL     1      -0.991  13.018  21.226  0.00  0.00    +0.000 C 
ATOM     25  C   UNL     1       0.145  12.000  21.338  0.00  0.00    +0.000 C 
ENDBRANCH  19  20
ENDBRANCH   5  19
TORSDOF 6
ENDMDL
MODEL 3
REMARK VINA RESULT:      -6.6      4.341      6.851
REMARK  Name = 
REMARK  7 active torsions:
REMARK  status: ('A' for Active; 'I' for Inactive)
REMARK    1  A    between atoms: C_1  and  C_2
REMARK    2  A    between atoms: C_2  and  O_3
REMARK    3  A    between atoms: O_3  and  C_4
REMARK    4  A    between atoms: C_8  and  C_10
REMARK    5  A    between atoms: C_10  and  N_11
REMARK    6  A    between atoms: C_18  and  N_19
REMARK    7  A    between atoms: C_20  and  C_21
REMARK                            x       y       z     vdW  Elec       q    Type
REMARK                         _______ _______ _______ _____ _____    ______ ____
ROOT
ATOM      1  C   UNL     1       4.025   6.056  17.668  0.00  0.00    +0.000 A 
ATOM      2  N   UNL     1       4.707   7.227  17.603  0.00  0.00    +0.000 NA
ATOM      3  C   UNL     1       6.008   7.155  17.285  0.00  0.00    +0.000 A 
ATOM      4  N   UNL     1       6.684   8.370  17.200  0.00  0.00    +0.000 N 
ATOM      5  C   UNL     1       7.865   8.597  17.877  0.00  0.00    +0.000 C 
ATOM      6  O   UNL     1       8.486   7.743  18.510  0.00  0.00    +0.000 OA
ATOM      7  C   UNL     1       6.650   5.965  16.970  0.00  0.00    +0.000 A 
ATOM      8  C   UNL     1       5.940   4.763  17.009  0.00  0.00    +0.000 A 
ATOM      9  C   UNL     1       4.582   4.819  17.358  0.00  0.00    +0.000 A 
ATOM     10  H   UNL     1       6.105   9.193  17.087  0.00  0.00    +0.000 HD
ENDROOT
BRANCH   8  11
ATOM     11  N   UNL     1       6.541   3.615  16.458  0.00  0.00    +0.000 N 
ATOM     12  H   UNL     1       6.483   3.549  15.445  0.00  0.00    +0.000 HD
ATOM     13  H   UNL     1       7.470   3.385  16.804  0.00  0.00    +0.000 HD
ENDBRANCH   8  11
BRANCH   9  14
ATOM     14  C   UNL     1       3.768   3.643  17.360  0.00  0.00    +0.000 C 
ATOM     15  N   UNL     1       3.086   2.709  17.401  0.00  0.00    +0.000 NA
ENDBRANCH   9  14
BRANCH   1  16
ATOM     16  O   UNL     1       2.708   6.094  18.091  0.00  0.00    +0.000 OA
BRANCH  16  18
ATOM     17  C   UNL     1       1.942   5.389  20.257  0.00  0.00    +0.000 C 
ATOM     18  C   UNL     1       2.583   6.505  19.453  0.00  0.00    +0.000 C 
ENDBRANCH  16  18
ENDBRANCH   1  16
BRANCH   5  19
ATOM     19  C   UNL     1       8.400  10.025  17.751  0.00  0.00    +0.000 C 
BRANCH  19  20
ATOM     20  N   UNL     1       9.532  10.338  18.674  0.00  0.00    +0.000 NA
ATOM     21  C   UNL     1      10.532  11.203  18.015  0.00  0.00    +0.000 C 
ATOM     22  C   UNL     1      11.651  11.603  18.980  0.00  0.00    +0.000 C 
ATOM     23  C   UNL     1      11.090  12.327  20.195  0.00  0.00    +0.000 C 
ATOM     24  C   UNL     1      10.029  11.463  20.862  0.00  0.00    +0.000 C 
ATOM     25  C   UNL     1       8.962  11.026  19.857  0.00  0.00    +0.000 C 
ENDBRANCH  19  20
ENDBRANCH   5  19
TORSDOF 6
ENDMDL
MODEL 4
REMARK VINA RESULT:      -6.6      6.560      7.927
REMARK  Name = 
REMARK  7 active torsions:
REMARK  status: ('A' for Active; 'I' for Inactive)
REMARK    1  A    between atoms: C_1  and  C_2
REMARK    2  A    between atoms: C_2  and  O_3
REMARK    3  A    between atoms: O_3  and  C_4
REMARK    4  A    between atoms: C_8  and  C_10
REMARK    5  A    between atoms: C_10  and  N_11
REMARK    6  A    between atoms: C_18  and  N_19
REMARK    7  A    between atoms: C_20  and  C_21
REMARK                            x       y       z     vdW  Elec       q    Type
REMARK                         _______ _______ _______ _____ _____    ______ ____
ROOT
ATOM      1  C   UNL     1       9.714  12.241  20.392  0.00  0.00    +0.000 A 
ATOM      2  N   UNL     1       9.307  10.950  20.322  0.00  0.00    +0.000 NA
ATOM      3  C   UNL     1       9.477  10.322  19.149  0.00  0.00    +0.000 A 
ATOM      4  N   UNL     1       9.075   8.989  19.105  0.00  0.00    +0.000 N 
ATOM      5  C   UNL     1       8.229   8.515  18.123  0.00  0.00    +0.000 C 
ATOM      6  O   UNL     1       7.850   9.166  17.150  0.00  0.00    +0.000 OA
ATOM      7  C   UNL     1      10.095  10.911  18.054  0.00  0.00    +0.000 A 
ATOM      8  C   UNL     1      10.540  12.232  18.137  0.00  0.00    +0.000 A 
ATOM      9  C   UNL     1      10.352  12.909  19.351  0.00  0.00    +0.000 A 
ATOM     10  H   UNL     1       8.974   8.526  20.000  0.00  0.00    +0.000 HD
ENDROOT
BRANCH   8  11
ATOM     11  N   UNL     1      11.369  12.723  17.109  0.00  0.00    +0.000 N 
ATOM     12  H   UNL     1      12.304  12.989  17.406  0.00  0.00    +0.000 HD
ATOM     13  H   UNL     1      11.381  12.183  16.247  0.00  0.00    +0.000 HD
ENDBRANCH   8  11
BRANCH   9  14
ATOM     14  C   UNL     1      10.835  14.242  19.540  0.00  0.00    +0.000 C 
ATOM     15  N   UNL     1      11.204  15.321  19.736  0.00  0.00    +0.000 NA
ENDBRANCH   9  14
BRANCH   1  16
ATOM     16  O   UNL     1       9.458  12.941  21.559  0.00  0.00    +0.000 OA
BRANCH  16  18
ATOM     17  C   UNL     1       8.480  12.291  23.656  0.00  0.00    +0.000 C 
ATOM     18  C   UNL     1       8.235  12.539  22.179  0.00  0.00    +0.000 C 
ENDBRANCH  16  18
ENDBRANCH   1  16
BRANCH   5  19
ATOM     19  C   UNL     1       7.810   7.054  18.303  0.00  0.00    +0.000 C 
BRANCH  19  20
ATOM     20  N   UNL     1       7.202   6.438  17.087  0.00  0.00    +0.000 NA
ATOM     21  C   UNL     1       7.394   4.973  17.079  0.00  0.00    +0.000 C 
ATOM     22  C   UNL     1       6.697   4.321  15.882  0.00  0.00    +0.000 C 
ATOM     23  C   UNL     1       5.207   4.627  15.888  0.00  0.00    +0.000 C 
ATOM     24  C   UNL     1       4.992   6.133  15.935  0.00  0.00    +0.000 C 
ATOM     25  C   UNL     1       5.756   6.762  17.102  0.00  0.00    +0.000 C 
ENDBRANCH  19  20
ENDBRANCH   5  19
TORSDOF 6
ENDMDL
MODEL 5
REMARK VINA RESULT:      -6.6      6.291      7.527
REMARK  Name = 
REMARK  7 active torsions:
REMARK  status: ('A' for Active; 'I' for Inactive)
REMARK    1  A    between atoms: C_1  and  C_2
REMARK    2  A    between atoms: C_2  and  O_3
REMARK    3  A    between atoms: O_3  and  C_4
REMARK    4  A    between atoms: C_8  and  C_10
REMARK    5  A    between atoms: C_10  and  N_11
REMARK    6  A    between atoms: C_18  and  N_19
REMARK    7  A    between atoms: C_20  and  C_21
REMARK                            x       y       z     vdW  Elec       q    Type
REMARK                         _______ _______ _______ _____ _____    ______ ____
ROOT
ATOM      1  C   UNL     1       9.475  11.958  20.589  0.00  0.00    +0.000 A 
ATOM      2  N   UNL     1       9.231  10.636  20.405  0.00  0.00    +0.000 NA
ATOM      3  C   UNL     1       9.216  10.193  19.139  0.00  0.00    +0.000 A 
ATOM      4  N   UNL     1       8.988   8.829  18.973  0.00  0.00    +0.000 N 
ATOM      5  C   UNL     1       8.013   8.351  18.121  0.00  0.00    +0.000 C 
ATOM      6  O   UNL     1       7.346   9.048  17.357  0.00  0.00    +0.000 OA
ATOM      7  C   UNL     1       9.493  11.002  18.046  0.00  0.00    +0.000 A 
ATOM      8  C   UNL     1       9.772  12.357  18.239  0.00  0.00    +0.000 A 
ATOM      9  C   UNL     1       9.774  12.841  19.556  0.00  0.00    +0.000 A 
ATOM     10  H   UNL     1       9.149   8.249  19.787  0.00  0.00    +0.000 HD
ENDROOT
BRANCH   8  11
ATOM     11  N   UNL     1      10.280  13.095  17.153  0.00  0.00    +0.000 N 
ATOM     12  H   UNL     1      10.657  12.532  16.395  0.00  0.00    +0.000 HD
ATOM     13  H   UNL     1       9.693  13.853  16.812  0.00  0.00    +0.000 HD
ENDBRANCH   8  11
BRANCH   9  14
ATOM     14  C   UNL     1      10.112  14.200  19.846  0.00  0.00    +0.000 C 
ATOM     15  N   UNL     1      10.342  15.313  20.063  0.00  0.00    +0.000 NA
ENDBRANCH   9  14
BRANCH   1  16
ATOM     16  O   UNL     1       9.398  12.459  21.878  0.00  0.00    +0.000 OA
BRANCH  16  18
ATOM     17  C   UNL     1       8.129  12.681  23.906  0.00  0.00    +0.000 C 
ATOM     18  C   UNL     1       8.305  11.906  22.614  0.00  0.00    +0.000 C 
ENDBRANCH  16  18
ENDBRANCH   1  16
BRANCH   5  19
ATOM     19  C   UNL     1       7.835   6.831  18.155  0.00  0.00    +0.000 C 
BRANCH  19  20
ATOM     20  N   UNL     1       6.535   6.354  17.596  0.00  0.00    +0.000 NA
ATOM     21  C   UNL     1       6.732   5.657  16.309  0.00  0.00    +0.000 C 
ATOM     22  C   UNL     1       5.417   5.087  15.772  0.00  0.00    +0.000 C 
ATOM     23  C   UNL     1       4.795   4.122  16.770  0.00  0.00    +0.000 C 
ATOM     24  C   UNL     1       4.622   4.814  18.115  0.00  0.00    +0.000 C 
ATOM     25  C   UNL     1       5.938   5.431  18.590  0.00  0.00    +0.000 C 
ENDBRANCH  19  20
ENDBRANCH   5  19
TORSDOF 6
ENDMDL
MODEL 6
REMARK VINA RESULT:      -6.5      2.077      7.487
REMARK  Name = 
REMARK  7 active torsions:
REMARK  status: ('A' for Active; 'I' for Inactive)
REMARK    1  A    between atoms: C_1  and  C_2
REMARK    2  A    between atoms: C_2  and  O_3
REMARK    3  A    between atoms: O_3  and  C_4
REMARK    4  A    between atoms: C_8  and  C_10
REMARK    5  A    between atoms: C_10  and  N_11
REMARK    6  A    between atoms: C_18  and  N_19
REMARK    7  A    between atoms: C_20  and  C_21
REMARK                            x       y       z     vdW  Elec       q    Type
REMARK                         _______ _______ _______ _____ _____    ______ ____
ROOT
ATOM      1  C   UNL     1       2.715   5.546  18.487  0.00  0.00    +0.000 A 
ATOM      2  N   UNL     1       2.699   6.671  19.243  0.00  0.00    +0.000 NA
ATOM      3  C   UNL     1       1.950   6.645  20.356  0.00  0.00    +0.000 A 
ATOM      4  N   UNL     1       1.967   7.802  21.131  0.00  0.00    +0.000 N 
ATOM      5  C   UNL     1       0.805   8.425  21.537  0.00  0.00    +0.000 C 
ATOM      6  O   UNL     1      -0.328   7.976  21.365  0.00  0.00    +0.000 OA
ATOM      7  C   UNL     1       1.260   5.518  20.782  0.00  0.00    +0.000 A 
ATOM      8  C   UNL     1       1.300   4.350  20.017  0.00  0.00    +0.000 A 
ATOM      9  C   UNL     1       2.063   4.367  18.840  0.00  0.00    +0.000 A 
ATOM     10  H   UNL     1       2.742   8.433  20.970  0.00  0.00    +0.000 HD
ENDROOT
BRANCH   8  11
ATOM     11  N   UNL     1       0.796   3.164  20.584  0.00  0.00    +0.000 N 
ATOM     12  H   UNL     1       1.498   2.565  21.011  0.00  0.00    +0.000 HD
ATOM     13  H   UNL     1      -0.029   3.262  21.170  0.00  0.00    +0.000 HD
ENDBRANCH   8  11
BRANCH   9  14
ATOM     14  C   UNL     1       2.208   3.195  18.032  0.00  0.00    +0.000 C 
ATOM     15  N   UNL     1       2.283   2.232  17.397  0.00  0.00    +0.000 NA
ENDBRANCH   9  14
BRANCH   1  16
ATOM     16  O   UNL     1       3.398   5.581  17.283  0.00  0.00    +0.000 OA
BRANCH  16  18
ATOM     17  C   UNL     1       5.376   6.177  16.056  0.00  0.00    +0.000 C 
ATOM     18  C   UNL     1       4.723   6.096  17.423  0.00  0.00    +0.000 C 
ENDBRANCH  16  18
ENDBRANCH   1  16
BRANCH   5  19
ATOM     19  C   UNL     1       1.023   9.742  22.285  0.00  0.00    +0.000 C 
BRANCH  19  20
ATOM     20  N   UNL     1       0.668  10.960  21.496  0.00  0.00    +0.000 NA
ATOM     21  C   UNL     1       0.762  10.700  20.045  0.00  0.00    +0.000 C 
ATOM     22  C   UNL     1       0.315  11.914  19.227  0.00  0.00    +0.000 C 
ATOM     23  C   UNL     1      -1.115  12.305  19.571  0.00  0.00    +0.000 C 
ATOM     24  C   UNL     1      -1.237  12.538  21.070  0.00  0.00    +0.000 C 
ATOM     25  C   UNL     1      -0.720  11.334  21.858  0.00  0.00    +0.000 C 
ENDBRANCH  19  20
ENDBRANCH   5  19
TORSDOF 6
ENDMDL
MODEL 7
REMARK VINA RESULT:      -6.5      5.022      7.582
REMARK  Name = 
REMARK  7 active torsions:
REMARK  status: ('A' for Active; 'I' for Inactive)
REMARK    1  A    between atoms: C_1  and  C_2
REMARK    2  A    between atoms: C_2  and  O_3
REMARK    3  A    between atoms: O_3  and  C_4
REMARK    4  A    between atoms: C_8  and  C_10
REMARK    5  A    between atoms: C_10  and  N_11
REMARK    6  A    between atoms: C_18  and  N_19
REMARK    7  A    between atoms: C_20  and  C_21
REMARK                            x       y       z     vdW  Elec       q    Type
REMARK                         _______ _______ _______ _____ _____    ______ ____
ROOT
ATOM      1  C   UNL     1       4.993   6.531  17.462  0.00  0.00    +0.000 A 
ATOM      2  N   UNL     1       5.653   7.706  17.312  0.00  0.00    +0.000 NA
ATOM      3  C   UNL     1       6.982   7.684  17.498  0.00  0.00    +0.000 A 
ATOM      4  N   UNL     1       7.644   8.896  17.316  0.00  0.00    +0.000 N 
ATOM      5  C   UNL     1       8.501   9.408  18.268  0.00  0.00    +0.000 C 
ATOM      6  O   UNL     1       8.852   8.816  19.288  0.00  0.00    +0.000 OA
ATOM      7  C   UNL     1       7.693   6.524  17.770  0.00  0.00    +0.000 A 
ATOM      8  C   UNL     1       7.015   5.309  17.896  0.00  0.00    +0.000 A 
ATOM      9  C   UNL     1       5.623   5.317  17.723  0.00  0.00    +0.000 A 
ATOM     10  H   UNL     1       7.145   9.598  16.784  0.00  0.00    +0.000 HD
ENDROOT
BRANCH   8  11
ATOM     11  N   UNL     1       7.773   4.122  17.932  0.00  0.00    +0.000 N 
ATOM     12  H   UNL     1       7.395   3.359  17.377  0.00  0.00    +0.000 HD
ATOM     13  H   UNL     1       8.777   4.228  17.803  0.00  0.00    +0.000 HD
ENDBRANCH   8  11
BRANCH   9  14
ATOM     14  C   UNL     1       4.861   4.108  17.773  0.00  0.00    +0.000 C 
ATOM     15  N   UNL     1       4.277   3.112  17.846  0.00  0.00    +0.000 NA
ENDBRANCH   9  14
BRANCH   1  16
ATOM     16  O   UNL     1       3.612   6.546  17.374  0.00  0.00    +0.000 OA
BRANCH  16  18
ATOM     17  C   UNL     1       2.209   8.441  17.839  0.00  0.00    +0.000 C 
ATOM     18  C   UNL     1       3.006   7.293  18.431  0.00  0.00    +0.000 C 
ENDBRANCH  16  18
ENDBRANCH   1  16
BRANCH   5  19
ATOM     19  C   UNL     1       9.048  10.800  17.941  0.00  0.00    +0.000 C 
BRANCH  19  20
ATOM     20  N   UNL     1       9.890  11.396  19.020  0.00  0.00    +0.000 NA
ATOM     21  C   UNL     1      11.318  11.399  18.641  0.00  0.00    +0.000 C 
ATOM     22  C   UNL     1      12.179  12.089  19.703  0.00  0.00    +0.000 C 
ATOM     23  C   UNL     1      11.721  13.522  19.927  0.00  0.00    +0.000 C 
ATOM     24  C   UNL     1      10.241  13.539  20.280  0.00  0.00    +0.000 C 
ATOM     25  C   UNL     1       9.417  12.785  19.235  0.00  0.00    +0.000 C 
ENDBRANCH  19  20
ENDBRANCH   5  19
TORSDOF 6
ENDMDL
MODEL 8
REMARK VINA RESULT:      -6.5      5.692      8.309
REMARK  Name = 
REMARK  7 active torsions:
REMARK  status: ('A' for Active; 'I' for Inactive)
REMARK    1  A    between atoms: C_1  and  C_2
REMARK    2  A    between atoms: C_2  and  O_3
REMARK    3  A    between atoms: O_3  and  C_4
REMARK    4  A    between atoms: C_8  and  C_10
REMARK    5  A    between atoms: C_10  and  N_11
REMARK    6  A    between atoms: C_18  and  N_19
REMARK    7  A    between atoms: C_20  and  C_21
REMARK                            x       y       z     vdW  Elec       q    Type
REMARK                         _______ _______ _______ _____ _____    ______ ____
ROOT
ATOM      1  C   UNL     1       6.056   6.756  17.578  0.00  0.00    +0.000 A 
ATOM      2  N   UNL     1       6.707   7.895  17.232  0.00  0.00    +0.000 NA
ATOM      3  C   UNL     1       7.849   8.163  17.882  0.00  0.00    +0.000 A 
ATOM      4  N   UNL     1       8.514   9.324  17.495  0.00  0.00    +0.000 N 
ATOM      5  C   UNL     1       8.912  10.277  18.410  0.00  0.00    +0.000 C 
ATOM      6  O   UNL     1       8.831  10.152  19.632  0.00  0.00    +0.000 OA
ATOM      7  C   UNL     1       8.405   7.311  18.826  0.00  0.00    +0.000 A 
ATOM      8  C   UNL     1       7.748   6.125  19.162  0.00  0.00    +0.000 A 
ATOM      9  C   UNL     1       6.543   5.838  18.504  0.00  0.00    +0.000 A 
ATOM     10  H   UNL     1       8.263   9.698  16.588  0.00  0.00    +0.000 HD
ENDROOT
BRANCH   8  11
ATOM     11  N   UNL     1       8.442   5.173  19.934  0.00  0.00    +0.000 N 
ATOM     12  H   UNL     1       7.928   4.315  20.114  0.00  0.00    +0.000 HD
ATOM     13  H   UNL     1       9.406   4.992  19.662  0.00  0.00    +0.000 HD
ENDBRANCH   8  11
BRANCH   9  14
ATOM     14  C   UNL     1       5.840   4.616  18.743  0.00  0.00    +0.000 C 
ATOM     15  N   UNL     1       5.258   3.644  18.979  0.00  0.00    +0.000 NA
ENDBRANCH   9  14
BRANCH   1  16
ATOM     16  O   UNL     1       4.826   6.508  16.994  0.00  0.00    +0.000 OA
BRANCH  16  18
ATOM     17  C   UNL     1       2.832   6.664  18.326  0.00  0.00    +0.000 C 
ATOM     18  C   UNL     1       3.815   7.412  17.445  0.00  0.00    +0.000 C 
ENDBRANCH  16  18
ENDBRANCH   1  16
BRANCH   5  19
ATOM     19  C   UNL     1       9.527  11.532  17.787  0.00  0.00    +0.000 C 
BRANCH  19  20
ATOM     20  N   UNL     1      10.186  12.443  18.770  0.00  0.00    +0.000 NA
ATOM     21  C   UNL     1      11.654  12.433  18.603  0.00  0.00    +0.000 C 
ATOM     22  C   UNL     1      12.333  13.431  19.546  0.00  0.00    +0.000 C 
ATOM     23  C   UNL     1      11.814  14.841  19.311  0.00  0.00    +0.000 C 
ATOM     24  C   UNL     1      10.298  14.859  19.440  0.00  0.00    +0.000 C 
ATOM     25  C   UNL     1       9.655  13.807  18.536  0.00  0.00    +0.000 C 
ENDBRANCH  19  20
ENDBRANCH   5  19
TORSDOF 6
ENDMDL
MODEL 9
REMARK VINA RESULT:      -6.5      3.047      5.618
REMARK  Name = 
REMARK  7 active torsions:
REMARK  status: ('A' for Active; 'I' for Inactive)
REMARK    1  A    between atoms: C_1  and  C_2
REMARK    2  A    between atoms: C_2  and  O_3
REMARK    3  A    between atoms: O_3  and  C_4
REMARK    4  A    between atoms: C_8  and  C_10
REMARK    5  A    between atoms: C_10  and  N_11
REMARK    6  A    between atoms: C_18  and  N_19
REMARK    7  A    between atoms: C_20  and  C_21
REMARK                            x       y       z     vdW  Elec       q    Type
REMARK                         _______ _______ _______ _____ _____    ______ ____
ROOT
ATOM      1  C   UNL     1       2.835   4.961  19.618  0.00  0.00    +0.000 A 
ATOM      2  N   UNL     1       3.592   5.512  18.636  0.00  0.00    +0.000 NA
ATOM      3  C   UNL     1       4.246   4.666  17.826  0.00  0.00    +0.000 A 
ATOM      4  N   UNL     1       4.997   5.251  16.810  0.00  0.00    +0.000 N 
ATOM      5  C   UNL     1       6.324   4.929  16.606  0.00  0.00    +0.000 C 
ATOM      6  O   UNL     1       6.929   4.038  17.201  0.00  0.00    +0.000 OA
ATOM      7  C   UNL     1       4.132   3.285  17.916  0.00  0.00    +0.000 A 
ATOM      8  C   UNL     1       3.329   2.719  18.910  0.00  0.00    +0.000 A 
ATOM      9  C   UNL     1       2.653   3.590  19.776  0.00  0.00    +0.000 A 
ATOM     10  H   UNL     1       4.761   6.208  16.578  0.00  0.00    +0.000 HD
ENDROOT
BRANCH   8  11
ATOM     11  N   UNL     1       3.041   1.343  18.830  0.00  0.00    +0.000 N 
ATOM     12  H   UNL     1       2.207   1.113  18.296  0.00  0.00    +0.000 HD
ATOM     13  H   UNL     1       3.822   0.733  18.600  0.00  0.00    +0.000 HD
ENDBRANCH   8  11
BRANCH   9  14
ATOM     14  C   UNL     1       1.763   3.094  20.780  0.00  0.00    +0.000 C 
ATOM     15  N   UNL     1       1.053   2.732  21.619  0.00  0.00    +0.000 NA
ENDBRANCH   9  14
BRANCH   1  16
ATOM     16  O   UNL     1       2.231   5.811  20.527  0.00  0.00    +0.000 OA
BRANCH  16  18
ATOM     17  C   UNL     1       1.308   7.976  21.016  0.00  0.00    +0.000 C 
ATOM     18  C   UNL     1       2.099   7.143  20.025  0.00  0.00    +0.000 C 
ENDBRANCH  16  18
ENDBRANCH   1  16
BRANCH   5  19
ATOM     19  C   UNL     1       7.013   5.755  15.517  0.00  0.00    +0.000 C 
BRANCH  19  20
ATOM     20  N   UNL     1       6.648   5.357  14.125  0.00  0.00    +0.000 NA
ATOM     21  C   UNL     1       7.840   5.314  13.253  0.00  0.00    +0.000 C 
ATOM     22  C   UNL     1       7.490   4.821  11.847  0.00  0.00    +0.000 C 
ATOM     23  C   UNL     1       6.859   3.438  11.896  0.00  0.00    +0.000 C 
ATOM     24  C   UNL     1       5.651   3.457  12.822  0.00  0.00    +0.000 C 
ATOM     25  C   UNL     1       6.020   4.017  14.197  0.00  0.00    +0.000 C 
ENDBRANCH  19  20
ENDBRANCH   5  19
TORSDOF 6
ENDMDL
