MODEL 1
REMARK VINA RESULT:      -9.1      0.000      0.000
REMARK  Name = 
REMARK  11 active torsions:
REMARK  status: ('A' for Active; 'I' for Inactive)
REMARK    1  A    between atoms: C_1  and  C_2
REMARK    2  A    between atoms: C_5  and  C_6
REMARK    3  A    between atoms: C_6  and  N_7
REMARK    4  A    between atoms: C_8  and  C_10
REMARK    5  A    between atoms: C_10  and  C_11
REMARK    6  A    between atoms: C_10  and  N_18
REMARK    7  A    between atoms: C_11  and  C_12
REMARK    8  A    between atoms: C_21  and  C_22
REMARK    9  A    between atoms: N_25  and  C_26
REMARK   10  A    between atoms: C_26  and  C_27
REMARK   11  A    between atoms: C_32  and  C_33
REMARK                            x       y       z     vdW  Elec       q    Type
REMARK                         _______ _______ _______ _____ _____    ______ ____
ROOT
ATOM      1  C   UNL     1       2.814   6.925  18.570  0.00  0.00    +0.000 C 
ENDROOT
BRANCH   1   2
ATOM      2  N   UNL     1       2.084   8.184  18.268  0.00  0.00    +0.000 N 
ATOM      3  C   UNL     1       1.586   9.001  19.284  0.00  0.00    +0.000 A 
ATOM      4  C   UNL     1       1.125   8.502  20.486  0.00  0.00    +0.000 A 
ATOM      5  C   UNL     1       0.612   9.412  21.384  0.00  0.00    +0.000 A 
ATOM      6  C   UNL     1       0.021   8.981  22.690  0.00  0.00    +0.000 C 
ATOM      7  N   UNL     1       0.595  10.727  21.124  0.00  0.00    +0.000 NA
ATOM      8  C   UNL     1       0.977  11.134  19.909  0.00  0.00    +0.000 A 
ATOM      9  N   UNL     1       0.882  12.482  19.721  0.00  0.00    +0.000 N 
ATOM     10  N   UNL     1       1.445  10.305  18.968  0.00  0.00    +0.000 NA
ATOM     11  H   UNL     1       1.271   7.970  17.690  0.00  0.00    +0.000 HD
ATOM     12  H   UNL     1       1.318  12.994  20.471  0.00  0.00    +0.000 HD
BRANCH   9  13
ATOM     13  C   UNL     1       0.745  13.139  18.447  0.00  0.00    +0.000 C 
BRANCH  13  14
ATOM     14  C   UNL     1       1.749  14.294  18.412  0.00  0.00    +0.000 A 
ATOM     15  C   UNL     1       3.100  13.973  18.160  0.00  0.00    +0.000 A 
ATOM     16  C   UNL     1       4.089  14.960  18.081  0.00  0.00    +0.000 A 
ATOM     17  C   UNL     1       3.748  16.294  18.266  0.00  0.00    +0.000 A 
ATOM     18  C   UNL     1       2.420  16.634  18.525  0.00  0.00    +0.000 A 
ATOM     19  C   UNL     1       1.411  15.649  18.602  0.00  0.00    +0.000 A 
ATOM     20  C   UNL     1       0.006  16.109  18.880  0.00  0.00    +0.000 C 
ENDBRANCH  13  14
ENDBRANCH   9  13
ENDBRANCH   1   2
BRANCH   1  22
ATOM     21  N   UNL     1       5.047   5.867  18.239  0.00  0.00    +0.000 N 
ATOM     22  C   UNL     1       4.172   6.853  17.813  0.00  0.00    +0.000 C 
ATOM     23  O   UNL     1       4.422   7.558  16.835  0.00  0.00    +0.000 OA
ATOM     24  H   UNL     1       4.980   5.597  19.212  0.00  0.00    +0.000 HD
BRANCH  21  25
ATOM     25  C   UNL     1       6.349   5.750  17.616  0.00  0.00    +0.000 C 
BRANCH  25  30
ATOM     26  C   UNL     1       5.926   3.343  12.324  0.00  0.00    +0.000 C 
ATOM     27  C   UNL     1       6.083   3.889  13.711  0.00  0.00    +0.000 A 
ATOM     28  C   UNL     1       5.183   3.544  14.730  0.00  0.00    +0.000 A 
ATOM     29  C   UNL     1       5.304   4.111  15.999  0.00  0.00    +0.000 A 
ATOM     30  C   UNL     1       6.316   5.042  16.282  0.00  0.00    +0.000 A 
ATOM     31  C   UNL     1       7.236   5.357  15.276  0.00  0.00    +0.000 A 
ATOM     32  C   UNL     1       7.114   4.794  14.001  0.00  0.00    +0.000 A 
ENDBRANCH  25  30
ENDBRANCH  21  25
ENDBRANCH   1  22
BRANCH   1  33
ATOM     33  C   UNL     1       1.958   5.703  18.135  0.00  0.00    +0.000 C 
BRANCH  33  34
ATOM     34  C   UNL     1       1.796   4.611  19.173  0.00  0.00    +0.000 A 
ATOM     35  C   UNL     1       1.457   3.307  18.778  0.00  0.00    +0.000 A 
ATOM     36  C   UNL     1       1.390   2.274  19.714  0.00  0.00    +0.000 A 
ATOM     37  C   UNL     1       1.659   2.530  21.057  0.00  0.00    +0.000 A 
ATOM     38  C   UNL     1       1.987   3.822  21.464  0.00  0.00    +0.000 A 
ATOM     39  C   UNL     1       2.059   4.856  20.528  0.00  0.00    +0.000 A 
ENDBRANCH  33  34
ENDBRANCH   1  33
TORSDOF 8
ENDMDL
MODEL 2
REMARK VINA RESULT:      -9.0      0.172      1.149
REMARK  Name = 
REMARK  11 active torsions:
REMARK  status: ('A' for Active; 'I' for Inactive)
REMARK    1  A    between atoms: C_1  and  C_2
REMARK    2  A    between atoms: C_5  and  C_6
REMARK    3  A    between atoms: C_6  and  N_7
REMARK    4  A    between atoms: C_8  and  C_10
REMARK    5  A    between atoms: C_10  and  C_11
REMARK    6  A    between atoms: C_10  and  N_18
REMARK    7  A    between atoms: C_11  and  C_12
REMARK    8  A    between atoms: C_21  and  C_22
REMARK    9  A    between atoms: N_25  and  C_26
REMARK   10  A    between atoms: C_26  and  C_27
REMARK   11  A    between atoms: C_32  and  C_33
REMARK                            x       y       z     vdW  Elec       q    Type
REMARK                         _______ _______ _______ _____ _____    ______ ____
ROOT
ATOM      1  C   UNL     1       2.785   6.898  18.614  0.00  0.00    +0.000 C 
ENDROOT
BRANCH   1   2
ATOM      2  N   UNL     1       2.076   8.168  18.308  0.00  0.00    +0.000 N 
ATOM      3  C   UNL     1       1.573   8.986  19.319  0.00  0.00    +0.000 A 
ATOM      4  C   UNL     1       1.086   8.487  20.512  0.00  0.00    +0.000 A 
ATOM      5  C   UNL     1       0.570   9.398  21.406  0.00  0.00    +0.000 A 
ATOM      6  C   UNL     1      -0.047   8.969  22.700  0.00  0.00    +0.000 C 
ATOM      7  N   UNL     1       0.575  10.715  21.153  0.00  0.00    +0.000 NA
ATOM      8  C   UNL     1       0.982  11.124  19.947  0.00  0.00    +0.000 A 
ATOM      9  N   UNL     1       0.907  12.474  19.764  0.00  0.00    +0.000 N 
ATOM     10  N   UNL     1       1.454  10.294  19.009  0.00  0.00    +0.000 NA
ATOM     11  H   UNL     1       1.270   7.968  17.715  0.00  0.00    +0.000 HD
ATOM     12  H   UNL     1       1.338  12.977  20.525  0.00  0.00    +0.000 HD
BRANCH   9  13
ATOM     13  C   UNL     1       0.799  13.139  18.493  0.00  0.00    +0.000 C 
BRANCH  13  14
ATOM     14  C   UNL     1       1.876  14.227  18.446  0.00  0.00    +0.000 A 
ATOM     15  C   UNL     1       3.210  13.811  18.247  0.00  0.00    +0.000 A 
ATOM     16  C   UNL     1       4.262  14.729  18.161  0.00  0.00    +0.000 A 
ATOM     17  C   UNL     1       4.002  16.089  18.288  0.00  0.00    +0.000 A 
ATOM     18  C   UNL     1       2.693  16.522  18.495  0.00  0.00    +0.000 A 
ATOM     19  C   UNL     1       1.621  15.607  18.576  0.00  0.00    +0.000 A 
ATOM     20  C   UNL     1       0.240  16.165  18.795  0.00  0.00    +0.000 C 
ENDBRANCH  13  14
ENDBRANCH   9  13
ENDBRANCH   1   2
BRANCH   1  22
ATOM     21  N   UNL     1       4.950   5.731  18.209  0.00  0.00    +0.000 N 
ATOM     22  C   UNL     1       4.147   6.806  17.866  0.00  0.00    +0.000 C 
ATOM     23  O   UNL     1       4.456   7.578  16.958  0.00  0.00    +0.000 OA
ATOM     24  H   UNL     1       4.851   5.380  19.154  0.00  0.00    +0.000 HD
BRANCH  21  25
ATOM     25  C   UNL     1       6.251   5.585  17.590  0.00  0.00    +0.000 C 
BRANCH  25  30
ATOM     26  C   UNL     1       6.280   3.293  12.231  0.00  0.00    +0.000 C 
ATOM     27  C   UNL     1       6.228   3.955  13.575  0.00  0.00    +0.000 A 
ATOM     28  C   UNL     1       7.215   4.870  13.970  0.00  0.00    +0.000 A 
ATOM     29  C   UNL     1       7.190   5.427  15.248  0.00  0.00    +0.000 A 
ATOM     30  C   UNL     1       6.187   5.082  16.168  0.00  0.00    +0.000 A 
ATOM     31  C   UNL     1       5.181   4.198  15.761  0.00  0.00    +0.000 A 
ATOM     32  C   UNL     1       5.209   3.633  14.482  0.00  0.00    +0.000 A 
ENDBRANCH  25  30
ENDBRANCH  21  25
ENDBRANCH   1  22
BRANCH   1  33
ATOM     33  C   UNL     1       1.914   5.690  18.172  0.00  0.00    +0.000 C 
BRANCH  33  34
ATOM     34  C   UNL     1       1.811   4.553  19.170  0.00  0.00    +0.000 A 
ATOM     35  C   UNL     1       2.050   4.788  20.533  0.00  0.00    +0.000 A 
ATOM     36  C   UNL     1       1.873   3.770  21.472  0.00  0.00    +0.000 A 
ATOM     37  C   UNL     1       1.458   2.506  21.062  0.00  0.00    +0.000 A 
ATOM     38  C   UNL     1       1.227   2.256  19.710  0.00  0.00    +0.000 A 
ATOM     39  C   UNL     1       1.398   3.275  18.769  0.00  0.00    +0.000 A 
ENDBRANCH  33  34
ENDBRANCH   1  33
TORSDOF 8
ENDMDL
MODEL 3
REMARK VINA RESULT:      -8.9      0.486      1.537
REMARK  Name = 
REMARK  11 active torsions:
REMARK  status: ('A' for Active; 'I' for Inactive)
REMARK    1  A    between atoms: C_1  and  C_2
REMARK    2  A    between atoms: C_5  and  C_6
REMARK    3  A    between atoms: C_6  and  N_7
REMARK    4  A    between atoms: C_8  and  C_10
REMARK    5  A    between atoms: C_10  and  C_11
REMARK    6  A    between atoms: C_10  and  N_18
REMARK    7  A    between atoms: C_11  and  C_12
REMARK    8  A    between atoms: C_21  and  C_22
REMARK    9  A    between atoms: N_25  and  C_26
REMARK   10  A    between atoms: C_26  and  C_27
REMARK   11  A    between atoms: C_32  and  C_33
REMARK                            x       y       z     vdW  Elec       q    Type
REMARK                         _______ _______ _______ _____ _____    ______ ____
ROOT
ATOM      1  C   UNL     1       2.595   6.962  18.641  0.00  0.00    +0.000 C 
ENDROOT
BRANCH   1   2
ATOM      2  N   UNL     1       1.882   8.235  18.358  0.00  0.00    +0.000 N 
ATOM      3  C   UNL     1       1.498   9.100  19.383  0.00  0.00    +0.000 A 
ATOM      4  C   UNL     1       1.125   8.655  20.637  0.00  0.00    +0.000 A 
ATOM      5  C   UNL     1       0.719   9.609  21.542  0.00  0.00    +0.000 A 
ATOM      6  C   UNL     1       0.228   9.240  22.907  0.00  0.00    +0.000 C 
ATOM      7  N   UNL     1       0.721  10.915  21.240  0.00  0.00    +0.000 NA
ATOM      8  C   UNL     1       1.011  11.271  19.984  0.00  0.00    +0.000 A 
ATOM      9  N   UNL     1       0.943  12.615  19.759  0.00  0.00    +0.000 N 
ATOM     10  N   UNL     1       1.371  10.398  19.036  0.00  0.00    +0.000 NA
ATOM     11  H   UNL     1       1.017   8.031  17.858  0.00  0.00    +0.000 HD
ATOM     12  H   UNL     1       1.457  13.136  20.452  0.00  0.00    +0.000 HD
BRANCH   9  13
ATOM     13  C   UNL     1       0.718  13.236  18.480  0.00  0.00    +0.000 C 
BRANCH  13  14
ATOM     14  C   UNL     1       0.964  14.738  18.645  0.00  0.00    +0.000 A 
ATOM     15  C   UNL     1      -0.146  15.547  18.966  0.00  0.00    +0.000 A 
ATOM     16  C   UNL     1      -0.020  16.926  19.164  0.00  0.00    +0.000 A 
ATOM     17  C   UNL     1       1.224  17.530  19.031  0.00  0.00    +0.000 A 
ATOM     18  C   UNL     1       2.334  16.752  18.704  0.00  0.00    +0.000 A 
ATOM     19  C   UNL     1       2.222  15.359  18.508  0.00  0.00    +0.000 A 
ATOM     20  C   UNL     1       3.475  14.599  18.164  0.00  0.00    +0.000 C 
ENDBRANCH  13  14
ENDBRANCH   9  13
ENDBRANCH   1   2
BRANCH   1  22
ATOM     21  N   UNL     1       4.825   5.888  18.346  0.00  0.00    +0.000 N 
ATOM     22  C   UNL     1       3.991   6.921  17.952  0.00  0.00    +0.000 C 
ATOM     23  O   UNL     1       4.304   7.695  17.046  0.00  0.00    +0.000 OA
ATOM     24  H   UNL     1       4.701   5.545  19.290  0.00  0.00    +0.000 HD
BRANCH  21  25
ATOM     25  C   UNL     1       6.157   5.792  17.784  0.00  0.00    +0.000 C 
BRANCH  25  30
ATOM     26  C   UNL     1       6.024   3.405  12.469  0.00  0.00    +0.000 C 
ATOM     27  C   UNL     1       6.106   3.946  13.864  0.00  0.00    +0.000 A 
ATOM     28  C   UNL     1       5.156   3.591  14.834  0.00  0.00    +0.000 A 
ATOM     29  C   UNL     1       5.207   4.154  16.109  0.00  0.00    +0.000 A 
ATOM     30  C   UNL     1       6.197   5.090  16.448  0.00  0.00    +0.000 A 
ATOM     31  C   UNL     1       7.167   5.414  15.492  0.00  0.00    +0.000 A 
ATOM     32  C   UNL     1       7.114   4.856  14.211  0.00  0.00    +0.000 A 
ENDBRANCH  25  30
ENDBRANCH  21  25
ENDBRANCH   1  22
BRANCH   1  33
ATOM     33  C   UNL     1       1.763   5.763  18.107  0.00  0.00    +0.000 C 
BRANCH  33  34
ATOM     34  C   UNL     1       1.739   4.533  18.992  0.00  0.00    +0.000 A 
ATOM     35  C   UNL     1       1.564   4.666  20.379  0.00  0.00    +0.000 A 
ATOM     36  C   UNL     1       1.452   3.537  21.193  0.00  0.00    +0.000 A 
ATOM     37  C   UNL     1       1.517   2.263  20.634  0.00  0.00    +0.000 A 
ATOM     38  C   UNL     1       1.701   2.117  19.260  0.00  0.00    +0.000 A 
ATOM     39  C   UNL     1       1.808   3.246  18.442  0.00  0.00    +0.000 A 
ENDBRANCH  33  34
ENDBRANCH   1  33
TORSDOF 8
ENDMDL
MODEL 4
REMARK VINA RESULT:      -8.8      3.485      5.715
REMARK  Name = 
REMARK  11 active torsions:
REMARK  status: ('A' for Active; 'I' for Inactive)
REMARK    1  A    between atoms: C_1  and  C_2
REMARK    2  A    between atoms: C_5  and  C_6
REMARK    3  A    between atoms: C_6  and  N_7
REMARK    4  A    between atoms: C_8  and  C_10
REMARK    5  A    between atoms: C_10  and  C_11
REMARK    6  A    between atoms: C_10  and  N_18
REMARK    7  A    between atoms: C_11  and  C_12
REMARK    8  A    between atoms: C_21  and  C_22
REMARK    9  A    between atoms: N_25  and  C_26
REMARK   10  A    between atoms: C_26  and  C_27
REMARK   11  A    between atoms: C_32  and  C_33
REMARK                            x       y       z     vdW  Elec       q    Type
REMARK                         _______ _______ _______ _____ _____    ______ ____
ROOT
ATOM      1  C   UNL     1       5.534   6.308  17.611  0.00  0.00    +0.000 C 
ENDROOT
BRANCH   1   2
ATOM      2  N   UNL     1       4.334   7.168  17.432  0.00  0.00    +0.000 N 
ATOM      3  C   UNL     1       3.342   7.249  18.409  0.00  0.00    +0.000 A 
ATOM      4  C   UNL     1       3.004   6.184  19.222  0.00  0.00    +0.000 A 
ATOM      5  C   UNL     1       1.971   6.382  20.111  0.00  0.00    +0.000 A 
ATOM      6  C   UNL     1       1.472   5.281  20.994  0.00  0.00    +0.000 C 
ATOM      7  N   UNL     1       1.346   7.563  20.217  0.00  0.00    +0.000 NA
ATOM      8  C   UNL     1       1.664   8.524  19.343  0.00  0.00    +0.000 A 
ATOM      9  N   UNL     1       0.945   9.673  19.496  0.00  0.00    +0.000 N 
ATOM     10  N   UNL     1       2.625   8.392  18.420  0.00  0.00    +0.000 NA
ATOM     11  H   UNL     1       3.839   6.881  16.587  0.00  0.00    +0.000 HD
ATOM     12  H   UNL     1       0.943   9.987  20.455  0.00  0.00    +0.000 HD
BRANCH   9  13
ATOM     13  C   UNL     1       0.705  10.651  18.468  0.00  0.00    +0.000 C 
BRANCH  13  14
ATOM     14  C   UNL     1      -0.811  10.759  18.275  0.00  0.00    +0.000 A 
ATOM     15  C   UNL     1      -1.421   9.836  17.399  0.00  0.00    +0.000 A 
ATOM     16  C   UNL     1      -2.802   9.835  17.177  0.00  0.00    +0.000 A 
ATOM     17  C   UNL     1      -3.604  10.770  17.820  0.00  0.00    +0.000 A 
ATOM     18  C   UNL     1      -3.021  11.698  18.683  0.00  0.00    +0.000 A 
ATOM     19  C   UNL     1      -1.630  11.707  18.921  0.00  0.00    +0.000 A 
ATOM     20  C   UNL     1      -1.090  12.740  19.872  0.00  0.00    +0.000 C 
ENDBRANCH  13  14
ENDBRANCH   9  13
ENDBRANCH   1   2
BRANCH   1  22
ATOM     21  N   UNL     1       7.170   8.182  17.769  0.00  0.00    +0.000 N 
ATOM     22  C   UNL     1       6.826   7.014  17.106  0.00  0.00    +0.000 C 
ATOM     23  O   UNL     1       7.553   6.525  16.242  0.00  0.00    +0.000 OA
ATOM     24  H   UNL     1       6.407   8.715  18.165  0.00  0.00    +0.000 HD
BRANCH  21  25
ATOM     25  C   UNL     1       8.338   8.926  17.343  0.00  0.00    +0.000 C 
BRANCH  25  30
ATOM     26  C   UNL     1      10.171  13.237  20.811  0.00  0.00    +0.000 C 
ATOM     27  C   UNL     1       9.616  12.140  19.953  0.00  0.00    +0.000 A 
ATOM     28  C   UNL     1       9.531  10.823  20.429  0.00  0.00    +0.000 A 
ATOM     29  C   UNL     1       9.074   9.801  19.598  0.00  0.00    +0.000 A 
ATOM     30  C   UNL     1       8.698  10.062  18.271  0.00  0.00    +0.000 A 
ATOM     31  C   UNL     1       8.746  11.382  17.808  0.00  0.00    +0.000 A 
ATOM     32  C   UNL     1       9.211  12.408  18.639  0.00  0.00    +0.000 A 
ENDBRANCH  25  30
ENDBRANCH  21  25
ENDBRANCH   1  22
BRANCH   1  33
ATOM     33  C   UNL     1       5.362   4.991  16.804  0.00  0.00    +0.000 C 
BRANCH  33  34
ATOM     34  C   UNL     1       4.570   3.897  17.492  0.00  0.00    +0.000 A 
ATOM     35  C   UNL     1       4.967   3.426  18.754  0.00  0.00    +0.000 A 
ATOM     36  C   UNL     1       4.198   2.482  19.435  0.00  0.00    +0.000 A 
ATOM     37  C   UNL     1       3.025   1.994  18.866  0.00  0.00    +0.000 A 
ATOM     38  C   UNL     1       2.624   2.445  17.609  0.00  0.00    +0.000 A 
ATOM     39  C   UNL     1       3.390   3.394  16.927  0.00  0.00    +0.000 A 
ENDBRANCH  33  34
ENDBRANCH   1  33
TORSDOF 8
ENDMDL
MODEL 5
REMARK VINA RESULT:      -8.7      2.993      6.568
REMARK  Name = 
REMARK  11 active torsions:
REMARK  status: ('A' for Active; 'I' for Inactive)
REMARK    1  A    between atoms: C_1  and  C_2
REMARK    2  A    between atoms: C_5  and  C_6
REMARK    3  A    between atoms: C_6  and  N_7
REMARK    4  A    between atoms: C_8  and  C_10
REMARK    5  A    between atoms: C_10  and  C_11
REMARK    6  A    between atoms: C_10  and  N_18
REMARK    7  A    between atoms: C_11  and  C_12
REMARK    8  A    between atoms: C_21  and  C_22
REMARK    9  A    between atoms: N_25  and  C_26
REMARK   10  A    between atoms: C_26  and  C_27
REMARK   11  A    between atoms: C_32  and  C_33
REMARK                            x       y       z     vdW  Elec       q    Type
REMARK                         _______ _______ _______ _____ _____    ______ ____
ROOT
ATOM      1  C   UNL     1       6.448   5.759  16.695  0.00  0.00    +0.000 C 
ENDROOT
BRANCH   1   2
ATOM      2  N   UNL     1       5.148   6.477  16.638  0.00  0.00    +0.000 N 
ATOM      3  C   UNL     1       4.233   6.415  17.689  0.00  0.00    +0.000 A 
ATOM      4  C   UNL     1       4.084   5.296  18.486  0.00  0.00    +0.000 A 
ATOM      5  C   UNL     1       3.109   5.347  19.457  0.00  0.00    +0.000 A 
ATOM      6  C   UNL     1       2.810   4.172  20.334  0.00  0.00    +0.000 C 
ATOM      7  N   UNL     1       2.363   6.443  19.651  0.00  0.00    +0.000 NA
ATOM      8  C   UNL     1       2.499   7.459  18.791  0.00  0.00    +0.000 A 
ATOM      9  N   UNL     1       1.666   8.511  19.040  0.00  0.00    +0.000 N 
ATOM     10  N   UNL     1       3.392   7.465  17.795  0.00  0.00    +0.000 NA
ATOM     11  H   UNL     1       4.624   6.157  15.823  0.00  0.00    +0.000 HD
ATOM     12  H   UNL     1       1.704   8.796  20.006  0.00  0.00    +0.000 HD
BRANCH   9  13
ATOM     13  C   UNL     1       1.236   9.481  18.068  0.00  0.00    +0.000 C 
BRANCH  13  14
ATOM     14  C   UNL     1       0.229  10.410  18.755  0.00  0.00    +0.000 A 
ATOM     15  C   UNL     1       0.675  11.130  19.883  0.00  0.00    +0.000 A 
ATOM     16  C   UNL     1      -0.159  12.023  20.563  0.00  0.00    +0.000 A 
ATOM     17  C   UNL     1      -1.468  12.205  20.134  0.00  0.00    +0.000 A 
ATOM     18  C   UNL     1      -1.934  11.496  19.027  0.00  0.00    +0.000 A 
ATOM     19  C   UNL     1      -1.101  10.597  18.328  0.00  0.00    +0.000 A 
ATOM     20  C   UNL     1      -1.686   9.881  17.141  0.00  0.00    +0.000 C 
ENDBRANCH  13  14
ENDBRANCH   9  13
ENDBRANCH   1   2
BRANCH   1  22
ATOM     21  N   UNL     1       7.665   7.657  17.759  0.00  0.00    +0.000 N 
ATOM     22  C   UNL     1       7.357   6.308  17.833  0.00  0.00    +0.000 C 
ATOM     23  O   UNL     1       7.704   5.619  18.794  0.00  0.00    +0.000 OA
ATOM     24  H   UNL     1       7.693   8.060  16.830  0.00  0.00    +0.000 HD
BRANCH  21  25
ATOM     25  C   UNL     1       8.535   8.246  18.755  0.00  0.00    +0.000 C 
BRANCH  25  30
ATOM     26  C   UNL     1       9.072  14.028  18.245  0.00  0.00    +0.000 C 
ATOM     27  C   UNL     1       8.999  12.532  18.312  0.00  0.00    +0.000 A 
ATOM     28  C   UNL     1       8.170  11.808  17.441  0.00  0.00    +0.000 A 
ATOM     29  C   UNL     1       8.062  10.423  17.559  0.00  0.00    +0.000 A 
ATOM     30  C   UNL     1       8.768   9.724  18.551  0.00  0.00    +0.000 A 
ATOM     31  C   UNL     1       9.623  10.442  19.396  0.00  0.00    +0.000 A 
ATOM     32  C   UNL     1       9.728  11.833  19.283  0.00  0.00    +0.000 A 
ENDBRANCH  25  30
ENDBRANCH  21  25
ENDBRANCH   1  22
BRANCH   1  33
ATOM     33  C   UNL     1       7.206   5.936  15.350  0.00  0.00    +0.000 C 
BRANCH  33  34
ATOM     34  C   UNL     1       6.805   4.986  14.240  0.00  0.00    +0.000 A 
ATOM     35  C   UNL     1       5.611   4.253  14.334  0.00  0.00    +0.000 A 
ATOM     36  C   UNL     1       5.188   3.442  13.279  0.00  0.00    +0.000 A 
ATOM     37  C   UNL     1       5.953   3.350  12.119  0.00  0.00    +0.000 A 
ATOM     38  C   UNL     1       7.146   4.063  12.016  0.00  0.00    +0.000 A 
ATOM     39  C   UNL     1       7.569   4.880  13.068  0.00  0.00    +0.000 A 
ENDBRANCH  33  34
ENDBRANCH   1  33
TORSDOF 8
ENDMDL
MODEL 6
REMARK VINA RESULT:      -8.7      3.054      6.542
REMARK  Name = 
REMARK  11 active torsions:
REMARK  status: ('A' for Active; 'I' for Inactive)
REMARK    1  A    between atoms: C_1  and  C_2
REMARK    2  A    between atoms: C_5  and  C_6
REMARK    3  A    between atoms: C_6  and  N_7
REMARK    4  A    between atoms: C_8  and  C_10
REMARK    5  A    between atoms: C_10  and  C_11
REMARK    6  A    between atoms: C_10  and  N_18
REMARK    7  A    between atoms: C_11  and  C_12
REMARK    8  A    between atoms: C_21  and  C_22
REMARK    9  A    between atoms: N_25  and  C_26
REMARK   10  A    between atoms: C_26  and  C_27
REMARK   11  A    between atoms: C_32  and  C_33
REMARK                            x       y       z     vdW  Elec       q    Type
REMARK                         _______ _______ _______ _____ _____    ______ ____
ROOT
ATOM      1  C   UNL     1       6.327   5.805  16.715  0.00  0.00    +0.000 C 
ENDROOT
BRANCH   1   2
ATOM      2  N   UNL     1       5.042   6.549  16.656  0.00  0.00    +0.000 N 
ATOM      3  C   UNL     1       4.129   6.514  17.711  0.00  0.00    +0.000 A 
ATOM      4  C   UNL     1       3.960   5.405  18.518  0.00  0.00    +0.000 A 
ATOM      5  C   UNL     1       2.989   5.484  19.491  0.00  0.00    +0.000 A 
ATOM      6  C   UNL     1       2.669   4.322  20.379  0.00  0.00    +0.000 C 
ATOM      7  N   UNL     1       2.266   6.597  19.679  0.00  0.00    +0.000 NA
ATOM      8  C   UNL     1       2.420   7.602  18.810  0.00  0.00    +0.000 A 
ATOM      9  N   UNL     1       1.611   8.673  19.052  0.00  0.00    +0.000 N 
ATOM     10  N   UNL     1       3.311   7.583  17.811  0.00  0.00    +0.000 NA
ATOM     11  H   UNL     1       4.508   6.233  15.846  0.00  0.00    +0.000 HD
ATOM     12  H   UNL     1       1.658   8.965  20.017  0.00  0.00    +0.000 HD
BRANCH   9  13
ATOM     13  C   UNL     1       1.197   9.645  18.074  0.00  0.00    +0.000 C 
BRANCH  13  14
ATOM     14  C   UNL     1       0.132  10.533  18.725  0.00  0.00    +0.000 A 
ATOM     15  C   UNL     1       0.519  11.294  19.848  0.00  0.00    +0.000 A 
ATOM     16  C   UNL     1      -0.373  12.156  20.496  0.00  0.00    +0.000 A 
ATOM     17  C   UNL     1      -1.680  12.265  20.039  0.00  0.00    +0.000 A 
ATOM     18  C   UNL     1      -2.088  11.514  18.936  0.00  0.00    +0.000 A 
ATOM     19  C   UNL     1      -1.197  10.646  18.269  0.00  0.00    +0.000 A 
ATOM     20  C   UNL     1      -1.723   9.881  17.085  0.00  0.00    +0.000 C 
ENDBRANCH  13  14
ENDBRANCH   9  13
ENDBRANCH   1   2
BRANCH   1  22
ATOM     21  N   UNL     1       7.731   7.591  17.741  0.00  0.00    +0.000 N 
ATOM     22  C   UNL     1       7.228   6.308  17.881  0.00  0.00    +0.000 C 
ATOM     23  O   UNL     1       7.408   5.653  18.908  0.00  0.00    +0.000 OA
ATOM     24  H   UNL     1       7.878   7.915  16.793  0.00  0.00    +0.000 HD
BRANCH  21  25
ATOM     25  C   UNL     1       8.608   8.129  18.760  0.00  0.00    +0.000 C 
BRANCH  25  30
ATOM     26  C   UNL     1       9.538  13.865  18.308  0.00  0.00    +0.000 C 
ATOM     27  C   UNL     1       9.228  12.408  18.479  0.00  0.00    +0.000 A 
ATOM     28  C   UNL     1       9.751  11.680  19.558  0.00  0.00    +0.000 A 
ATOM     29  C   UNL     1       9.508  10.311  19.667  0.00  0.00    +0.000 A 
ATOM     30  C   UNL     1       8.747   9.631  18.703  0.00  0.00    +0.000 A 
ATOM     31  C   UNL     1       8.194  10.367  17.648  0.00  0.00    +0.000 A 
ATOM     32  C   UNL     1       8.441  11.738  17.532  0.00  0.00    +0.000 A 
ENDBRANCH  25  30
ENDBRANCH  21  25
ENDBRANCH   1  22
BRANCH   1  33
ATOM     33  C   UNL     1       7.109   6.001  15.387  0.00  0.00    +0.000 C 
BRANCH  33  34
ATOM     34  C   UNL     1       6.696   5.098  14.242  0.00  0.00    +0.000 A 
ATOM     35  C   UNL     1       7.519   4.971  13.111  0.00  0.00    +0.000 A 
ATOM     36  C   UNL     1       7.192   4.077  12.090  0.00  0.00    +0.000 A 
ATOM     37  C   UNL     1       6.039   3.302  12.183  0.00  0.00    +0.000 A 
ATOM     38  C   UNL     1       5.208   3.425  13.295  0.00  0.00    +0.000 A 
ATOM     39  C   UNL     1       5.535   4.315  14.321  0.00  0.00    +0.000 A 
ENDBRANCH  33  34
ENDBRANCH   1  33
TORSDOF 8
ENDMDL
MODEL 7
REMARK VINA RESULT:      -8.7      1.920      3.154
REMARK  Name = 
REMARK  11 active torsions:
REMARK  status: ('A' for Active; 'I' for Inactive)
REMARK    1  A    between atoms: C_1  and  C_2
REMARK    2  A    between atoms: C_5  and  C_6
REMARK    3  A    between atoms: C_6  and  N_7
REMARK    4  A    between atoms: C_8  and  C_10
REMARK    5  A    between atoms: C_10  and  C_11
REMARK    6  A    between atoms: C_10  and  N_18
REMARK    7  A    between atoms: C_11  and  C_12
REMARK    8  A    between atoms: C_21  and  C_22
REMARK    9  A    between atoms: N_25  and  C_26
REMARK   10  A    between atoms: C_26  and  C_27
REMARK   11  A    between atoms: C_32  and  C_33
REMARK                            x       y       z     vdW  Elec       q    Type
REMARK                         _______ _______ _______ _____ _____    ______ ____
ROOT
ATOM      1  C   UNL     1       2.718   6.777  18.574  0.00  0.00    +0.000 C 
ENDROOT
BRANCH   1   2
ATOM      2  N   UNL     1       1.747   7.878  18.340  0.00  0.00    +0.000 N 
ATOM      3  C   UNL     1       1.404   8.776  19.351  0.00  0.00    +0.000 A 
ATOM      4  C   UNL     1       1.350   8.417  20.684  0.00  0.00    +0.000 A 
ATOM      5  C   UNL     1       0.948   9.386  21.576  0.00  0.00    +0.000 A 
ATOM      6  C   UNL     1       0.787   9.094  23.035  0.00  0.00    +0.000 C 
ATOM      7  N   UNL     1       0.659  10.633  21.180  0.00  0.00    +0.000 NA
ATOM      8  C   UNL     1       0.648  10.891  19.867  0.00  0.00    +0.000 A 
ATOM      9  N   UNL     1       0.298  12.173  19.557  0.00  0.00    +0.000 N 
ATOM     10  N   UNL     1       0.983   9.989  18.937  0.00  0.00    +0.000 NA
ATOM     11  H   UNL     1       0.857   7.481  18.037  0.00  0.00    +0.000 HD
ATOM     12  H   UNL     1       0.826  12.844  20.094  0.00  0.00    +0.000 HD
BRANCH   9  13
ATOM     13  C   UNL     1      -0.263  12.604  18.304  0.00  0.00    +0.000 C 
BRANCH  13  14
ATOM     14  C   UNL     1      -1.682  12.036  18.211  0.00  0.00    +0.000 A 
ATOM     15  C   UNL     1      -1.962  11.158  17.142  0.00  0.00    +0.000 A 
ATOM     16  C   UNL     1      -3.219  10.565  16.986  0.00  0.00    +0.000 A 
ATOM     17  C   UNL     1      -4.233  10.851  17.893  0.00  0.00    +0.000 A 
ATOM     18  C   UNL     1      -3.982  11.724  18.951  0.00  0.00    +0.000 A 
ATOM     19  C   UNL     1      -2.716  12.323  19.124  0.00  0.00    +0.000 A 
ATOM     20  C   UNL     1      -2.535  13.247  20.299  0.00  0.00    +0.000 C 
ENDBRANCH  13  14
ENDBRANCH   9  13
ENDBRANCH   1   2
BRANCH   1  22
ATOM     21  N   UNL     1       4.990   5.999  17.902  0.00  0.00    +0.000 N 
ATOM     22  C   UNL     1       4.006   6.957  17.717  0.00  0.00    +0.000 C 
ATOM     23  O   UNL     1       4.112   7.834  16.859  0.00  0.00    +0.000 OA
ATOM     24  H   UNL     1       5.030   5.568  18.817  0.00  0.00    +0.000 HD
BRANCH  21  25
ATOM     25  C   UNL     1       6.237   6.107  17.174  0.00  0.00    +0.000 C 
BRANCH  25  30
ATOM     26  C   UNL     1       6.125   3.174  12.138  0.00  0.00    +0.000 C 
ATOM     27  C   UNL     1       6.196   3.857  13.471  0.00  0.00    +0.000 A 
ATOM     28  C   UNL     1       5.201   3.658  14.439  0.00  0.00    +0.000 A 
ATOM     29  C   UNL     1       5.246   4.351  15.649  0.00  0.00    +0.000 A 
ATOM     30  C   UNL     1       6.277   5.264  15.922  0.00  0.00    +0.000 A 
ATOM     31  C   UNL     1       7.290   5.433  14.971  0.00  0.00    +0.000 A 
ATOM     32  C   UNL     1       7.243   4.744  13.754  0.00  0.00    +0.000 A 
ENDBRANCH  25  30
ENDBRANCH  21  25
ENDBRANCH   1  22
BRANCH   1  33
ATOM     33  C   UNL     1       2.074   5.417  18.189  0.00  0.00    +0.000 C 
BRANCH  33  34
ATOM     34  C   UNL     1       1.977   4.396  19.306  0.00  0.00    +0.000 A 
ATOM     35  C   UNL     1       2.318   4.754  20.620  0.00  0.00    +0.000 A 
ATOM     36  C   UNL     1       2.150   3.849  21.670  0.00  0.00    +0.000 A 
ATOM     37  C   UNL     1       1.642   2.577  21.421  0.00  0.00    +0.000 A 
ATOM     38  C   UNL     1       1.309   2.205  20.120  0.00  0.00    +0.000 A 
ATOM     39  C   UNL     1       1.472   3.110  19.068  0.00  0.00    +0.000 A 
ENDBRANCH  33  34
ENDBRANCH   1  33
TORSDOF 8
ENDMDL
MODEL 8
REMARK VINA RESULT:      -8.7      2.126      3.306
REMARK  Name = 
REMARK  11 active torsions:
REMARK  status: ('A' for Active; 'I' for Inactive)
REMARK    1  A    between atoms: C_1  and  C_2
REMARK    2  A    between atoms: C_5  and  C_6
REMARK    3  A    between atoms: C_6  and  N_7
REMARK    4  A    between atoms: C_8  and  C_10
REMARK    5  A    between atoms: C_10  and  C_11
REMARK    6  A    between atoms: C_10  and  N_18
REMARK    7  A    between atoms: C_11  and  C_12
REMARK    8  A    between atoms: C_21  and  C_22
REMARK    9  A    between atoms: N_25  and  C_26
REMARK   10  A    between atoms: C_26  and  C_27
REMARK   11  A    between atoms: C_32  and  C_33
REMARK                            x       y       z     vdW  Elec       q    Type
REMARK                         _______ _______ _______ _____ _____    ______ ____
ROOT
ATOM      1  C   UNL     1       2.717   6.690  18.668  0.00  0.00    +0.000 C 
ENDROOT
BRANCH   1   2
ATOM      2  N   UNL     1       1.684   7.736  18.453  0.00  0.00    +0.000 N 
ATOM      3  C   UNL     1       1.369   8.667  19.444  0.00  0.00    +0.000 A 
ATOM      4  C   UNL     1       1.423   8.371  20.792  0.00  0.00    +0.000 A 
ATOM      5  C   UNL     1       1.039   9.364  21.665  0.00  0.00    +0.000 A 
ATOM      6  C   UNL     1       0.990   9.137  23.143  0.00  0.00    +0.000 C 
ATOM      7  N   UNL     1       0.667  10.578  21.234  0.00  0.00    +0.000 NA
ATOM      8  C   UNL     1       0.556  10.771  19.915  0.00  0.00    +0.000 A 
ATOM      9  N   UNL     1       0.128  12.020  19.572  0.00  0.00    +0.000 N 
ATOM     10  N   UNL     1       0.868   9.840  19.005  0.00  0.00    +0.000 NA
ATOM     11  H   UNL     1       0.794   7.289  18.231  0.00  0.00    +0.000 HD
ATOM     12  H   UNL     1       0.660  12.738  20.040  0.00  0.00    +0.000 HD
BRANCH   9  13
ATOM     13  C   UNL     1      -0.535  12.367  18.343  0.00  0.00    +0.000 C 
BRANCH  13  14
ATOM     14  C   UNL     1      -2.038  12.152  18.550  0.00  0.00    +0.000 A 
ATOM     15  C   UNL     1      -2.619  12.707  19.709  0.00  0.00    +0.000 A 
ATOM     16  C   UNL     1      -3.988  12.590  19.975  0.00  0.00    +0.000 A 
ATOM     17  C   UNL     1      -4.805  11.898  19.089  0.00  0.00    +0.000 A 
ATOM     18  C   UNL     1      -4.250  11.332  17.942  0.00  0.00    +0.000 A 
ATOM     19  C   UNL     1      -2.872  11.449  17.658  0.00  0.00    +0.000 A 
ATOM     20  C   UNL     1      -2.363  10.812  16.393  0.00  0.00    +0.000 C 
ENDBRANCH  13  14
ENDBRANCH   9  13
ENDBRANCH   1   2
BRANCH   1  22
ATOM     21  N   UNL     1       5.018   6.043  17.958  0.00  0.00    +0.000 N 
ATOM     22  C   UNL     1       3.962   6.919  17.762  0.00  0.00    +0.000 C 
ATOM     23  O   UNL     1       3.979   7.758  16.861  0.00  0.00    +0.000 OA
ATOM     24  H   UNL     1       5.117   5.660  18.890  0.00  0.00    +0.000 HD
BRANCH  21  25
ATOM     25  C   UNL     1       6.231   6.203  17.184  0.00  0.00    +0.000 C 
BRANCH  25  30
ATOM     26  C   UNL     1       6.135   3.228  12.173  0.00  0.00    +0.000 C 
ATOM     27  C   UNL     1       6.198   3.920  13.501  0.00  0.00    +0.000 A 
ATOM     28  C   UNL     1       5.165   3.779  14.440  0.00  0.00    +0.000 A 
ATOM     29  C   UNL     1       5.205   4.481  15.644  0.00  0.00    +0.000 A 
ATOM     30  C   UNL     1       6.270   5.347  15.941  0.00  0.00    +0.000 A 
ATOM     31  C   UNL     1       7.319   5.458  15.021  0.00  0.00    +0.000 A 
ATOM     32  C   UNL     1       7.277   4.760  13.810  0.00  0.00    +0.000 A 
ENDBRANCH  25  30
ENDBRANCH  21  25
ENDBRANCH   1  22
BRANCH   1  33
ATOM     33  C   UNL     1       2.129   5.292  18.329  0.00  0.00    +0.000 C 
BRANCH  33  34
ATOM     34  C   UNL     1       2.224   4.255  19.430  0.00  0.00    +0.000 A 
ATOM     35  C   UNL     1       3.340   3.405  19.505  0.00  0.00    +0.000 A 
ATOM     36  C   UNL     1       3.480   2.506  20.563  0.00  0.00    +0.000 A 
ATOM     37  C   UNL     1       2.509   2.442  21.559  0.00  0.00    +0.000 A 
ATOM     38  C   UNL     1       1.391   3.272  21.492  0.00  0.00    +0.000 A 
ATOM     39  C   UNL     1       1.251   4.176  20.436  0.00  0.00    +0.000 A 
ENDBRANCH  33  34
ENDBRANCH   1  33
TORSDOF 8
ENDMDL
MODEL 9
REMARK VINA RESULT:      -8.6      3.187      6.219
REMARK  Name = 
REMARK  11 active torsions:
REMARK  status: ('A' for Active; 'I' for Inactive)
REMARK    1  A    between atoms: C_1  and  C_2
REMARK    2  A    between atoms: C_5  and  C_6
REMARK    3  A    between atoms: C_6  and  N_7
REMARK    4  A    between atoms: C_8  and  C_10
REMARK    5  A    between atoms: C_10  and  C_11
REMARK    6  A    between atoms: C_10  and  N_18
REMARK    7  A    between atoms: C_11  and  C_12
REMARK    8  A    between atoms: C_21  and  C_22
REMARK    9  A    between atoms: N_25  and  C_26
REMARK   10  A    between atoms: C_26  and  C_27
REMARK   11  A    between atoms: C_32  and  C_33
REMARK                            x       y       z     vdW  Elec       q    Type
REMARK                         _______ _______ _______ _____ _____    ______ ____
ROOT
ATOM      1  C   UNL     1       0.221  10.354  18.819  0.00  0.00    +0.000 C 
ENDROOT
BRANCH   1   2
ATOM      2  N   UNL     1       1.050  11.454  18.261  0.00  0.00    +0.000 N 
ATOM      3  C   UNL     1       1.526  12.490  19.066  0.00  0.00    +0.000 A 
ATOM      4  C   UNL     1       0.827  12.973  20.154  0.00  0.00    +0.000 A 
ATOM      5  C   UNL     1       1.385  14.032  20.834  0.00  0.00    +0.000 A 
ATOM      6  C   UNL     1       0.687  14.683  21.987  0.00  0.00    +0.000 C 
ATOM      7  N   UNL     1       2.572  14.549  20.486  0.00  0.00    +0.000 NA
ATOM      8  C   UNL     1       3.155  14.091  19.372  0.00  0.00    +0.000 A 
ATOM      9  N   UNL     1       4.335  14.707  19.071  0.00  0.00    +0.000 N 
ATOM     10  N   UNL     1       2.652  13.095  18.633  0.00  0.00    +0.000 NA
ATOM     11  H   UNL     1       0.529  11.925  17.521  0.00  0.00    +0.000 HD
ATOM     12  H   UNL     1       4.954  14.735  19.867  0.00  0.00    +0.000 HD
BRANCH   9  13
ATOM     13  C   UNL     1       4.920  14.794  17.759  0.00  0.00    +0.000 C 
BRANCH  13  14
ATOM     14  C   UNL     1       6.440  14.704  17.922  0.00  0.00    +0.000 A 
ATOM     15  C   UNL     1       7.063  13.494  17.550  0.00  0.00    +0.000 A 
ATOM     16  C   UNL     1       8.449  13.323  17.636  0.00  0.00    +0.000 A 
ATOM     17  C   UNL     1       9.243  14.360  18.111  0.00  0.00    +0.000 A 
ATOM     18  C   UNL     1       8.648  15.561  18.495  0.00  0.00    +0.000 A 
ATOM     19  C   UNL     1       7.251  15.750  18.407  0.00  0.00    +0.000 A 
ATOM     20  C   UNL     1       6.698  17.081  18.837  0.00  0.00    +0.000 C 
ENDBRANCH  13  14
ENDBRANCH   9  13
ENDBRANCH   1   2
BRANCH   1  22
ATOM     21  N   UNL     1       1.911   8.524  18.723  0.00  0.00    +0.000 N 
ATOM     22  C   UNL     1       1.095   9.288  19.542  0.00  0.00    +0.000 C 
ATOM     23  O   UNL     1       1.138   9.188  20.769  0.00  0.00    +0.000 OA
ATOM     24  H   UNL     1       1.584   8.373  17.777  0.00  0.00    +0.000 HD
BRANCH  21  25
ATOM     25  C   UNL     1       2.733   7.483  19.305  0.00  0.00    +0.000 C 
BRANCH  25  30
ATOM     26  C   UNL     1       0.813   1.991  18.939  0.00  0.00    +0.000 C 
ATOM     27  C   UNL     1       1.224   3.432  19.009  0.00  0.00    +0.000 A 
ATOM     28  C   UNL     1       1.678   4.111  17.868  0.00  0.00    +0.000 A 
ATOM     29  C   UNL     1       2.118   5.431  17.963  0.00  0.00    +0.000 A 
ATOM     30  C   UNL     1       2.125   6.105  19.194  0.00  0.00    +0.000 A 
ATOM     31  C   UNL     1       1.636   5.439  20.324  0.00  0.00    +0.000 A 
ATOM     32  C   UNL     1       1.200   4.113  20.233  0.00  0.00    +0.000 A 
ENDBRANCH  25  30
ENDBRANCH  21  25
ENDBRANCH   1  22
BRANCH   1  33
ATOM     33  C   UNL     1      -0.550   9.643  17.672  0.00  0.00    +0.000 C 
BRANCH  33  34
ATOM     34  C   UNL     1      -1.917  10.212  17.348  0.00  0.00    +0.000 A 
ATOM     35  C   UNL     1      -2.616  10.959  18.309  0.00  0.00    +0.000 A 
ATOM     36  C   UNL     1      -3.836  11.561  17.994  0.00  0.00    +0.000 A 
ATOM     37  C   UNL     1      -4.373  11.422  16.717  0.00  0.00    +0.000 A 
ATOM     38  C   UNL     1      -3.695  10.674  15.756  0.00  0.00    +0.000 A 
ATOM     39  C   UNL     1      -2.472  10.075  16.068  0.00  0.00    +0.000 A 
ENDBRANCH  33  34
ENDBRANCH   1  33
TORSDOF 8
ENDMDL
