MODEL 1
REMARK VINA RESULT:      -8.1      0.000      0.000
REMARK  Name = 
REMARK  3 active torsions:
REMARK  status: ('A' for Active; 'I' for Inactive)
REMARK    1  A    between atoms: N_3  and  C_4
REMARK    2  A    between atoms: C_4  and  C_5
REMARK    3  A    between atoms: C_14  and  C_15
REMARK                            x       y       z     vdW  Elec       q    Type
REMARK                         _______ _______ _______ _____ _____    ______ ____
ROOT
ATOM      1  O   UNL     1       8.134   5.624  14.015  0.00  0.00    +0.000 OA
ATOM      2  C   UNL     1       7.171   5.138  14.601  0.00  0.00    +0.000 C 
ATOM      3  N   UNL     1       6.348   4.216  14.045  0.00  0.00    +0.000 N 
ATOM      4  N   UNL     1       6.868   5.557  15.863  0.00  0.00    +0.000 N 
ATOM      5  C   UNL     1       5.778   5.199  16.666  0.00  0.00    +0.000 A 
ATOM      6  C   UNL     1       5.597   5.906  17.852  0.00  0.00    +0.000 A 
ATOM      7  C   UNL     1       4.448   5.578  18.572  0.00  0.00    +0.000 A 
ATOM      8  N   UNL     1       3.918   6.074  19.733  0.00  0.00    +0.000 N 
ATOM      9  N   UNL     1       2.753   5.510  20.090  0.00  0.00    +0.000 NA
ATOM     10  C   UNL     1       2.535   4.603  19.132  0.00  0.00    +0.000 A 
ATOM     11  C   UNL     1       3.560   4.592  18.157  0.00  0.00    +0.000 A 
ATOM     12  C   UNL     1       3.839   3.902  16.980  0.00  0.00    +0.000 A 
ATOM     13  N   UNL     1       4.938   4.219  16.250  0.00  0.00    +0.000 NA
ATOM     14  H   UNL     1       5.627   3.836  14.654  0.00  0.00    +0.000 HD
ATOM     15  H   UNL     1       7.491   6.278  16.192  0.00  0.00    +0.000 HD
ATOM     16  H   UNL     1       4.291   6.811  20.321  0.00  0.00    +0.000 HD
ENDROOT
BRANCH  10  17
ATOM     17  C   UNL     1       1.299   3.712  19.087  0.00  0.00    +0.000 C 
ATOM     18  C   UNL     1       1.473   2.209  19.184  0.00  0.00    +0.000 C 
ATOM     19  C   UNL     1       0.918   2.957  20.346  0.00  0.00    +0.000 C 
ENDBRANCH  10  17
BRANCH   3  20
ATOM     20  C   UNL     1       6.440   3.789  12.677  0.00  0.00    +0.000 C 
BRANCH  20  21
ATOM     21  C   UNL     1       5.315   2.853  12.361  0.00  0.00    +0.000 C 
ATOM     22  C   UNL     1       4.427   3.067  11.157  0.00  0.00    +0.000 C 
ATOM     23  C   UNL     1       5.411   1.932  11.168  0.00  0.00    +0.000 C 
ENDBRANCH  20  21
ENDBRANCH   3  20
TORSDOF 3
ENDMDL
MODEL 2
REMARK VINA RESULT:      -7.7      0.854      1.063
REMARK  Name = 
REMARK  3 active torsions:
REMARK  status: ('A' for Active; 'I' for Inactive)
REMARK    1  A    between atoms: N_3  and  C_4
REMARK    2  A    between atoms: C_4  and  C_5
REMARK    3  A    between atoms: C_14  and  C_15
REMARK                            x       y       z     vdW  Elec       q    Type
REMARK                         _______ _______ _______ _____ _____    ______ ____
ROOT
ATOM      1  O   UNL     1       8.076   5.695  13.533  0.00  0.00    +0.000 OA
ATOM      2  C   UNL     1       7.246   5.085  14.203  0.00  0.00    +0.000 C 
ATOM      3  N   UNL     1       6.461   4.101  13.701  0.00  0.00    +0.000 N 
ATOM      4  N   UNL     1       7.057   5.421  15.510  0.00  0.00    +0.000 N 
ATOM      5  C   UNL     1       6.116   4.918  16.417  0.00  0.00    +0.000 A 
ATOM      6  C   UNL     1       6.008   5.556  17.649  0.00  0.00    +0.000 A 
ATOM      7  C   UNL     1       4.996   5.078  18.482  0.00  0.00    +0.000 A 
ATOM      8  N   UNL     1       4.562   5.470  19.720  0.00  0.00    +0.000 N 
ATOM      9  N   UNL     1       3.513   4.770  20.182  0.00  0.00    +0.000 NA
ATOM     10  C   UNL     1       3.275   3.881  19.211  0.00  0.00    +0.000 A 
ATOM     11  C   UNL     1       4.170   4.018  18.124  0.00  0.00    +0.000 A 
ATOM     12  C   UNL     1       4.374   3.407  16.889  0.00  0.00    +0.000 A 
ATOM     13  N   UNL     1       5.337   3.868  16.053  0.00  0.00    +0.000 NA
ATOM     14  H   UNL     1       5.864   3.622  14.370  0.00  0.00    +0.000 HD
ATOM     15  H   UNL     1       7.638   6.194  15.801  0.00  0.00    +0.000 HD
ATOM     16  H   UNL     1       4.926   6.221  20.297  0.00  0.00    +0.000 HD
ENDROOT
BRANCH  10  17
ATOM     17  C   UNL     1       2.142   2.863  19.267  0.00  0.00    +0.000 C 
ATOM     18  C   UNL     1       0.855   3.235  19.978  0.00  0.00    +0.000 C 
ATOM     19  C   UNL     1       0.874   3.166  18.491  0.00  0.00    +0.000 C 
ENDBRANCH  10  17
BRANCH   3  20
ATOM     20  C   UNL     1       6.431   3.738  12.312  0.00  0.00    +0.000 C 
BRANCH  20  21
ATOM     21  C   UNL     1       6.512   2.249  12.175  0.00  0.00    +0.000 C 
ATOM     22  C   UNL     1       5.673   1.504  11.162  0.00  0.00    +0.000 C 
ATOM     23  C   UNL     1       7.155   1.637  10.954  0.00  0.00    +0.000 C 
ENDBRANCH  20  21
ENDBRANCH   3  20
TORSDOF 3
ENDMDL
MODEL 3
REMARK VINA RESULT:      -7.4      2.344      6.878
REMARK  Name = 
REMARK  3 active torsions:
REMARK  status: ('A' for Active; 'I' for Inactive)
REMARK    1  A    between atoms: N_3  and  C_4
REMARK    2  A    between atoms: C_4  and  C_5
REMARK    3  A    between atoms: C_14  and  C_15
REMARK                            x       y       z     vdW  Elec       q    Type
REMARK                         _______ _______ _______ _____ _____    ______ ____
ROOT
ATOM      1  O   UNL     1       2.176   6.217  20.795  0.00  0.00    +0.000 OA
ATOM      2  C   UNL     1       2.546   5.735  19.727  0.00  0.00    +0.000 C 
ATOM      3  N   UNL     1       1.943   4.672  19.140  0.00  0.00    +0.000 N 
ATOM      4  N   UNL     1       3.640   6.251  19.099  0.00  0.00    +0.000 N 
ATOM      5  C   UNL     1       4.273   5.802  17.933  0.00  0.00    +0.000 A 
ATOM      6  C   UNL     1       5.486   6.396  17.593  0.00  0.00    +0.000 A 
ATOM      7  C   UNL     1       6.123   5.853  16.477  0.00  0.00    +0.000 A 
ATOM      8  N   UNL     1       7.322   6.132  15.877  0.00  0.00    +0.000 N 
ATOM      9  N   UNL     1       7.605   5.348  14.824  0.00  0.00    +0.000 NA
ATOM     10  C   UNL     1       6.539   4.546  14.733  0.00  0.00    +0.000 A 
ATOM     11  C   UNL     1       5.576   4.814  15.733  0.00  0.00    +0.000 A 
ATOM     12  C   UNL     1       4.336   4.307  16.116  0.00  0.00    +0.000 A 
ATOM     13  N   UNL     1       3.708   4.802  17.211  0.00  0.00    +0.000 NA
ATOM     14  H   UNL     1       2.296   4.410  18.223  0.00  0.00    +0.000 HD
ATOM     15  H   UNL     1       4.067   7.004  19.617  0.00  0.00    +0.000 HD
ATOM     16  H   UNL     1       8.004   6.833  16.147  0.00  0.00    +0.000 HD
ENDROOT
BRANCH  10  17
ATOM     17  C   UNL     1       6.405   3.446  13.685  0.00  0.00    +0.000 C 
ATOM     18  C   UNL     1       5.319   3.562  12.634  0.00  0.00    +0.000 C 
ATOM     19  C   UNL     1       6.739   3.789  12.246  0.00  0.00    +0.000 C 
ENDBRANCH  10  17
BRANCH   3  20
ATOM     20  C   UNL     1       0.881   3.924  19.749  0.00  0.00    +0.000 C 
BRANCH  20  21
ATOM     21  C   UNL     1       1.430   2.677  20.370  0.00  0.00    +0.000 C 
ATOM     22  C   UNL     1       2.689   2.702  21.207  0.00  0.00    +0.000 C 
ATOM     23  C   UNL     1       1.357   2.481  21.865  0.00  0.00    +0.000 C 
ENDBRANCH  20  21
ENDBRANCH   3  20
TORSDOF 3
ENDMDL
MODEL 4
REMARK VINA RESULT:      -7.4      1.485      2.135
REMARK  Name = 
REMARK  3 active torsions:
REMARK  status: ('A' for Active; 'I' for Inactive)
REMARK    1  A    between atoms: N_3  and  C_4
REMARK    2  A    between atoms: C_4  and  C_5
REMARK    3  A    between atoms: C_14  and  C_15
REMARK                            x       y       z     vdW  Elec       q    Type
REMARK                         _______ _______ _______ _____ _____    ______ ____
ROOT
ATOM      1  O   UNL     1       7.510   4.486  11.815  0.00  0.00    +0.000 OA
ATOM      2  C   UNL     1       6.872   4.169  12.816  0.00  0.00    +0.000 C 
ATOM      3  N   UNL     1       5.809   3.329  12.788  0.00  0.00    +0.000 N 
ATOM      4  N   UNL     1       7.206   4.705  14.025  0.00  0.00    +0.000 N 
ATOM      5  C   UNL     1       6.564   4.545  15.260  0.00  0.00    +0.000 A 
ATOM      6  C   UNL     1       6.998   5.345  16.314  0.00  0.00    +0.000 A 
ATOM      7  C   UNL     1       6.270   5.217  17.497  0.00  0.00    +0.000 A 
ATOM      8  N   UNL     1       6.363   5.853  18.706  0.00  0.00    +0.000 N 
ATOM      9  N   UNL     1       5.437   5.471  19.601  0.00  0.00    +0.000 NA
ATOM     10  C   UNL     1       4.733   4.540  18.947  0.00  0.00    +0.000 A 
ATOM     11  C   UNL     1       5.206   4.332  17.630  0.00  0.00    +0.000 A 
ATOM     12  C   UNL     1       4.866   3.537  16.539  0.00  0.00    +0.000 A 
ATOM     13  N   UNL     1       5.544   3.659  15.371  0.00  0.00    +0.000 NA
ATOM     14  H   UNL     1       5.407   3.087  13.690  0.00  0.00    +0.000 HD
ATOM     15  H   UNL     1       7.972   5.358  13.962  0.00  0.00    +0.000 HD
ATOM     16  H   UNL     1       7.024   6.571  18.982  0.00  0.00    +0.000 HD
ENDROOT
BRANCH  10  17
ATOM     17  C   UNL     1       3.534   3.818  19.552  0.00  0.00    +0.000 C 
ATOM     18  C   UNL     1       2.612   4.578  20.485  0.00  0.00    +0.000 C 
ATOM     19  C   UNL     1       2.147   4.245  19.110  0.00  0.00    +0.000 C 
ENDBRANCH  10  17
BRANCH   3  20
ATOM     20  C   UNL     1       5.240   2.806  11.578  0.00  0.00    +0.000 C 
BRANCH  20  21
ATOM     21  C   UNL     1       3.874   3.384  11.368  0.00  0.00    +0.000 C 
ATOM     22  C   UNL     1       3.508   4.096  10.086  0.00  0.00    +0.000 C 
ATOM     23  C   UNL     1       2.926   2.743  10.384  0.00  0.00    +0.000 C 
ENDBRANCH  20  21
ENDBRANCH   3  20
TORSDOF 3
ENDMDL
MODEL 5
REMARK VINA RESULT:      -7.2      2.346      6.496
REMARK  Name = 
REMARK  3 active torsions:
REMARK  status: ('A' for Active; 'I' for Inactive)
REMARK    1  A    between atoms: N_3  and  C_4
REMARK    2  A    between atoms: C_4  and  C_5
REMARK    3  A    between atoms: C_14  and  C_15
REMARK                            x       y       z     vdW  Elec       q    Type
REMARK                         _______ _______ _______ _____ _____    ______ ____
ROOT
ATOM      1  O   UNL     1       2.240   6.340  20.883  0.00  0.00    +0.000 OA
ATOM      2  C   UNL     1       2.582   5.842  19.813  0.00  0.00    +0.000 C 
ATOM      3  N   UNL     1       1.945   4.791  19.242  0.00  0.00    +0.000 N 
ATOM      4  N   UNL     1       3.679   6.328  19.165  0.00  0.00    +0.000 N 
ATOM      5  C   UNL     1       4.283   5.856  17.993  0.00  0.00    +0.000 A 
ATOM      6  C   UNL     1       5.505   6.419  17.632  0.00  0.00    +0.000 A 
ATOM      7  C   UNL     1       6.112   5.854  16.510  0.00  0.00    +0.000 A 
ATOM      8  N   UNL     1       7.308   6.101  15.891  0.00  0.00    +0.000 N 
ATOM      9  N   UNL     1       7.557   5.304  14.839  0.00  0.00    +0.000 NA
ATOM     10  C   UNL     1       6.471   4.527  14.769  0.00  0.00    +0.000 A 
ATOM     11  C   UNL     1       5.529   4.824  15.781  0.00  0.00    +0.000 A 
ATOM     12  C   UNL     1       4.284   4.349  16.186  0.00  0.00    +0.000 A 
ATOM     13  N   UNL     1       3.684   4.866  17.286  0.00  0.00    +0.000 NA
ATOM     14  H   UNL     1       2.279   4.514  18.322  0.00  0.00    +0.000 HD
ATOM     15  H   UNL     1       4.131   7.074  19.672  0.00  0.00    +0.000 HD
ATOM     16  H   UNL     1       8.011   6.787  16.146  0.00  0.00    +0.000 HD
ENDROOT
BRANCH  10  17
ATOM     17  C   UNL     1       6.295   3.424  13.730  0.00  0.00    +0.000 C 
ATOM     18  C   UNL     1       5.238   3.589  12.656  0.00  0.00    +0.000 C 
ATOM     19  C   UNL     1       6.676   3.730  12.295  0.00  0.00    +0.000 C 
ENDBRANCH  10  17
BRANCH   3  20
ATOM     20  C   UNL     1       0.874   4.072  19.872  0.00  0.00    +0.000 C 
BRANCH  20  21
ATOM     21  C   UNL     1       1.160   2.602  19.836  0.00  0.00    +0.000 C 
ATOM     22  C   UNL     1       0.976   1.795  18.571  0.00  0.00    +0.000 C 
ATOM     23  C   UNL     1       2.359   2.084  19.080  0.00  0.00    +0.000 C 
ENDBRANCH  20  21
ENDBRANCH   3  20
TORSDOF 3
ENDMDL
MODEL 6
REMARK VINA RESULT:      -7.2      4.145      6.569
REMARK  Name = 
REMARK  3 active torsions:
REMARK  status: ('A' for Active; 'I' for Inactive)
REMARK    1  A    between atoms: N_3  and  C_4
REMARK    2  A    between atoms: C_4  and  C_5
REMARK    3  A    between atoms: C_14  and  C_15
REMARK                            x       y       z     vdW  Elec       q    Type
REMARK                         _______ _______ _______ _____ _____    ______ ____
ROOT
ATOM      1  O   UNL     1       4.710   3.914  17.443  0.00  0.00    +0.000 OA
ATOM      2  C   UNL     1       4.041   4.661  18.152  0.00  0.00    +0.000 C 
ATOM      3  N   UNL     1       3.464   4.267  19.314  0.00  0.00    +0.000 N 
ATOM      4  N   UNL     1       3.820   5.946  17.756  0.00  0.00    +0.000 N 
ATOM      5  C   UNL     1       3.026   6.926  18.365  0.00  0.00    +0.000 A 
ATOM      6  C   UNL     1       2.820   8.111  17.663  0.00  0.00    +0.000 A 
ATOM      7  C   UNL     1       1.949   9.018  18.267  0.00  0.00    +0.000 A 
ATOM      8  N   UNL     1       1.475  10.240  17.872  0.00  0.00    +0.000 N 
ATOM      9  N   UNL     1       0.606  10.796  18.731  0.00  0.00    +0.000 NA
ATOM     10  C   UNL     1       0.532   9.906  19.726  0.00  0.00    +0.000 A 
ATOM     11  C   UNL     1       1.351   8.775  19.499  0.00  0.00    +0.000 A 
ATOM     12  C   UNL     1       1.646   7.583  20.155  0.00  0.00    +0.000 A 
ATOM     13  N   UNL     1       2.472   6.675  19.577  0.00  0.00    +0.000 NA
ATOM     14  H   UNL     1       2.995   4.995  19.848  0.00  0.00    +0.000 HD
ATOM     15  H   UNL     1       4.235   6.153  16.860  0.00  0.00    +0.000 HD
ATOM     16  H   UNL     1       1.690  10.743  17.018  0.00  0.00    +0.000 HD
ENDROOT
BRANCH  10  17
ATOM     17  C   UNL     1      -0.365  10.085  20.946  0.00  0.00    +0.000 C 
ATOM     18  C   UNL     1       0.241   9.949  22.329  0.00  0.00    +0.000 C 
ATOM     19  C   UNL     1      -0.137  11.299  21.826  0.00  0.00    +0.000 C 
ENDBRANCH  10  17
BRANCH   3  20
ATOM     20  C   UNL     1       3.474   2.912  19.788  0.00  0.00    +0.000 C 
BRANCH  20  21
ATOM     21  C   UNL     1       2.092   2.508  20.197  0.00  0.00    +0.000 C 
ATOM     22  C   UNL     1       1.635   2.608  21.635  0.00  0.00    +0.000 C 
ATOM     23  C   UNL     1       1.088   3.557  20.607  0.00  0.00    +0.000 C 
ENDBRANCH  20  21
ENDBRANCH   3  20
TORSDOF 3
ENDMDL
MODEL 7
REMARK VINA RESULT:      -7.0      5.487      7.783
REMARK  Name = 
REMARK  3 active torsions:
REMARK  status: ('A' for Active; 'I' for Inactive)
REMARK    1  A    between atoms: N_3  and  C_4
REMARK    2  A    between atoms: C_4  and  C_5
REMARK    3  A    between atoms: C_14  and  C_15
REMARK                            x       y       z     vdW  Elec       q    Type
REMARK                         _______ _______ _______ _____ _____    ______ ____
ROOT
ATOM      1  O   UNL     1       3.704   5.649  17.899  0.00  0.00    +0.000 OA
ATOM      2  C   UNL     1       3.054   6.395  18.629  0.00  0.00    +0.000 C 
ATOM      3  N   UNL     1       2.629   6.043  19.866  0.00  0.00    +0.000 N 
ATOM      4  N   UNL     1       2.697   7.632  18.180  0.00  0.00    +0.000 N 
ATOM      5  C   UNL     1       1.896   8.593  18.808  0.00  0.00    +0.000 A 
ATOM      6  C   UNL     1       1.531   9.710  18.061  0.00  0.00    +0.000 A 
ATOM      7  C   UNL     1       0.658  10.593  18.698  0.00  0.00    +0.000 A 
ATOM      8  N   UNL     1       0.055  11.750  18.280  0.00  0.00    +0.000 N 
ATOM      9  N   UNL     1      -0.763  12.302  19.191  0.00  0.00    +0.000 NA
ATOM     10  C   UNL     1      -0.668  11.479  20.240  0.00  0.00    +0.000 A 
ATOM     11  C   UNL     1       0.208  10.395  19.998  0.00  0.00    +0.000 A 
ATOM     12  C   UNL     1       0.658   9.273  20.690  0.00  0.00    +0.000 A 
ATOM     13  N   UNL     1       1.488   8.388  20.085  0.00  0.00    +0.000 NA
ATOM     14  H   UNL     1       2.162   6.771  20.401  0.00  0.00    +0.000 HD
ATOM     15  H   UNL     1       3.003   7.805  17.234  0.00  0.00    +0.000 HD
ATOM     16  H   UNL     1       0.144  12.207  17.379  0.00  0.00    +0.000 HD
ENDROOT
BRANCH  10  17
ATOM     17  C   UNL     1      -1.449  11.678  21.535  0.00  0.00    +0.000 C 
ATOM     18  C   UNL     1      -0.869  11.146  22.831  0.00  0.00    +0.000 C 
ATOM     19  C   UNL     1      -0.871  12.614  22.578  0.00  0.00    +0.000 C 
ENDBRANCH  10  17
BRANCH   3  20
ATOM     20  C   UNL     1       2.790   4.727  20.418  0.00  0.00    +0.000 C 
BRANCH  20  21
ATOM     21  C   UNL     1       1.447   4.116  20.673  0.00  0.00    +0.000 C 
ATOM     22  C   UNL     1       1.019   2.840  19.986  0.00  0.00    +0.000 C 
ATOM     23  C   UNL     1       1.338   2.829  21.454  0.00  0.00    +0.000 C 
ENDBRANCH  20  21
ENDBRANCH   3  20
TORSDOF 3
ENDMDL
MODEL 8
REMARK VINA RESULT:      -6.9      4.331      5.901
REMARK  Name = 
REMARK  3 active torsions:
REMARK  status: ('A' for Active; 'I' for Inactive)
REMARK    1  A    between atoms: N_3  and  C_4
REMARK    2  A    between atoms: C_4  and  C_5
REMARK    3  A    between atoms: C_14  and  C_15
REMARK                            x       y       z     vdW  Elec       q    Type
REMARK                         _______ _______ _______ _____ _____    ______ ____
ROOT
ATOM      1  O   UNL     1       4.901   5.589  16.458  0.00  0.00    +0.000 OA
ATOM      2  C   UNL     1       4.239   5.977  17.417  0.00  0.00    +0.000 C 
ATOM      3  N   UNL     1       4.041   5.236  18.535  0.00  0.00    +0.000 N 
ATOM      4  N   UNL     1       3.631   7.196  17.367  0.00  0.00    +0.000 N 
ATOM      5  C   UNL     1       2.773   7.785  18.304  0.00  0.00    +0.000 A 
ATOM      6  C   UNL     1       2.138   8.968  17.935  0.00  0.00    +0.000 A 
ATOM      7  C   UNL     1       1.224   9.468  18.863  0.00  0.00    +0.000 A 
ATOM      8  N   UNL     1       0.392  10.556  18.839  0.00  0.00    +0.000 N 
ATOM      9  N   UNL     1      -0.380  10.680  19.931  0.00  0.00    +0.000 NA
ATOM     10  C   UNL     1      -0.018   9.644  20.694  0.00  0.00    +0.000 A 
ATOM     11  C   UNL     1       0.983   8.851  20.085  0.00  0.00    +0.000 A 
ATOM     12  C   UNL     1       1.695   7.694  20.394  0.00  0.00    +0.000 A 
ATOM     13  N   UNL     1       2.572   7.176  19.499  0.00  0.00    +0.000 NA
ATOM     14  H   UNL     1       3.536   5.693  19.289  0.00  0.00    +0.000 HD
ATOM     15  H   UNL     1       3.780   7.668  16.488  0.00  0.00    +0.000 HD
ATOM     16  H   UNL     1       0.288  11.243  18.101  0.00  0.00    +0.000 HD
ENDROOT
BRANCH  10  17
ATOM     17  C   UNL     1      -0.646   9.340  22.049  0.00  0.00    +0.000 C 
ATOM     18  C   UNL     1       0.206   9.462  23.297  0.00  0.00    +0.000 C 
ATOM     19  C   UNL     1      -0.835  10.490  23.020  0.00  0.00    +0.000 C 
ENDBRANCH  10  17
BRANCH   3  20
ATOM     20  C   UNL     1       4.483   3.877  18.677  0.00  0.00    +0.000 C 
BRANCH  20  21
ATOM     21  C   UNL     1       3.671   2.984  17.792  0.00  0.00    +0.000 C 
ATOM     22  C   UNL     1       3.188   1.632  18.266  0.00  0.00    +0.000 C 
ATOM     23  C   UNL     1       2.208   2.756  18.086  0.00  0.00    +0.000 C 
ENDBRANCH  20  21
ENDBRANCH   3  20
TORSDOF 3
ENDMDL
MODEL 9
REMARK VINA RESULT:      -6.9      4.465      7.688
REMARK  Name = 
REMARK  3 active torsions:
REMARK  status: ('A' for Active; 'I' for Inactive)
REMARK    1  A    between atoms: N_3  and  C_4
REMARK    2  A    between atoms: C_4  and  C_5
REMARK    3  A    between atoms: C_14  and  C_15
REMARK                            x       y       z     vdW  Elec       q    Type
REMARK                         _______ _______ _______ _____ _____    ______ ____
ROOT
ATOM      1  O   UNL     1       0.198   8.599  21.707  0.00  0.00    +0.000 OA
ATOM      2  C   UNL     1       0.968   8.394  20.772  0.00  0.00    +0.000 C 
ATOM      3  N   UNL     1       1.141   9.261  19.744  0.00  0.00    +0.000 N 
ATOM      4  N   UNL     1       1.669   7.226  20.720  0.00  0.00    +0.000 N 
ATOM      5  C   UNL     1       2.524   6.762  19.713  0.00  0.00    +0.000 A 
ATOM      6  C   UNL     1       2.982   5.451  19.815  0.00  0.00    +0.000 A 
ATOM      7  C   UNL     1       3.755   5.004  18.743  0.00  0.00    +0.000 A 
ATOM      8  N   UNL     1       4.331   3.793  18.467  0.00  0.00    +0.000 N 
ATOM      9  N   UNL     1       4.977   3.748  17.291  0.00  0.00    +0.000 NA
ATOM     10  C   UNL     1       4.826   4.982  16.800  0.00  0.00    +0.000 A 
ATOM     11  C   UNL     1       4.077   5.817  17.662  0.00  0.00    +0.000 A 
ATOM     12  C   UNL     1       3.615   7.131  17.660  0.00  0.00    +0.000 A 
ATOM     13  N   UNL     1       2.842   7.581  18.680  0.00  0.00    +0.000 NA
ATOM     14  H   UNL     1       1.858   9.014  19.068  0.00  0.00    +0.000 HD
ATOM     15  H   UNL     1       1.453   6.609  21.489  0.00  0.00    +0.000 HD
ATOM     16  H   UNL     1       4.306   2.950  19.030  0.00  0.00    +0.000 HD
ENDROOT
BRANCH  10  17
ATOM     17  C   UNL     1       5.375   5.419  15.447  0.00  0.00    +0.000 C 
ATOM     18  C   UNL     1       6.738   4.918  15.010  0.00  0.00    +0.000 C 
ATOM     19  C   UNL     1       5.515   4.369  14.362  0.00  0.00    +0.000 C 
ENDBRANCH  10  17
BRANCH   3  20
ATOM     20  C   UNL     1       0.365  10.457  19.574  0.00  0.00    +0.000 C 
BRANCH  20  21
ATOM     21  C   UNL     1      -0.433  10.369  18.310  0.00  0.00    +0.000 C 
ATOM     22  C   UNL     1      -1.928  10.145  18.336  0.00  0.00    +0.000 C 
ATOM     23  C   UNL     1      -1.378  11.484  17.933  0.00  0.00    +0.000 C 
ENDBRANCH  20  21
ENDBRANCH   3  20
TORSDOF 3
ENDMDL
