MODEL 1
REMARK VINA RESULT:      -7.8      0.000      0.000
REMARK  Name = 
REMARK  12 active torsions:
REMARK  status: ('A' for Active; 'I' for Inactive)
REMARK    1  A    between atoms: C_1  and  C_2
REMARK    2  A    between atoms: C_2  and  N_3
REMARK    3  A    between atoms: N_3  and  C_4
REMARK    4  A    between atoms: N_3  and  C_25
REMARK    5  A    between atoms: C_9  and  C_10
REMARK    6  A    between atoms: N_12  and  C_13
REMARK    7  A    between atoms: C_13  and  C_14
REMARK    8  A    between atoms: C_15  and  C_16
REMARK    9  A    between atoms: C_18  and  C_19
REMARK   10  A    between atoms: C_23  and  C_24
REMARK   11  A    between atoms: C_28  and  C_29
REMARK   12  A    between atoms: C_28  and  C_30
REMARK                            x       y       z     vdW  Elec       q    Type
REMARK                         _______ _______ _______ _____ _____    ______ ____
ROOT
ATOM      1  C   UNL     1      -1.246  11.833  19.891  0.00  0.00    +0.000 A 
ATOM      2  C   UNL     1      -2.255  11.670  18.910  0.00  0.00    +0.000 A 
ATOM      3  C   UNL     1      -2.159  10.757  17.868  0.00  0.00    +0.000 A 
ATOM      4 CL   UNL     1      -3.510  10.500  16.832  0.00  0.00    +0.000 Cl
ATOM      5  C   UNL     1      -0.987  10.064  17.665  0.00  0.00    +0.000 A 
ATOM      6  C   UNL     1       0.099  10.280  18.523  0.00  0.00    +0.000 A 
ATOM      7  C   UNL     1      -0.037  11.089  19.695  0.00  0.00    +0.000 A 
ATOM      8  C   UNL     1       1.038  11.029  20.760  0.00  0.00    +0.000 C 
ENDROOT
BRANCH   6   9
ATOM      9  C   UNL     1       1.364   9.628  18.064  0.00  0.00    +0.000 C 
ATOM     10  O   UNL     1       2.251  10.287  17.540  0.00  0.00    +0.000 OA
ATOM     11  N   UNL     1       1.497   8.295  18.377  0.00  0.00    +0.000 N 
ATOM     12  H   UNL     1       0.834   7.868  19.015  0.00  0.00    +0.000 HD
BRANCH  11  13
ATOM     13  C   UNL     1       2.731   7.571  18.178  0.00  0.00    +0.000 C 
BRANCH  13  14
ATOM     14  C   UNL     1       2.688   6.287  18.952  0.00  0.00    +0.000 A 
ATOM     15  C   UNL     1       3.143   5.088  18.533  0.00  0.00    +0.000 A 
ATOM     16  C   UNL     1       3.795   4.815  17.205  0.00  0.00    +0.000 C 
ATOM     17  C   UNL     1       3.029   3.920  19.403  0.00  0.00    +0.000 A 
ATOM     18  C   UNL     1       2.495   3.997  20.627  0.00  0.00    +0.000 A 
ATOM     19  C   UNL     1       2.372   2.848  21.565  0.00  0.00    +0.000 C 
ATOM     20  N   UNL     1       2.029   5.219  21.054  0.00  0.00    +0.000 N 
ATOM     21  C   UNL     1       2.067   6.382  20.322  0.00  0.00    +0.000 A 
ATOM     22  O   UNL     1       1.636   7.439  20.768  0.00  0.00    +0.000 OA
ATOM     23  H   UNL     1       1.627   5.309  21.987  0.00  0.00    +0.000 HD
ENDBRANCH  13  14
ENDBRANCH  11  13
ENDBRANCH   6   9
BRANCH   1  24
ATOM     24  N   UNL     1      -1.521  12.688  20.985  0.00  0.00    +0.000 N 
BRANCH  24  25
ATOM     25  C   UNL     1      -1.159  14.138  20.972  0.00  0.00    +0.000 C 
ATOM     26  C   UNL     1      -0.883  14.761  19.595  0.00  0.00    +0.000 C 
ATOM     27  C   UNL     1       0.472  14.369  19.011  0.00  0.00    +0.000 C 
ATOM     28  C   UNL     1       1.666  14.683  19.935  0.00  0.00    +0.000 C 
ATOM     29  C   UNL     1       1.959  16.196  19.929  0.00  0.00    +0.000 C 
ATOM     30  C   UNL     1       2.905  13.944  19.398  0.00  0.00    +0.000 C 
ATOM     31  C   UNL     1       1.414  14.205  21.374  0.00  0.00    +0.000 C 
ATOM     32  C   UNL     1       0.020  14.495  21.912  0.00  0.00    +0.000 C 
ENDBRANCH  24  25
BRANCH  24  34
ATOM     33  C   UNL     1      -1.450  11.320  23.120  0.00  0.00    +0.000 C 
ATOM     34  C   UNL     1      -2.286  12.124  22.128  0.00  0.00    +0.000 C 
ENDBRANCH  24  34
ENDBRANCH   1  24
TORSDOF 6
ENDMDL
MODEL 2
REMARK VINA RESULT:      -7.4      2.584      4.403
REMARK  Name = 
REMARK  12 active torsions:
REMARK  status: ('A' for Active; 'I' for Inactive)
REMARK    1  A    between atoms: C_1  and  C_2
REMARK    2  A    between atoms: C_2  and  N_3
REMARK    3  A    between atoms: N_3  and  C_4
REMARK    4  A    between atoms: N_3  and  C_25
REMARK    5  A    between atoms: C_9  and  C_10
REMARK    6  A    between atoms: N_12  and  C_13
REMARK    7  A    between atoms: C_13  and  C_14
REMARK    8  A    between atoms: C_15  and  C_16
REMARK    9  A    between atoms: C_18  and  C_19
REMARK   10  A    between atoms: C_23  and  C_24
REMARK   11  A    between atoms: C_28  and  C_29
REMARK   12  A    between atoms: C_28  and  C_30
REMARK                            x       y       z     vdW  Elec       q    Type
REMARK                         _______ _______ _______ _____ _____    ______ ____
ROOT
ATOM      1  C   UNL     1       0.845   9.684  19.748  0.00  0.00    +0.000 A 
ATOM      2  C   UNL     1       0.362   9.906  21.061  0.00  0.00    +0.000 A 
ATOM      3  C   UNL     1       0.574   9.018  22.108  0.00  0.00    +0.000 A 
ATOM      4 CL   UNL     1       0.109   9.457  23.707  0.00  0.00    +0.000 Cl
ATOM      5  C   UNL     1       1.152   7.793  21.865  0.00  0.00    +0.000 A 
ATOM      6  C   UNL     1       1.532   7.456  20.560  0.00  0.00    +0.000 A 
ATOM      7  C   UNL     1       1.472   8.419  19.503  0.00  0.00    +0.000 A 
ATOM      8  C   UNL     1       2.194   8.132  18.203  0.00  0.00    +0.000 C 
ENDROOT
BRANCH   6   9
ATOM      9  C   UNL     1       1.946   6.027  20.405  0.00  0.00    +0.000 C 
ATOM     10  O   UNL     1       1.110   5.147  20.262  0.00  0.00    +0.000 OA
ATOM     11  N   UNL     1       3.301   5.805  20.318  0.00  0.00    +0.000 N 
ATOM     12  H   UNL     1       3.927   6.595  20.207  0.00  0.00    +0.000 HD
BRANCH  11  13
ATOM     13  C   UNL     1       3.854   4.515  19.976  0.00  0.00    +0.000 C 
BRANCH  13  14
ATOM     14  C   UNL     1       4.540   4.601  18.644  0.00  0.00    +0.000 A 
ATOM     15  C   UNL     1       3.991   4.322  17.445  0.00  0.00    +0.000 A 
ATOM     16  C   UNL     1       2.571   3.881  17.214  0.00  0.00    +0.000 C 
ATOM     17  C   UNL     1       4.791   4.450  16.229  0.00  0.00    +0.000 A 
ATOM     18  C   UNL     1       6.065   4.856  16.258  0.00  0.00    +0.000 A 
ATOM     19  C   UNL     1       6.920   5.025  15.052  0.00  0.00    +0.000 C 
ATOM     20  N   UNL     1       6.627   5.139  17.480  0.00  0.00    +0.000 N 
ATOM     21  C   UNL     1       5.981   5.041  18.691  0.00  0.00    +0.000 A 
ATOM     22  O   UNL     1       6.544   5.313  19.746  0.00  0.00    +0.000 OA
ATOM     23  H   UNL     1       7.593   5.460  17.532  0.00  0.00    +0.000 HD
ENDBRANCH  13  14
ENDBRANCH  11  13
ENDBRANCH   6   9
BRANCH   1  24
ATOM     24  N   UNL     1       0.693  10.727  18.804  0.00  0.00    +0.000 N 
BRANCH  24  25
ATOM     25  C   UNL     1       1.567  11.940  18.813  0.00  0.00    +0.000 C 
ATOM     26  C   UNL     1       1.921  12.517  20.192  0.00  0.00    +0.000 C 
ATOM     27  C   UNL     1       0.773  13.283  20.844  0.00  0.00    +0.000 C 
ATOM     28  C   UNL     1       0.205  14.421  19.973  0.00  0.00    +0.000 C 
ATOM     29  C   UNL     1       1.172  15.621  19.971  0.00  0.00    +0.000 C 
ATOM     30  C   UNL     1      -1.136  14.875  20.577  0.00  0.00    +0.000 C 
ATOM     31  C   UNL     1      -0.057  13.958  18.531  0.00  0.00    +0.000 C 
ATOM     32  C   UNL     1       1.041  13.095  17.924  0.00  0.00    +0.000 C 
ENDBRANCH  24  25
BRANCH  24  34
ATOM     33  C   UNL     1      -1.761  10.595  18.179  0.00  0.00    +0.000 C 
ATOM     34  C   UNL     1      -0.307  10.541  17.721  0.00  0.00    +0.000 C 
ENDBRANCH  24  34
ENDBRANCH   1  24
TORSDOF 6
ENDMDL
MODEL 3
REMARK VINA RESULT:      -7.4      1.409      2.880
REMARK  Name = 
REMARK  12 active torsions:
REMARK  status: ('A' for Active; 'I' for Inactive)
REMARK    1  A    between atoms: C_1  and  C_2
REMARK    2  A    between atoms: C_2  and  N_3
REMARK    3  A    between atoms: N_3  and  C_4
REMARK    4  A    between atoms: N_3  and  C_25
REMARK    5  A    between atoms: C_9  and  C_10
REMARK    6  A    between atoms: N_12  and  C_13
REMARK    7  A    between atoms: C_13  and  C_14
REMARK    8  A    between atoms: C_15  and  C_16
REMARK    9  A    between atoms: C_18  and  C_19
REMARK   10  A    between atoms: C_23  and  C_24
REMARK   11  A    between atoms: C_28  and  C_29
REMARK   12  A    between atoms: C_28  and  C_30
REMARK                            x       y       z     vdW  Elec       q    Type
REMARK                         _______ _______ _______ _____ _____    ______ ____
ROOT
ATOM      1  C   UNL     1      -1.202  12.086  19.700  0.00  0.00    +0.000 A 
ATOM      2  C   UNL     1      -2.248  11.720  18.817  0.00  0.00    +0.000 A 
ATOM      3  C   UNL     1      -2.150  10.662  17.922  0.00  0.00    +0.000 A 
ATOM      4 CL   UNL     1      -3.534  10.178  17.019  0.00  0.00    +0.000 Cl
ATOM      5  C   UNL     1      -0.950  10.009  17.757  0.00  0.00    +0.000 A 
ATOM      6  C   UNL     1       0.162  10.411  18.506  0.00  0.00    +0.000 A 
ATOM      7  C   UNL     1       0.037  11.384  19.547  0.00  0.00    +0.000 A 
ATOM      8  C   UNL     1       1.166  11.546  20.543  0.00  0.00    +0.000 C 
ENDROOT
BRANCH   6   9
ATOM      9  C   UNL     1       1.440   9.762  18.077  0.00  0.00    +0.000 C 
ATOM     10  O   UNL     1       2.350  10.428  17.605  0.00  0.00    +0.000 OA
ATOM     11  N   UNL     1       1.553   8.420  18.359  0.00  0.00    +0.000 N 
ATOM     12  H   UNL     1       0.863   7.981  18.960  0.00  0.00    +0.000 HD
BRANCH  11  13
ATOM     13  C   UNL     1       2.789   7.693  18.187  0.00  0.00    +0.000 C 
BRANCH  13  14
ATOM     14  C   UNL     1       2.722   6.404  18.953  0.00  0.00    +0.000 A 
ATOM     15  C   UNL     1       3.181   5.206  18.538  0.00  0.00    +0.000 A 
ATOM     16  C   UNL     1       3.864   4.938  17.224  0.00  0.00    +0.000 C 
ATOM     17  C   UNL     1       3.042   4.034  19.398  0.00  0.00    +0.000 A 
ATOM     18  C   UNL     1       2.479   4.106  20.610  0.00  0.00    +0.000 A 
ATOM     19  C   UNL     1       2.329   2.953  21.537  0.00  0.00    +0.000 C 
ATOM     20  N   UNL     1       2.008   5.327  21.033  0.00  0.00    +0.000 N 
ATOM     21  C   UNL     1       2.069   6.495  20.308  0.00  0.00    +0.000 A 
ATOM     22  O   UNL     1       1.632   7.551  20.750  0.00  0.00    +0.000 OA
ATOM     23  H   UNL     1       1.585   5.415  21.956  0.00  0.00    +0.000 HD
ENDBRANCH  13  14
ENDBRANCH  11  13
ENDBRANCH   6   9
BRANCH   1  24
ATOM     24  N   UNL     1      -1.474  13.084  20.665  0.00  0.00    +0.000 N 
BRANCH  24  25
ATOM     25  C   UNL     1      -1.677  12.758  22.110  0.00  0.00    +0.000 C 
ATOM     26  C   UNL     1      -3.133  12.700  22.599  0.00  0.00    +0.000 C 
ATOM     27  C   UNL     1      -3.770  14.077  22.773  0.00  0.00    +0.000 C 
ATOM     28  C   UNL     1      -2.981  15.019  23.704  0.00  0.00    +0.000 C 
ATOM     29  C   UNL     1      -3.179  14.602  25.174  0.00  0.00    +0.000 C 
ATOM     30  C   UNL     1      -3.522  16.449  23.524  0.00  0.00    +0.000 C 
ATOM     31  C   UNL     1      -1.482  15.033  23.362  0.00  0.00    +0.000 C 
ATOM     32  C   UNL     1      -0.876  13.667  23.075  0.00  0.00    +0.000 C 
ENDBRANCH  24  25
BRANCH  24  34
ATOM     33  C   UNL     1      -0.139  14.949  19.584  0.00  0.00    +0.000 C 
ATOM     34  C   UNL     1      -1.451  14.502  20.221  0.00  0.00    +0.000 C 
ENDBRANCH  24  34
ENDBRANCH   1  24
TORSDOF 6
ENDMDL
MODEL 4
REMARK VINA RESULT:      -7.3      1.069      1.234
REMARK  Name = 
REMARK  12 active torsions:
REMARK  status: ('A' for Active; 'I' for Inactive)
REMARK    1  A    between atoms: C_1  and  C_2
REMARK    2  A    between atoms: C_2  and  N_3
REMARK    3  A    between atoms: N_3  and  C_4
REMARK    4  A    between atoms: N_3  and  C_25
REMARK    5  A    between atoms: C_9  and  C_10
REMARK    6  A    between atoms: N_12  and  C_13
REMARK    7  A    between atoms: C_13  and  C_14
REMARK    8  A    between atoms: C_15  and  C_16
REMARK    9  A    between atoms: C_18  and  C_19
REMARK   10  A    between atoms: C_23  and  C_24
REMARK   11  A    between atoms: C_28  and  C_29
REMARK   12  A    between atoms: C_28  and  C_30
REMARK                            x       y       z     vdW  Elec       q    Type
REMARK                         _______ _______ _______ _____ _____    ______ ____
ROOT
ATOM      1  C   UNL     1      -1.237  11.727  19.545  0.00  0.00    +0.000 A 
ATOM      2  C   UNL     1      -2.146  11.407  18.507  0.00  0.00    +0.000 A 
ATOM      3  C   UNL     1      -1.963  10.337  17.640  0.00  0.00    +0.000 A 
ATOM      4 CL   UNL     1      -3.208   9.917  16.528  0.00  0.00    +0.000 Cl
ATOM      5  C   UNL     1      -0.788   9.620  17.671  0.00  0.00    +0.000 A 
ATOM      6  C   UNL     1       0.210   9.971  18.587  0.00  0.00    +0.000 A 
ATOM      7  C   UNL     1      -0.027  10.960  19.594  0.00  0.00    +0.000 A 
ATOM      8  C   UNL     1       0.935  11.072  20.757  0.00  0.00    +0.000 C 
ENDROOT
BRANCH   6   9
ATOM      9  C   UNL     1       1.504   9.253  18.369  0.00  0.00    +0.000 C 
ATOM     10  O   UNL     1       2.296   9.637  17.520  0.00  0.00    +0.000 OA
ATOM     11  N   UNL     1       1.777   8.233  19.251  0.00  0.00    +0.000 N 
ATOM     12  H   UNL     1       1.192   8.119  20.072  0.00  0.00    +0.000 HD
BRANCH  11  13
ATOM     13  C   UNL     1       3.060   7.572  19.298  0.00  0.00    +0.000 C 
BRANCH  13  14
ATOM     14  C   UNL     1       2.908   6.151  18.838  0.00  0.00    +0.000 A 
ATOM     15  C   UNL     1       3.491   5.598  17.755  0.00  0.00    +0.000 A 
ATOM     16  C   UNL     1       4.420   6.303  16.806  0.00  0.00    +0.000 C 
ATOM     17  C   UNL     1       3.244   4.194  17.432  0.00  0.00    +0.000 A 
ATOM     18  C   UNL     1       2.461   3.419  18.190  0.00  0.00    +0.000 A 
ATOM     19  C   UNL     1       2.191   1.981  17.922  0.00  0.00    +0.000 C 
ATOM     20  N   UNL     1       1.864   3.983  19.293  0.00  0.00    +0.000 N 
ATOM     21  C   UNL     1       2.008   5.293  19.689  0.00  0.00    +0.000 A 
ATOM     22  O   UNL     1       1.448   5.729  20.688  0.00  0.00    +0.000 OA
ATOM     23  H   UNL     1       1.270   3.413  19.895  0.00  0.00    +0.000 HD
ENDBRANCH  13  14
ENDBRANCH  11  13
ENDBRANCH   6   9
BRANCH   1  24
ATOM     24  N   UNL     1      -1.605  12.747  20.454  0.00  0.00    +0.000 N 
BRANCH  24  25
ATOM     25  C   UNL     1      -1.286  14.186  20.205  0.00  0.00    +0.000 C 
ATOM     26  C   UNL     1      -0.383  14.487  18.999  0.00  0.00    +0.000 C 
ATOM     27  C   UNL     1       1.088  14.155  19.243  0.00  0.00    +0.000 C 
ATOM     28  C   UNL     1       1.688  14.846  20.483  0.00  0.00    +0.000 C 
ATOM     29  C   UNL     1       1.941  16.338  20.190  0.00  0.00    +0.000 C 
ATOM     30  C   UNL     1       3.034  14.176  20.811  0.00  0.00    +0.000 C 
ATOM     31  C   UNL     1       0.775  14.703  21.712  0.00  0.00    +0.000 C 
ATOM     32  C   UNL     1      -0.707  14.921  21.440  0.00  0.00    +0.000 C 
ENDBRANCH  24  25
BRANCH  24  34
ATOM     33  C   UNL     1      -1.626  11.773  22.795  0.00  0.00    +0.000 C 
ATOM     34  C   UNL     1      -2.421  12.362  21.634  0.00  0.00    +0.000 C 
ENDBRANCH  24  34
ENDBRANCH   1  24
TORSDOF 6
ENDMDL
MODEL 5
REMARK VINA RESULT:      -7.3      2.409      3.973
REMARK  Name = 
REMARK  12 active torsions:
REMARK  status: ('A' for Active; 'I' for Inactive)
REMARK    1  A    between atoms: C_1  and  C_2
REMARK    2  A    between atoms: C_2  and  N_3
REMARK    3  A    between atoms: N_3  and  C_4
REMARK    4  A    between atoms: N_3  and  C_25
REMARK    5  A    between atoms: C_9  and  C_10
REMARK    6  A    between atoms: N_12  and  C_13
REMARK    7  A    between atoms: C_13  and  C_14
REMARK    8  A    between atoms: C_15  and  C_16
REMARK    9  A    between atoms: C_18  and  C_19
REMARK   10  A    between atoms: C_23  and  C_24
REMARK   11  A    between atoms: C_28  and  C_29
REMARK   12  A    between atoms: C_28  and  C_30
REMARK                            x       y       z     vdW  Elec       q    Type
REMARK                         _______ _______ _______ _____ _____    ______ ____
ROOT
ATOM      1  C   UNL     1       0.271   9.991  19.625  0.00  0.00    +0.000 A 
ATOM      2  C   UNL     1      -0.088   9.987  20.996  0.00  0.00    +0.000 A 
ATOM      3  C   UNL     1       0.529   9.174  21.939  0.00  0.00    +0.000 A 
ATOM      4 CL   UNL     1       0.153   9.368  23.608  0.00  0.00    +0.000 Cl
ATOM      5  C   UNL     1       1.433   8.217  21.537  0.00  0.00    +0.000 A 
ATOM      6  C   UNL     1       1.732   8.079  20.176  0.00  0.00    +0.000 A 
ATOM      7  C   UNL     1       1.235   9.014  19.214  0.00  0.00    +0.000 A 
ATOM      8  C   UNL     1       1.840   9.034  17.826  0.00  0.00    +0.000 C 
ENDROOT
BRANCH   6   9
ATOM      9  C   UNL     1       2.559   6.873  19.863  0.00  0.00    +0.000 C 
ATOM     10  O   UNL     1       3.609   6.979  19.244  0.00  0.00    +0.000 OA
ATOM     11  N   UNL     1       2.122   5.690  20.413  0.00  0.00    +0.000 N 
ATOM     12  H   UNL     1       1.382   5.710  21.107  0.00  0.00    +0.000 HD
BRANCH  11  13
ATOM     13  C   UNL     1       2.906   4.478  20.368  0.00  0.00    +0.000 C 
BRANCH  13  14
ATOM     14  C   UNL     1       3.515   4.326  19.005  0.00  0.00    +0.000 A 
ATOM     15  C   UNL     1       2.846   4.169  17.845  0.00  0.00    +0.000 A 
ATOM     16  C   UNL     1       1.349   4.133  17.698  0.00  0.00    +0.000 C 
ATOM     17  C   UNL     1       3.582   4.030  16.591  0.00  0.00    +0.000 A 
ATOM     18  C   UNL     1       4.918   4.066  16.546  0.00  0.00    +0.000 A 
ATOM     19  C   UNL     1       5.720   3.950  15.298  0.00  0.00    +0.000 C 
ATOM     20  N   UNL     1       5.602   4.222  17.729  0.00  0.00    +0.000 N 
ATOM     21  C   UNL     1       5.022   4.349  18.970  0.00  0.00    +0.000 A 
ATOM     22  O   UNL     1       5.695   4.489  19.984  0.00  0.00    +0.000 OA
ATOM     23  H   UNL     1       6.621   4.264  17.723  0.00  0.00    +0.000 HD
ENDBRANCH  13  14
ENDBRANCH  11  13
ENDBRANCH   6   9
BRANCH   1  24
ATOM     24  N   UNL     1      -0.325  10.966  18.790  0.00  0.00    +0.000 N 
BRANCH  24  25
ATOM     25  C   UNL     1       0.419  12.177  18.327  0.00  0.00    +0.000 C 
ATOM     26  C   UNL     1       1.762  12.460  19.017  0.00  0.00    +0.000 C 
ATOM     27  C   UNL     1       1.613  13.034  20.424  0.00  0.00    +0.000 C 
ATOM     28  C   UNL     1       0.754  14.312  20.491  0.00  0.00    +0.000 C 
ATOM     29  C   UNL     1       1.548  15.515  19.947  0.00  0.00    +0.000 C 
ATOM     30  C   UNL     1       0.400  14.585  21.964  0.00  0.00    +0.000 C 
ATOM     31  C   UNL     1      -0.560  14.156  19.709  0.00  0.00    +0.000 C 
ATOM     32  C   UNL     1      -0.424  13.477  18.353  0.00  0.00    +0.000 C 
ENDBRANCH  24  25
BRANCH  24  34
ATOM     33  C   UNL     1      -1.767   9.883  17.009  0.00  0.00    +0.000 C 
ATOM     34  C   UNL     1      -1.700  10.705  18.292  0.00  0.00    +0.000 C 
ENDBRANCH  24  34
ENDBRANCH   1  24
TORSDOF 6
ENDMDL
MODEL 6
REMARK VINA RESULT:      -7.2      2.611      4.859
REMARK  Name = 
REMARK  12 active torsions:
REMARK  status: ('A' for Active; 'I' for Inactive)
REMARK    1  A    between atoms: C_1  and  C_2
REMARK    2  A    between atoms: C_2  and  N_3
REMARK    3  A    between atoms: N_3  and  C_4
REMARK    4  A    between atoms: N_3  and  C_25
REMARK    5  A    between atoms: C_9  and  C_10
REMARK    6  A    between atoms: N_12  and  C_13
REMARK    7  A    between atoms: C_13  and  C_14
REMARK    8  A    between atoms: C_15  and  C_16
REMARK    9  A    between atoms: C_18  and  C_19
REMARK   10  A    between atoms: C_23  and  C_24
REMARK   11  A    between atoms: C_28  and  C_29
REMARK   12  A    between atoms: C_28  and  C_30
REMARK                            x       y       z     vdW  Elec       q    Type
REMARK                         _______ _______ _______ _____ _____    ______ ____
ROOT
ATOM      1  C   UNL     1       1.107   9.768  19.470  0.00  0.00    +0.000 A 
ATOM      2  C   UNL     1       0.657  10.003  20.793  0.00  0.00    +0.000 A 
ATOM      3  C   UNL     1       0.847   9.099  21.831  0.00  0.00    +0.000 A 
ATOM      4 CL   UNL     1       0.429   9.548  23.440  0.00  0.00    +0.000 Cl
ATOM      5  C   UNL     1       1.364   7.851  21.570  0.00  0.00    +0.000 A 
ATOM      6  C   UNL     1       1.706   7.506  20.257  0.00  0.00    +0.000 A 
ATOM      7  C   UNL     1       1.672   8.478  19.207  0.00  0.00    +0.000 A 
ATOM      8  C   UNL     1       2.357   8.167  17.893  0.00  0.00    +0.000 C 
ENDROOT
BRANCH   6   9
ATOM      9  C   UNL     1       2.052   6.061  20.087  0.00  0.00    +0.000 C 
ATOM     10  O   UNL     1       1.194   5.246  19.779  0.00  0.00    +0.000 OA
ATOM     11  N   UNL     1       3.389   5.752  20.182  0.00  0.00    +0.000 N 
ATOM     12  H   UNL     1       4.070   6.503  20.205  0.00  0.00    +0.000 HD
BRANCH  11  13
ATOM     13  C   UNL     1       3.908   4.445  19.854  0.00  0.00    +0.000 C 
BRANCH  13  14
ATOM     14  C   UNL     1       4.620   4.505  18.535  0.00  0.00    +0.000 A 
ATOM     15  C   UNL     1       4.107   4.164  17.335  0.00  0.00    +0.000 A 
ATOM     16  C   UNL     1       2.708   3.668  17.092  0.00  0.00    +0.000 C 
ATOM     17  C   UNL     1       4.929   4.274  16.132  0.00  0.00    +0.000 A 
ATOM     18  C   UNL     1       6.188   4.722  16.173  0.00  0.00    +0.000 A 
ATOM     19  C   UNL     1       7.065   4.876  14.980  0.00  0.00    +0.000 C 
ATOM     20  N   UNL     1       6.714   5.068  17.396  0.00  0.00    +0.000 N 
ATOM     21  C   UNL     1       6.045   4.993  18.596  0.00  0.00    +0.000 A 
ATOM     22  O   UNL     1       6.575   5.322  19.651  0.00  0.00    +0.000 OA
ATOM     23  H   UNL     1       7.668   5.423  17.456  0.00  0.00    +0.000 HD
ENDBRANCH  13  14
ENDBRANCH  11  13
ENDBRANCH   6   9
BRANCH   1  24
ATOM     24  N   UNL     1       0.987  10.824  18.536  0.00  0.00    +0.000 N 
BRANCH  24  25
ATOM     25  C   UNL     1      -0.317  11.168  17.890  0.00  0.00    +0.000 C 
ATOM     26  C   UNL     1      -0.763  12.635  17.992  0.00  0.00    +0.000 C 
ATOM     27  C   UNL     1      -1.294  13.014  19.373  0.00  0.00    +0.000 C 
ATOM     28  C   UNL     1      -2.448  12.119  19.867  0.00  0.00    +0.000 C 
ATOM     29  C   UNL     1      -3.752  12.477  19.128  0.00  0.00    +0.000 C 
ATOM     30  C   UNL     1      -2.653  12.374  21.371  0.00  0.00    +0.000 C 
ATOM     31  C   UNL     1      -2.133  10.626  19.677  0.00  0.00    +0.000 C 
ATOM     32  C   UNL     1      -1.495  10.270  18.342  0.00  0.00    +0.000 C 
ENDBRANCH  24  25
BRANCH  24  34
ATOM     33  C   UNL     1       2.356  12.839  19.239  0.00  0.00    +0.000 C 
ATOM     34  C   UNL     1       2.186  11.663  18.281  0.00  0.00    +0.000 C 
ENDBRANCH  24  34
ENDBRANCH   1  24
TORSDOF 6
ENDMDL
MODEL 7
REMARK VINA RESULT:      -7.2      2.538      3.952
REMARK  Name = 
REMARK  12 active torsions:
REMARK  status: ('A' for Active; 'I' for Inactive)
REMARK    1  A    between atoms: C_1  and  C_2
REMARK    2  A    between atoms: C_2  and  N_3
REMARK    3  A    between atoms: N_3  and  C_4
REMARK    4  A    between atoms: N_3  and  C_25
REMARK    5  A    between atoms: C_9  and  C_10
REMARK    6  A    between atoms: N_12  and  C_13
REMARK    7  A    between atoms: C_13  and  C_14
REMARK    8  A    between atoms: C_15  and  C_16
REMARK    9  A    between atoms: C_18  and  C_19
REMARK   10  A    between atoms: C_23  and  C_24
REMARK   11  A    between atoms: C_28  and  C_29
REMARK   12  A    between atoms: C_28  and  C_30
REMARK                            x       y       z     vdW  Elec       q    Type
REMARK                         _______ _______ _______ _____ _____    ______ ____
ROOT
ATOM      1  C   UNL     1       0.315  10.249  19.748  0.00  0.00    +0.000 A 
ATOM      2  C   UNL     1      -0.042  10.233  21.119  0.00  0.00    +0.000 A 
ATOM      3  C   UNL     1       0.426   9.280  22.014  0.00  0.00    +0.000 A 
ATOM      4 CL   UNL     1       0.085   9.447  23.694  0.00  0.00    +0.000 Cl
ATOM      5  C   UNL     1       1.156   8.207  21.557  0.00  0.00    +0.000 A 
ATOM      6  C   UNL     1       1.431   8.092  20.189  0.00  0.00    +0.000 A 
ATOM      7  C   UNL     1       1.100   9.145  19.279  0.00  0.00    +0.000 A 
ATOM      8  C   UNL     1       1.702   9.136  17.890  0.00  0.00    +0.000 C 
ENDROOT
BRANCH   6   9
ATOM      9  C   UNL     1       2.043   6.781  19.808  0.00  0.00    +0.000 C 
ATOM     10  O   UNL     1       2.295   5.939  20.659  0.00  0.00    +0.000 OA
ATOM     11  N   UNL     1       2.182   6.557  18.458  0.00  0.00    +0.000 N 
ATOM     12  H   UNL     1       1.739   7.192  17.802  0.00  0.00    +0.000 HD
BRANCH  11  13
ATOM     13  C   UNL     1       2.573   5.275  17.921  0.00  0.00    +0.000 C 
BRANCH  13  14
ATOM     14  C   UNL     1       4.070   5.177  17.898  0.00  0.00    +0.000 A 
ATOM     15  C   UNL     1       4.910   5.964  17.195  0.00  0.00    +0.000 A 
ATOM     16  C   UNL     1       4.500   7.106  16.306  0.00  0.00    +0.000 C 
ATOM     17  C   UNL     1       6.352   5.743  17.272  0.00  0.00    +0.000 A 
ATOM     18  C   UNL     1       6.883   4.783  18.037  0.00  0.00    +0.000 A 
ATOM     19  C   UNL     1       8.342   4.526  18.171  0.00  0.00    +0.000 C 
ATOM     20  N   UNL     1       6.027   3.978  18.752  0.00  0.00    +0.000 N 
ATOM     21  C   UNL     1       4.655   4.079  18.749  0.00  0.00    +0.000 A 
ATOM     22  O   UNL     1       3.952   3.328  19.416  0.00  0.00    +0.000 OA
ATOM     23  H   UNL     1       6.404   3.245  19.353  0.00  0.00    +0.000 HD
ENDBRANCH  13  14
ENDBRANCH  11  13
ENDBRANCH   6   9
BRANCH   1  24
ATOM     24  N   UNL     1      -0.106  11.353  18.969  0.00  0.00    +0.000 N 
BRANCH  24  25
ATOM     25  C   UNL     1       0.828  12.453  18.579  0.00  0.00    +0.000 C 
ATOM     26  C   UNL     1       2.009  12.714  19.526  0.00  0.00    +0.000 C 
ATOM     27  C   UNL     1       1.611  13.445  20.806  0.00  0.00    +0.000 C 
ATOM     28  C   UNL     1       0.877  14.779  20.563  0.00  0.00    +0.000 C 
ATOM     29  C   UNL     1       1.877  15.859  20.107  0.00  0.00    +0.000 C 
ATOM     30  C   UNL     1       0.238  15.233  21.888  0.00  0.00    +0.000 C 
ATOM     31  C   UNL     1      -0.244  14.631  19.522  0.00  0.00    +0.000 C 
ATOM     32  C   UNL     1       0.122  13.803  18.298  0.00  0.00    +0.000 C 
ENDBRANCH  24  25
BRANCH  24  34
ATOM     33  C   UNL     1      -1.770  10.309  17.365  0.00  0.00    +0.000 C 
ATOM     34  C   UNL     1      -1.499  11.345  18.452  0.00  0.00    +0.000 C 
ENDBRANCH  24  34
ENDBRANCH   1  24
TORSDOF 6
ENDMDL
MODEL 8
REMARK VINA RESULT:      -7.0      2.920      9.040
REMARK  Name = 
REMARK  12 active torsions:
REMARK  status: ('A' for Active; 'I' for Inactive)
REMARK    1  A    between atoms: C_1  and  C_2
REMARK    2  A    between atoms: C_2  and  N_3
REMARK    3  A    between atoms: N_3  and  C_4
REMARK    4  A    between atoms: N_3  and  C_25
REMARK    5  A    between atoms: C_9  and  C_10
REMARK    6  A    between atoms: N_12  and  C_13
REMARK    7  A    between atoms: C_13  and  C_14
REMARK    8  A    between atoms: C_15  and  C_16
REMARK    9  A    between atoms: C_18  and  C_19
REMARK   10  A    between atoms: C_23  and  C_24
REMARK   11  A    between atoms: C_28  and  C_29
REMARK   12  A    between atoms: C_28  and  C_30
REMARK                            x       y       z     vdW  Elec       q    Type
REMARK                         _______ _______ _______ _____ _____    ______ ____
ROOT
ATOM      1  C   UNL     1       3.323   5.303  18.810  0.00  0.00    +0.000 A 
ATOM      2  C   UNL     1       3.056   4.345  19.820  0.00  0.00    +0.000 A 
ATOM      3  C   UNL     1       2.196   4.584  20.885  0.00  0.00    +0.000 A 
ATOM      4 CL   UNL     1       1.793   3.302  21.960  0.00  0.00    +0.000 Cl
ATOM      5  C   UNL     1       1.673   5.843  21.077  0.00  0.00    +0.000 A 
ATOM      6  C   UNL     1       2.006   6.871  20.188  0.00  0.00    +0.000 A 
ATOM      7  C   UNL     1       2.753   6.604  18.998  0.00  0.00    +0.000 A 
ATOM      8  C   UNL     1       2.805   7.655  17.908  0.00  0.00    +0.000 C 
ENDROOT
BRANCH   6   9
ATOM      9  C   UNL     1       1.543   8.223  20.633  0.00  0.00    +0.000 C 
ATOM     10  O   UNL     1       1.616   8.551  21.809  0.00  0.00    +0.000 OA
ATOM     11  N   UNL     1       1.156   9.081  19.631  0.00  0.00    +0.000 N 
ATOM     12  H   UNL     1       1.342   8.831  18.665  0.00  0.00    +0.000 HD
BRANCH  11  13
ATOM     13  C   UNL     1       0.869  10.476  19.873  0.00  0.00    +0.000 C 
BRANCH  13  14
ATOM     14  C   UNL     1      -0.492  10.808  19.334  0.00  0.00    +0.000 A 
ATOM     15  C   UNL     1      -1.415  11.592  19.927  0.00  0.00    +0.000 A 
ATOM     16  C   UNL     1      -1.247  12.297  21.245  0.00  0.00    +0.000 C 
ATOM     17  C   UNL     1      -2.703  11.822  19.276  0.00  0.00    +0.000 A 
ATOM     18  C   UNL     1      -3.002  11.287  18.087  0.00  0.00    +0.000 A 
ATOM     19  C   UNL     1      -4.287  11.502  17.368  0.00  0.00    +0.000 C 
ATOM     20  N   UNL     1      -2.063  10.485  17.483  0.00  0.00    +0.000 N 
ATOM     21  C   UNL     1      -0.825  10.184  18.002  0.00  0.00    +0.000 A 
ATOM     22  O   UNL     1      -0.033   9.463  17.406  0.00  0.00    +0.000 OA
ATOM     23  H   UNL     1      -2.259  10.073  16.571  0.00  0.00    +0.000 HD
ENDBRANCH  13  14
ENDBRANCH  11  13
ENDBRANCH   6   9
BRANCH   1  24
ATOM     24  N   UNL     1       4.099   4.892  17.700  0.00  0.00    +0.000 N 
BRANCH  24  25
ATOM     25  C   UNL     1       5.360   5.593  17.309  0.00  0.00    +0.000 C 
ATOM     26  C   UNL     1       5.288   6.480  16.057  0.00  0.00    +0.000 C 
ATOM     27  C   UNL     1       5.269   5.687  14.752  0.00  0.00    +0.000 C 
ATOM     28  C   UNL     1       6.455   4.715  14.592  0.00  0.00    +0.000 C 
ATOM     29  C   UNL     1       7.739   5.496  14.248  0.00  0.00    +0.000 C 
ATOM     30  C   UNL     1       6.144   3.752  13.433  0.00  0.00    +0.000 C 
ATOM     31  C   UNL     1       6.678   3.876  15.861  0.00  0.00    +0.000 C 
ATOM     32  C   UNL     1       6.581   4.650  17.168  0.00  0.00    +0.000 C 
ENDBRANCH  24  25
BRANCH  24  34
ATOM     33  C   UNL     1       2.187   3.352  17.062  0.00  0.00    +0.000 C 
ATOM     34  C   UNL     1       3.679   3.662  16.979  0.00  0.00    +0.000 C 
ENDBRANCH  24  34
ENDBRANCH   1  24
TORSDOF 6
ENDMDL
MODEL 9
REMARK VINA RESULT:      -7.0      1.706      3.229
REMARK  Name = 
REMARK  12 active torsions:
REMARK  status: ('A' for Active; 'I' for Inactive)
REMARK    1  A    between atoms: C_1  and  C_2
REMARK    2  A    between atoms: C_2  and  N_3
REMARK    3  A    between atoms: N_3  and  C_4
REMARK    4  A    between atoms: N_3  and  C_25
REMARK    5  A    between atoms: C_9  and  C_10
REMARK    6  A    between atoms: N_12  and  C_13
REMARK    7  A    between atoms: C_13  and  C_14
REMARK    8  A    between atoms: C_15  and  C_16
REMARK    9  A    between atoms: C_18  and  C_19
REMARK   10  A    between atoms: C_23  and  C_24
REMARK   11  A    between atoms: C_28  and  C_29
REMARK   12  A    between atoms: C_28  and  C_30
REMARK                            x       y       z     vdW  Elec       q    Type
REMARK                         _______ _______ _______ _____ _____    ______ ____
ROOT
ATOM      1  C   UNL     1      -1.252  12.013  19.587  0.00  0.00    +0.000 A 
ATOM      2  C   UNL     1      -2.278  11.703  18.660  0.00  0.00    +0.000 A 
ATOM      3  C   UNL     1      -2.183  10.666  17.741  0.00  0.00    +0.000 A 
ATOM      4 CL   UNL     1      -3.550  10.250  16.780  0.00  0.00    +0.000 Cl
ATOM      5  C   UNL     1      -0.999   9.980  17.598  0.00  0.00    +0.000 A 
ATOM      6  C   UNL     1       0.100  10.327  18.393  0.00  0.00    +0.000 A 
ATOM      7  C   UNL     1      -0.030  11.276  19.456  0.00  0.00    +0.000 A 
ATOM      8  C   UNL     1       1.069  11.377  20.493  0.00  0.00    +0.000 C 
ENDROOT
BRANCH   6   9
ATOM      9  C   UNL     1       1.371   9.650  17.989  0.00  0.00    +0.000 C 
ATOM     10  O   UNL     1       2.304  10.295  17.531  0.00  0.00    +0.000 OA
ATOM     11  N   UNL     1       1.450   8.308  18.278  0.00  0.00    +0.000 N 
ATOM     12  H   UNL     1       0.742   7.885  18.868  0.00  0.00    +0.000 HD
BRANCH  11  13
ATOM     13  C   UNL     1       2.673   7.554  18.130  0.00  0.00    +0.000 C 
BRANCH  13  14
ATOM     14  C   UNL     1       2.622   6.337  19.007  0.00  0.00    +0.000 A 
ATOM     15  C   UNL     1       2.104   6.272  20.251  0.00  0.00    +0.000 A 
ATOM     16  C   UNL     1       1.463   7.414  20.992  0.00  0.00    +0.000 C 
ATOM     17  C   UNL     1       2.129   5.010  20.986  0.00  0.00    +0.000 A 
ATOM     18  C   UNL     1       2.642   3.893  20.459  0.00  0.00    +0.000 A 
ATOM     19  C   UNL     1       2.676   2.576  21.151  0.00  0.00    +0.000 C 
ATOM     20  N   UNL     1       3.172   3.959  19.192  0.00  0.00    +0.000 N 
ATOM     21  C   UNL     1       3.220   5.089  18.410  0.00  0.00    +0.000 A 
ATOM     22  O   UNL     1       3.706   5.075  17.285  0.00  0.00    +0.000 OA
ATOM     23  H   UNL     1       3.560   3.120  18.761  0.00  0.00    +0.000 HD
ENDBRANCH  13  14
ENDBRANCH  11  13
ENDBRANCH   6   9
BRANCH   1  24
ATOM     24  N   UNL     1      -1.525  12.993  20.570  0.00  0.00    +0.000 N 
BRANCH  24  25
ATOM     25  C   UNL     1      -1.829  12.633  21.989  0.00  0.00    +0.000 C 
ATOM     26  C   UNL     1      -3.307  12.685  22.406  0.00  0.00    +0.000 C 
ATOM     27  C   UNL     1      -3.832  14.105  22.605  0.00  0.00    +0.000 C 
ATOM     28  C   UNL     1      -3.014  14.940  23.610  0.00  0.00    +0.000 C 
ATOM     29  C   UNL     1      -3.321  14.487  25.051  0.00  0.00    +0.000 C 
ATOM     30  C   UNL     1      -3.423  16.416  23.464  0.00  0.00    +0.000 C 
ATOM     31  C   UNL     1      -1.504  14.836  23.341  0.00  0.00    +0.000 C 
ATOM     32  C   UNL     1      -1.003  13.433  23.027  0.00  0.00    +0.000 C 
ENDBRANCH  24  25
BRANCH  24  34
ATOM     33  C   UNL     1      -0.022  14.824  19.665  0.00  0.00    +0.000 C 
ATOM     34  C   UNL     1      -1.401  14.421  20.177  0.00  0.00    +0.000 C 
ENDBRANCH  24  34
ENDBRANCH   1  24
TORSDOF 6
ENDMDL
