MODEL 1
REMARK VINA RESULT:      -7.4      0.000      0.000
REMARK  Name = 
REMARK  7 active torsions:
REMARK  status: ('A' for Active; 'I' for Inactive)
REMARK    1  A    between atoms: C_1  and  C_2
REMARK    2  A    between atoms: C_2  and  C_3
REMARK    3  A    between atoms: C_6  and  C_7
REMARK    4  A    between atoms: C_7  and  O_9
REMARK    5  A    between atoms: O_9  and  C_10
REMARK    6  A    between atoms: C_15  and  C_16
REMARK    7  A    between atoms: C_16  and  O_17
REMARK                            x       y       z     vdW  Elec       q    Type
REMARK                         _______ _______ _______ _____ _____    ______ ____
ROOT
ATOM      1  C   UNL     1       3.085   7.496  17.691  0.00  0.00    +0.000 C 
ATOM      2  O   UNL     1       2.490   8.498  17.322  0.00  0.00    +0.000 OA
ENDROOT
BRANCH   1   6
ATOM      3  C   UNL     1       1.505   4.218  19.947  0.00  0.00    +0.000 A 
ATOM      4  C   UNL     1       1.511   4.141  18.546  0.00  0.00    +0.000 A 
ATOM      5  C   UNL     1       1.981   5.215  17.776  0.00  0.00    +0.000 A 
ATOM      6  C   UNL     1       2.431   6.381  18.410  0.00  0.00    +0.000 A 
ATOM      7  C   UNL     1       2.324   6.496  19.800  0.00  0.00    +0.000 A 
ATOM      8  C   UNL     1       1.877   5.419  20.564  0.00  0.00    +0.000 A 
BRANCH   3  10
ATOM      9  C   UNL     1       2.344   2.727  21.773  0.00  0.00    +0.000 C 
ATOM     10  C   UNL     1       1.201   3.010  20.802  0.00  0.00    +0.000 C 
ENDBRANCH   3  10
ENDBRANCH   1   6
BRANCH   1  11
ATOM     11  O   UNL     1       4.433   7.325  17.674  0.00  0.00    +0.000 OA
BRANCH  11  12
ATOM     12  C   UNL     1       4.972   6.028  17.324  0.00  0.00    +0.000 C 
ATOM     13  C   UNL     1       5.603   5.964  15.947  0.00  0.00    +0.000 C 
ATOM     14  C   UNL     1       6.846   5.160  16.159  0.00  0.00    +0.000 C 
ATOM     15  O   UNL     1       7.616   4.819  15.275  0.00  0.00    +0.000 OA
ATOM     16  O   UNL     1       6.990   4.789  17.460  0.00  0.00    +0.000 OA
ATOM     17  C   UNL     1       6.049   5.495  18.272  0.00  0.00    +0.000 C 
BRANCH  17  18
ATOM     18  C   UNL     1       5.508   4.531  19.329  0.00  0.00    +0.000 C 
BRANCH  18  19
ATOM     19  O   UNL     1       5.397   3.216  18.804  0.00  0.00    +0.000 OA
ATOM     20  H   UNL     1       5.907   3.189  17.975  0.00  0.00    +0.000 HD
ENDBRANCH  18  19
ENDBRANCH  17  18
ENDBRANCH  11  12
ENDBRANCH   1  11
TORSDOF 6
ENDMDL
MODEL 2
REMARK VINA RESULT:      -7.2      2.031      3.168
REMARK  Name = 
REMARK  7 active torsions:
REMARK  status: ('A' for Active; 'I' for Inactive)
REMARK    1  A    between atoms: C_1  and  C_2
REMARK    2  A    between atoms: C_2  and  C_3
REMARK    3  A    between atoms: C_6  and  C_7
REMARK    4  A    between atoms: C_7  and  O_9
REMARK    5  A    between atoms: O_9  and  C_10
REMARK    6  A    between atoms: C_15  and  C_16
REMARK    7  A    between atoms: C_16  and  O_17
REMARK                            x       y       z     vdW  Elec       q    Type
REMARK                         _______ _______ _______ _____ _____    ______ ____
ROOT
ATOM      1  C   UNL     1       3.923   3.435  17.556  0.00  0.00    +0.000 C 
ATOM      2  O   UNL     1       3.880   2.235  17.786  0.00  0.00    +0.000 OA
ENDROOT
BRANCH   1   6
ATOM      3  C   UNL     1       2.004   6.210  20.192  0.00  0.00    +0.000 A 
ATOM      4  C   UNL     1       2.538   6.679  18.983  0.00  0.00    +0.000 A 
ATOM      5  C   UNL     1       3.212   5.804  18.116  0.00  0.00    +0.000 A 
ATOM      6  C   UNL     1       3.368   4.458  18.471  0.00  0.00    +0.000 A 
ATOM      7  C   UNL     1       2.929   4.018  19.724  0.00  0.00    +0.000 A 
ATOM      8  C   UNL     1       2.241   4.884  20.573  0.00  0.00    +0.000 A 
BRANCH   3  10
ATOM      9  C   UNL     1       1.448   8.552  20.878  0.00  0.00    +0.000 C 
ATOM     10  C   UNL     1       1.102   7.074  21.042  0.00  0.00    +0.000 C 
ENDBRANCH   3  10
ENDBRANCH   1   6
BRANCH   1  11
ATOM     11  O   UNL     1       4.303   4.003  16.382  0.00  0.00    +0.000 OA
BRANCH  11  12
ATOM     12  C   UNL     1       5.710   4.034  16.040  0.00  0.00    +0.000 C 
ATOM     13  C   UNL     1       5.990   4.058  14.550  0.00  0.00    +0.000 C 
ATOM     14  C   UNL     1       7.098   5.051  14.409  0.00  0.00    +0.000 C 
ATOM     15  O   UNL     1       7.667   5.319  13.362  0.00  0.00    +0.000 OA
ATOM     16  O   UNL     1       7.453   5.584  15.609  0.00  0.00    +0.000 OA
ATOM     17  C   UNL     1       6.488   5.226  16.602  0.00  0.00    +0.000 C 
BRANCH  17  18
ATOM     18  C   UNL     1       7.231   4.911  17.902  0.00  0.00    +0.000 C 
BRANCH  18  19
ATOM     19  O   UNL     1       8.301   4.008  17.665  0.00  0.00    +0.000 OA
ATOM     20  H   UNL     1       8.285   3.777  16.719  0.00  0.00    +0.000 HD
ENDBRANCH  18  19
ENDBRANCH  17  18
ENDBRANCH  11  12
ENDBRANCH   1  11
TORSDOF 6
ENDMDL
MODEL 3
REMARK VINA RESULT:      -7.2      1.006      1.026
REMARK  Name = 
REMARK  7 active torsions:
REMARK  status: ('A' for Active; 'I' for Inactive)
REMARK    1  A    between atoms: C_1  and  C_2
REMARK    2  A    between atoms: C_2  and  C_3
REMARK    3  A    between atoms: C_6  and  C_7
REMARK    4  A    between atoms: C_7  and  O_9
REMARK    5  A    between atoms: O_9  and  C_10
REMARK    6  A    between atoms: C_15  and  C_16
REMARK    7  A    between atoms: C_16  and  O_17
REMARK                            x       y       z     vdW  Elec       q    Type
REMARK                         _______ _______ _______ _____ _____    ______ ____
ROOT
ATOM      1  C   UNL     1       3.454   7.191  17.575  0.00  0.00    +0.000 C 
ATOM      2  O   UNL     1       2.940   8.077  16.907  0.00  0.00    +0.000 OA
ENDROOT
BRANCH   1   6
ATOM      3  C   UNL     1       1.498   4.220  19.959  0.00  0.00    +0.000 A 
ATOM      4  C   UNL     1       1.546   4.053  18.567  0.00  0.00    +0.000 A 
ATOM      5  C   UNL     1       2.140   5.029  17.753  0.00  0.00    +0.000 A 
ATOM      6  C   UNL     1       2.674   6.187  18.333  0.00  0.00    +0.000 A 
ATOM      7  C   UNL     1       2.530   6.401  19.708  0.00  0.00    +0.000 A 
ATOM      8  C   UNL     1       1.959   5.420  20.517  0.00  0.00    +0.000 A 
BRANCH   3  10
ATOM      9  C   UNL     1       2.198   2.647  21.775  0.00  0.00    +0.000 C 
ATOM     10  C   UNL     1       1.054   3.102  20.872  0.00  0.00    +0.000 C 
ENDBRANCH   3  10
ENDBRANCH   1   6
BRANCH   1  11
ATOM     11  O   UNL     1       4.774   7.094  17.878  0.00  0.00    +0.000 OA
BRANCH  11  12
ATOM     12  C   UNL     1       5.517   5.938  17.420  0.00  0.00    +0.000 C 
ATOM     13  C   UNL     1       5.245   5.551  15.979  0.00  0.00    +0.000 C 
ATOM     14  C   UNL     1       6.597   5.217  15.437  0.00  0.00    +0.000 C 
ATOM     15  O   UNL     1       6.813   4.791  14.312  0.00  0.00    +0.000 OA
ATOM     16  O   UNL     1       7.571   5.382  16.372  0.00  0.00    +0.000 OA
ATOM     17  C   UNL     1       7.039   6.068  17.508  0.00  0.00    +0.000 C 
BRANCH  17  18
ATOM     18  C   UNL     1       7.633   5.440  18.771  0.00  0.00    +0.000 C 
BRANCH  18  19
ATOM     19  O   UNL     1       6.628   5.235  19.752  0.00  0.00    +0.000 OA
ATOM     20  H   UNL     1       7.048   5.329  20.625  0.00  0.00    +0.000 HD
ENDBRANCH  18  19
ENDBRANCH  17  18
ENDBRANCH  11  12
ENDBRANCH   1  11
TORSDOF 6
ENDMDL
MODEL 4
REMARK VINA RESULT:      -7.2      1.173      1.651
REMARK  Name = 
REMARK  7 active torsions:
REMARK  status: ('A' for Active; 'I' for Inactive)
REMARK    1  A    between atoms: C_1  and  C_2
REMARK    2  A    between atoms: C_2  and  C_3
REMARK    3  A    between atoms: C_6  and  C_7
REMARK    4  A    between atoms: C_7  and  O_9
REMARK    5  A    between atoms: O_9  and  C_10
REMARK    6  A    between atoms: C_15  and  C_16
REMARK    7  A    between atoms: C_16  and  O_17
REMARK                            x       y       z     vdW  Elec       q    Type
REMARK                         _______ _______ _______ _____ _____    ______ ____
ROOT
ATOM      1  C   UNL     1       3.747   7.109  17.502  0.00  0.00    +0.000 C 
ATOM      2  O   UNL     1       3.095   8.077  17.137  0.00  0.00    +0.000 OA
ENDROOT
BRANCH   1   6
ATOM      3  C   UNL     1       1.774   4.044  19.748  0.00  0.00    +0.000 A 
ATOM      4  C   UNL     1       2.722   4.854  20.389  0.00  0.00    +0.000 A 
ATOM      5  C   UNL     1       3.419   5.839  19.672  0.00  0.00    +0.000 A 
ATOM      6  C   UNL     1       3.179   6.001  18.302  0.00  0.00    +0.000 A 
ATOM      7  C   UNL     1       2.312   5.122  17.643  0.00  0.00    +0.000 A 
ATOM      8  C   UNL     1       1.606   4.159  18.362  0.00  0.00    +0.000 A 
BRANCH   3  10
ATOM      9  C   UNL     1       1.586   2.553  21.749  0.00  0.00    +0.000 C 
ATOM     10  C   UNL     1       0.867   3.122  20.529  0.00  0.00    +0.000 C 
ENDBRANCH   3  10
ENDBRANCH   1   6
BRANCH   1  11
ATOM     11  O   UNL     1       5.095   6.980  17.402  0.00  0.00    +0.000 OA
BRANCH  11  12
ATOM     12  C   UNL     1       5.647   5.747  16.882  0.00  0.00    +0.000 C 
ATOM     13  C   UNL     1       5.364   5.506  15.412  0.00  0.00    +0.000 C 
ATOM     14  C   UNL     1       6.658   4.981  14.879  0.00  0.00    +0.000 C 
ATOM     15  O   UNL     1       6.837   4.598  13.732  0.00  0.00    +0.000 OA
ATOM     16  O   UNL     1       7.612   4.915  15.846  0.00  0.00    +0.000 OA
ATOM     17  C   UNL     1       7.165   5.607  17.015  0.00  0.00    +0.000 C 
BRANCH  17  18
ATOM     18  C   UNL     1       7.599   4.806  18.243  0.00  0.00    +0.000 C 
BRANCH  18  19
ATOM     19  O   UNL     1       6.846   5.186  19.385  0.00  0.00    +0.000 OA
ATOM     20  H   UNL     1       7.223   4.720  20.153  0.00  0.00    +0.000 HD
ENDBRANCH  18  19
ENDBRANCH  17  18
ENDBRANCH  11  12
ENDBRANCH   1  11
TORSDOF 6
ENDMDL
MODEL 5
REMARK VINA RESULT:      -7.2      1.874      3.244
REMARK  Name = 
REMARK  7 active torsions:
REMARK  status: ('A' for Active; 'I' for Inactive)
REMARK    1  A    between atoms: C_1  and  C_2
REMARK    2  A    between atoms: C_2  and  C_3
REMARK    3  A    between atoms: C_6  and  C_7
REMARK    4  A    between atoms: C_7  and  O_9
REMARK    5  A    between atoms: O_9  and  C_10
REMARK    6  A    between atoms: C_15  and  C_16
REMARK    7  A    between atoms: C_16  and  O_17
REMARK                            x       y       z     vdW  Elec       q    Type
REMARK                         _______ _______ _______ _____ _____    ______ ____
ROOT
ATOM      1  C   UNL     1       3.943   3.978  17.902  0.00  0.00    +0.000 C 
ATOM      2  O   UNL     1       4.107   2.823  18.269  0.00  0.00    +0.000 OA
ENDROOT
BRANCH   1   6
ATOM      3  C   UNL     1       1.889   7.012  20.118  0.00  0.00    +0.000 A 
ATOM      4  C   UNL     1       1.847   5.687  20.577  0.00  0.00    +0.000 A 
ATOM      5  C   UNL     1       2.472   4.662  19.852  0.00  0.00    +0.000 A 
ATOM      6  C   UNL     1       3.127   4.961  18.650  0.00  0.00    +0.000 A 
ATOM      7  C   UNL     1       3.076   6.263  18.140  0.00  0.00    +0.000 A 
ATOM      8  C   UNL     1       2.473   7.282  18.874  0.00  0.00    +0.000 A 
BRANCH   3  10
ATOM      9  C   UNL     1       0.917   9.318  20.110  0.00  0.00    +0.000 C 
ATOM     10  C   UNL     1       1.406   8.159  20.974  0.00  0.00    +0.000 C 
ENDBRANCH   3  10
ENDBRANCH   1   6
BRANCH   1  11
ATOM     11  O   UNL     1       4.311   4.485  16.697  0.00  0.00    +0.000 OA
BRANCH  11  12
ATOM     12  C   UNL     1       5.705   4.428  16.307  0.00  0.00    +0.000 C 
ATOM     13  C   UNL     1       5.930   4.210  14.824  0.00  0.00    +0.000 C 
ATOM     14  C   UNL     1       7.051   5.142  14.491  0.00  0.00    +0.000 C 
ATOM     15  O   UNL     1       7.586   5.228  13.396  0.00  0.00    +0.000 OA
ATOM     16  O   UNL     1       7.459   5.849  15.579  0.00  0.00    +0.000 OA
ATOM     17  C   UNL     1       6.525   5.674  16.648  0.00  0.00    +0.000 C 
BRANCH  17  18
ATOM     18  C   UNL     1       7.310   5.550  17.956  0.00  0.00    +0.000 C 
BRANCH  18  19
ATOM     19  O   UNL     1       7.596   4.190  18.245  0.00  0.00    +0.000 OA
ATOM     20  H   UNL     1       8.550   4.055  18.103  0.00  0.00    +0.000 HD
ENDBRANCH  18  19
ENDBRANCH  17  18
ENDBRANCH  11  12
ENDBRANCH   1  11
TORSDOF 6
ENDMDL
MODEL 6
REMARK VINA RESULT:      -7.2      2.796      5.411
REMARK  Name = 
REMARK  7 active torsions:
REMARK  status: ('A' for Active; 'I' for Inactive)
REMARK    1  A    between atoms: C_1  and  C_2
REMARK    2  A    between atoms: C_2  and  C_3
REMARK    3  A    between atoms: C_6  and  C_7
REMARK    4  A    between atoms: C_7  and  O_9
REMARK    5  A    between atoms: O_9  and  C_10
REMARK    6  A    between atoms: C_15  and  C_16
REMARK    7  A    between atoms: C_16  and  O_17
REMARK                            x       y       z     vdW  Elec       q    Type
REMARK                         _______ _______ _______ _____ _____    ______ ____
ROOT
ATOM      1  C   UNL     1       2.208   3.865  17.448  0.00  0.00    +0.000 C 
ATOM      2  O   UNL     1       1.096   4.361  17.341  0.00  0.00    +0.000 OA
ENDROOT
BRANCH   1   6
ATOM      3  C   UNL     1       6.006   5.797  17.026  0.00  0.00    +0.000 A 
ATOM      4  C   UNL     1       4.967   6.473  17.683  0.00  0.00    +0.000 A 
ATOM      5  C   UNL     1       3.698   5.887  17.800  0.00  0.00    +0.000 A 
ATOM      6  C   UNL     1       3.461   4.625  17.241  0.00  0.00    +0.000 A 
ATOM      7  C   UNL     1       4.467   3.999  16.495  0.00  0.00    +0.000 A 
ATOM      8  C   UNL     1       5.732   4.575  16.399  0.00  0.00    +0.000 A 
BRANCH   3  10
ATOM      9  C   UNL     1       7.475   7.751  17.561  0.00  0.00    +0.000 C 
ATOM     10  C   UNL     1       7.427   6.308  17.064  0.00  0.00    +0.000 C 
ENDBRANCH   3  10
ENDBRANCH   1   6
BRANCH   1  11
ATOM     11  O   UNL     1       2.473   2.540  17.586  0.00  0.00    +0.000 OA
BRANCH  11  12
ATOM     12  C   UNL     1       2.665   1.996  18.914  0.00  0.00    +0.000 C 
ATOM     13  C   UNL     1       4.052   1.437  19.166  0.00  0.00    +0.000 C 
ATOM     14  C   UNL     1       4.384   1.909  20.545  0.00  0.00    +0.000 C 
ATOM     15  O   UNL     1       5.400   1.618  21.158  0.00  0.00    +0.000 OA
ATOM     16  O   UNL     1       3.380   2.658  21.076  0.00  0.00    +0.000 OA
ATOM     17  C   UNL     1       2.427   2.981  20.060  0.00  0.00    +0.000 C 
BRANCH  17  18
ATOM     18  C   UNL     1       1.026   2.884  20.667  0.00  0.00    +0.000 C 
BRANCH  18  19
ATOM     19  O   UNL     1       0.049   2.702  19.653  0.00  0.00    +0.000 OA
ATOM     20  H   UNL     1      -0.824   2.701  20.085  0.00  0.00    +0.000 HD
ENDBRANCH  18  19
ENDBRANCH  17  18
ENDBRANCH  11  12
ENDBRANCH   1  11
TORSDOF 6
ENDMDL
MODEL 7
REMARK VINA RESULT:      -7.1      1.240      2.231
REMARK  Name = 
REMARK  7 active torsions:
REMARK  status: ('A' for Active; 'I' for Inactive)
REMARK    1  A    between atoms: C_1  and  C_2
REMARK    2  A    between atoms: C_2  and  C_3
REMARK    3  A    between atoms: C_6  and  C_7
REMARK    4  A    between atoms: C_7  and  O_9
REMARK    5  A    between atoms: O_9  and  C_10
REMARK    6  A    between atoms: C_15  and  C_16
REMARK    7  A    between atoms: C_16  and  O_17
REMARK                            x       y       z     vdW  Elec       q    Type
REMARK                         _______ _______ _______ _____ _____    ______ ____
ROOT
ATOM      1  C   UNL     1       3.796   6.569  17.354  0.00  0.00    +0.000 C 
ATOM      2  O   UNL     1       3.962   7.765  17.545  0.00  0.00    +0.000 OA
ENDROOT
BRANCH   1   6
ATOM      3  C   UNL     1       1.547   4.066  20.001  0.00  0.00    +0.000 A 
ATOM      4  C   UNL     1       1.626   3.723  18.643  0.00  0.00    +0.000 A 
ATOM      5  C   UNL     1       2.318   4.545  17.740  0.00  0.00    +0.000 A 
ATOM      6  C   UNL     1       2.919   5.726  18.196  0.00  0.00    +0.000 A 
ATOM      7  C   UNL     1       2.747   6.119  19.528  0.00  0.00    +0.000 A 
ATOM      8  C   UNL     1       2.078   5.290  20.426  0.00  0.00    +0.000 A 
BRANCH   3  10
ATOM      9  C   UNL     1       2.114   2.374  21.756  0.00  0.00    +0.000 C 
ATOM     10  C   UNL     1       0.990   3.104  21.025  0.00  0.00    +0.000 C 
ENDBRANCH   3  10
ENDBRANCH   1   6
BRANCH   1  11
ATOM     11  O   UNL     1       4.505   5.801  16.488  0.00  0.00    +0.000 OA
BRANCH  11  12
ATOM     12  C   UNL     1       5.951   5.792  16.577  0.00  0.00    +0.000 C 
ATOM     13  C   UNL     1       6.491   5.957  17.985  0.00  0.00    +0.000 C 
ATOM     14  C   UNL     1       7.614   4.973  18.055  0.00  0.00    +0.000 C 
ATOM     15  O   UNL     1       8.362   4.834  19.011  0.00  0.00    +0.000 OA
ATOM     16  O   UNL     1       7.755   4.284  16.890  0.00  0.00    +0.000 OA
ATOM     17  C   UNL     1       6.627   4.526  16.046  0.00  0.00    +0.000 C 
BRANCH  17  18
ATOM     18  C   UNL     1       7.125   4.659  14.605  0.00  0.00    +0.000 C 
BRANCH  18  19
ATOM     19  O   UNL     1       6.535   3.670  13.775  0.00  0.00    +0.000 OA
ATOM     20  H   UNL     1       6.287   4.101  12.938  0.00  0.00    +0.000 HD
ENDBRANCH  18  19
ENDBRANCH  17  18
ENDBRANCH  11  12
ENDBRANCH   1  11
TORSDOF 6
ENDMDL
MODEL 8
REMARK VINA RESULT:      -7.0      2.625      6.189
REMARK  Name = 
REMARK  7 active torsions:
REMARK  status: ('A' for Active; 'I' for Inactive)
REMARK    1  A    between atoms: C_1  and  C_2
REMARK    2  A    between atoms: C_2  and  C_3
REMARK    3  A    between atoms: C_6  and  C_7
REMARK    4  A    between atoms: C_7  and  O_9
REMARK    5  A    between atoms: O_9  and  C_10
REMARK    6  A    between atoms: C_15  and  C_16
REMARK    7  A    between atoms: C_16  and  O_17
REMARK                            x       y       z     vdW  Elec       q    Type
REMARK                         _______ _______ _______ _____ _____    ______ ____
ROOT
ATOM      1  C   UNL     1       5.479   4.767  18.983  0.00  0.00    +0.000 C 
ATOM      2  O   UNL     1       6.302   5.162  19.797  0.00  0.00    +0.000 OA
ENDROOT
BRANCH   1   6
ATOM      3  C   UNL     1       6.504   4.521  14.834  0.00  0.00    +0.000 A 
ATOM      4  C   UNL     1       5.163   4.362  15.214  0.00  0.00    +0.000 A 
ATOM      5  C   UNL     1       4.799   4.393  16.569  0.00  0.00    +0.000 A 
ATOM      6  C   UNL     1       5.785   4.566  17.549  0.00  0.00    +0.000 A 
ATOM      7  C   UNL     1       7.132   4.617  17.174  0.00  0.00    +0.000 A 
ATOM      8  C   UNL     1       7.488   4.607  15.827  0.00  0.00    +0.000 A 
BRANCH   3  10
ATOM      9  C   UNL     1       6.319   3.578  12.523  0.00  0.00    +0.000 C 
ATOM     10  C   UNL     1       6.897   4.697  13.385  0.00  0.00    +0.000 C 
ENDBRANCH   3  10
ENDBRANCH   1   6
BRANCH   1  11
ATOM     11  O   UNL     1       4.147   4.631  19.209  0.00  0.00    +0.000 OA
BRANCH  11  12
ATOM     12  C   UNL     1       3.653   3.394  19.778  0.00  0.00    +0.000 C 
ATOM     13  C   UNL     1       3.103   3.528  21.185  0.00  0.00    +0.000 C 
ATOM     14  C   UNL     1       1.866   2.689  21.167  0.00  0.00    +0.000 C 
ATOM     15  O   UNL     1       1.153   2.475  22.136  0.00  0.00    +0.000 OA
ATOM     16  O   UNL     1       1.655   2.127  19.946  0.00  0.00    +0.000 OA
ATOM     17  C   UNL     1       2.535   2.715  18.985  0.00  0.00    +0.000 C 
BRANCH  17  18
ATOM     18  C   UNL     1       3.032   1.610  18.051  0.00  0.00    +0.000 C 
BRANCH  18  19
ATOM     19  O   UNL     1       4.171   0.962  18.599  0.00  0.00    +0.000 OA
ATOM     20  H   UNL     1       4.060   0.005  18.456  0.00  0.00    +0.000 HD
ENDBRANCH  18  19
ENDBRANCH  17  18
ENDBRANCH  11  12
ENDBRANCH   1  11
TORSDOF 6
ENDMDL
MODEL 9
REMARK VINA RESULT:      -6.9      1.580      2.232
REMARK  Name = 
REMARK  7 active torsions:
REMARK  status: ('A' for Active; 'I' for Inactive)
REMARK    1  A    between atoms: C_1  and  C_2
REMARK    2  A    between atoms: C_2  and  C_3
REMARK    3  A    between atoms: C_6  and  C_7
REMARK    4  A    between atoms: C_7  and  O_9
REMARK    5  A    between atoms: O_9  and  C_10
REMARK    6  A    between atoms: C_15  and  C_16
REMARK    7  A    between atoms: C_16  and  O_17
REMARK                            x       y       z     vdW  Elec       q    Type
REMARK                         _______ _______ _______ _____ _____    ______ ____
ROOT
ATOM      1  C   UNL     1       4.221   5.148  16.635  0.00  0.00    +0.000 C 
ATOM      2  O   UNL     1       4.670   6.278  16.512  0.00  0.00    +0.000 OA
ENDROOT
BRANCH   1   6
ATOM      3  C   UNL     1       1.647   3.947  19.839  0.00  0.00    +0.000 A 
ATOM      4  C   UNL     1       1.454   3.391  18.566  0.00  0.00    +0.000 A 
ATOM      5  C   UNL     1       2.251   3.795  17.484  0.00  0.00    +0.000 A 
ATOM      6  C   UNL     1       3.234   4.774  17.673  0.00  0.00    +0.000 A 
ATOM      7  C   UNL     1       3.353   5.404  18.918  0.00  0.00    +0.000 A 
ATOM      8  C   UNL     1       2.575   4.984  19.995  0.00  0.00    +0.000 A 
BRANCH   3  10
ATOM      9  C   UNL     1       1.875   2.458  21.837  0.00  0.00    +0.000 C 
ATOM     10  C   UNL     1       0.949   3.388  21.057  0.00  0.00    +0.000 C 
ENDBRANCH   3  10
ENDBRANCH   1   6
BRANCH   1  11
ATOM     11  O   UNL     1       4.672   4.043  15.988  0.00  0.00    +0.000 OA
BRANCH  11  12
ATOM     12  C   UNL     1       6.045   4.008  15.529  0.00  0.00    +0.000 C 
ATOM     13  C   UNL     1       6.211   4.214  14.036  0.00  0.00    +0.000 C 
ATOM     14  C   UNL     1       7.392   5.124  13.929  0.00  0.00    +0.000 C 
ATOM     15  O   UNL     1       7.901   5.487  12.880  0.00  0.00    +0.000 OA
ATOM     16  O   UNL     1       7.885   5.457  15.153  0.00  0.00    +0.000 OA
ATOM     17  C   UNL     1       6.970   5.044  16.171  0.00  0.00    +0.000 C 
BRANCH  17  18
ATOM     18  C   UNL     1       7.778   4.494  17.349  0.00  0.00    +0.000 C 
BRANCH  18  19
ATOM     19  O   UNL     1       6.923   4.138  18.425  0.00  0.00    +0.000 OA
ATOM     20  H   UNL     1       6.078   3.842  18.042  0.00  0.00    +0.000 HD
ENDBRANCH  18  19
ENDBRANCH  17  18
ENDBRANCH  11  12
ENDBRANCH   1  11
TORSDOF 6
ENDMDL
