MODEL 1
REMARK VINA RESULT:      -7.7      0.000      0.000
REMARK  Name = 
REMARK  3 active torsions:
REMARK  status: ('A' for Active; 'I' for Inactive)
REMARK    1  A    between atoms: N_2  and  C_4
REMARK    2  A    between atoms: C_7  and  C_8
REMARK    3  A    between atoms: C_12  and  C_13
REMARK                            x       y       z     vdW  Elec       q    Type
REMARK                         _______ _______ _______ _____ _____    ______ ____
ROOT
ATOM      1  C   UNL     1       2.328   6.841  19.564  0.00  0.00    +0.000 C 
ATOM      2  N   UNL     1       2.985   6.813  18.437  0.00  0.00    +0.000 NA
ATOM      3  C   UNL     1       3.471   5.579  17.943  0.00  0.00    +0.000 A 
ATOM      4  C   UNL     1       4.533   5.606  17.032  0.00  0.00    +0.000 A 
ATOM      5  C   UNL     1       5.021   4.424  16.445  0.00  0.00    +0.000 A 
ATOM      6  C   UNL     1       4.405   3.202  16.761  0.00  0.00    +0.000 A 
ATOM      7  C   UNL     1       3.343   3.157  17.662  0.00  0.00    +0.000 A 
ATOM      8  C   UNL     1       2.890   4.333  18.263  0.00  0.00    +0.000 A 
ATOM      9  S   UNL     1       1.616   4.228  19.510  0.00  0.00    +0.000 S 
ATOM     10  C   UNL     1       2.227   5.627  20.478  0.00  0.00    +0.000 C 
ENDROOT
BRANCH   1  14
ATOM     11  C   UNL     1       0.340  10.470  20.742  0.00  0.00    +0.000 A 
ATOM     12  C   UNL     1       0.568   9.468  21.691  0.00  0.00    +0.000 A 
ATOM     13  C   UNL     1       1.223   8.292  21.313  0.00  0.00    +0.000 A 
ATOM     14  C   UNL     1       1.669   8.115  19.994  0.00  0.00    +0.000 A 
ATOM     15  C   UNL     1       1.429   9.123  19.050  0.00  0.00    +0.000 A 
ATOM     16  C   UNL     1       0.769  10.302  19.419  0.00  0.00    +0.000 A 
BRANCH  11  18
ATOM     17  O   UNL     1       0.102  12.359  22.068  0.00  0.00    +0.000 OA
ATOM     18  N   UNL     1      -0.370  11.693  21.136  0.00  0.00    +0.000 N 
ATOM     19  O   UNL     1      -1.399  11.989  20.513  0.00  0.00    +0.000 OA
ENDBRANCH  11  18
ENDBRANCH   1  14
BRANCH   5  20
ATOM     20  C   UNL     1       6.187   4.445  15.489  0.00  0.00    +0.000 C 
ATOM     21  F   UNL     1       6.216   3.388  14.632  0.00  0.00    +0.000 F 
ATOM     22  F   UNL     1       6.188   5.560  14.705  0.00  0.00    +0.000 F 
ATOM     23  F   UNL     1       7.387   4.441  16.132  0.00  0.00    +0.000 F 
ENDBRANCH   5  20
TORSDOF 3
ENDMDL
MODEL 2
REMARK VINA RESULT:      -7.7      0.093      1.031
REMARK  Name = 
REMARK  3 active torsions:
REMARK  status: ('A' for Active; 'I' for Inactive)
REMARK    1  A    between atoms: N_2  and  C_4
REMARK    2  A    between atoms: C_7  and  C_8
REMARK    3  A    between atoms: C_12  and  C_13
REMARK                            x       y       z     vdW  Elec       q    Type
REMARK                         _______ _______ _______ _____ _____    ______ ____
ROOT
ATOM      1  C   UNL     1       2.299   6.864  19.602  0.00  0.00    +0.000 C 
ATOM      2  N   UNL     1       2.956   6.844  18.475  0.00  0.00    +0.000 NA
ATOM      3  C   UNL     1       3.438   5.612  17.969  0.00  0.00    +0.000 A 
ATOM      4  C   UNL     1       4.500   5.644  17.058  0.00  0.00    +0.000 A 
ATOM      5  C   UNL     1       4.982   4.465  16.461  0.00  0.00    +0.000 A 
ATOM      6  C   UNL     1       4.362   3.243  16.765  0.00  0.00    +0.000 A 
ATOM      7  C   UNL     1       3.300   3.194  17.666  0.00  0.00    +0.000 A 
ATOM      8  C   UNL     1       2.852   4.366  18.279  0.00  0.00    +0.000 A 
ATOM      9  S   UNL     1       1.577   4.254  19.524  0.00  0.00    +0.000 S 
ATOM     10  C   UNL     1       2.194   5.642  20.505  0.00  0.00    +0.000 C 
ENDROOT
BRANCH   1  14
ATOM     11  C   UNL     1       0.324  10.488  20.817  0.00  0.00    +0.000 A 
ATOM     12  C   UNL     1       0.575   9.488  21.763  0.00  0.00    +0.000 A 
ATOM     13  C   UNL     1       1.227   8.314  21.373  0.00  0.00    +0.000 A 
ATOM     14  C   UNL     1       1.646   8.136  20.045  0.00  0.00    +0.000 A 
ATOM     15  C   UNL     1       1.383   9.142  19.104  0.00  0.00    +0.000 A 
ATOM     16  C   UNL     1       0.726  10.320  19.485  0.00  0.00    +0.000 A 
BRANCH  11  18
ATOM     17  O   UNL     1      -1.503  11.916  20.741  0.00  0.00    +0.000 OA
ATOM     18  N   UNL     1      -0.382  11.709  21.224  0.00  0.00    +0.000 N 
ATOM     19  O   UNL     1       0.185  12.461  22.030  0.00  0.00    +0.000 OA
ENDBRANCH  11  18
ENDBRANCH   1  14
BRANCH   5  20
ATOM     20  C   UNL     1       6.149   4.492  15.505  0.00  0.00    +0.000 C 
ATOM     21  F   UNL     1       7.362   4.570  16.117  0.00  0.00    +0.000 F 
ATOM     22  F   UNL     1       6.198   3.376  14.723  0.00  0.00    +0.000 F 
ATOM     23  F   UNL     1       6.092   5.546  14.645  0.00  0.00    +0.000 F 
ENDBRANCH   5  20
TORSDOF 3
ENDMDL
MODEL 3
REMARK VINA RESULT:      -7.7      0.720      1.318
REMARK  Name = 
REMARK  3 active torsions:
REMARK  status: ('A' for Active; 'I' for Inactive)
REMARK    1  A    between atoms: N_2  and  C_4
REMARK    2  A    between atoms: C_7  and  C_8
REMARK    3  A    between atoms: C_12  and  C_13
REMARK                            x       y       z     vdW  Elec       q    Type
REMARK                         _______ _______ _______ _____ _____    ______ ____
ROOT
ATOM      1  C   UNL     1       2.233   6.918  19.726  0.00  0.00    +0.000 C 
ATOM      2  N   UNL     1       3.048   7.073  18.719  0.00  0.00    +0.000 NA
ATOM      3  C   UNL     1       3.642   5.935  18.121  0.00  0.00    +0.000 A 
ATOM      4  C   UNL     1       4.824   6.115  17.394  0.00  0.00    +0.000 A 
ATOM      5  C   UNL     1       5.431   5.043  16.713  0.00  0.00    +0.000 A 
ATOM      6  C   UNL     1       4.816   3.781  16.743  0.00  0.00    +0.000 A 
ATOM      7  C   UNL     1       3.636   3.586  17.458  0.00  0.00    +0.000 A 
ATOM      8  C   UNL     1       3.062   4.649  18.157  0.00  0.00    +0.000 A 
ATOM      9  S   UNL     1       1.623   4.338  19.169  0.00  0.00    +0.000 S 
ATOM     10  C   UNL     1       2.040   5.576  20.419  0.00  0.00    +0.000 C 
ENDROOT
BRANCH   1  14
ATOM     11  C   UNL     1       0.154  10.352  21.274  0.00  0.00    +0.000 A 
ATOM     12  C   UNL     1       0.570  10.341  19.939  0.00  0.00    +0.000 A 
ATOM     13  C   UNL     1       1.237   9.222  19.430  0.00  0.00    +0.000 A 
ATOM     14  C   UNL     1       1.477   8.103  20.243  0.00  0.00    +0.000 A 
ATOM     15  C   UNL     1       1.062   8.128  21.582  0.00  0.00    +0.000 A 
ATOM     16  C   UNL     1       0.398   9.248  22.101  0.00  0.00    +0.000 A 
BRANCH  11  18
ATOM     17  O   UNL     1      -0.510  11.704  23.039  0.00  0.00    +0.000 OA
ATOM     18  N   UNL     1      -0.523  11.538  21.812  0.00  0.00    +0.000 N 
ATOM     19  O   UNL     1      -1.068  12.306  21.006  0.00  0.00    +0.000 OA
ENDBRANCH  11  18
ENDBRANCH   1  14
BRANCH   5  20
ATOM     20  C   UNL     1       6.723   5.225  15.956  0.00  0.00    +0.000 C 
ATOM     21  F   UNL     1       6.560   5.354  14.611  0.00  0.00    +0.000 F 
ATOM     22  F   UNL     1       7.402   6.336  16.358  0.00  0.00    +0.000 F 
ATOM     23  F   UNL     1       7.580   4.181  16.132  0.00  0.00    +0.000 F 
ENDBRANCH   5  20
TORSDOF 3
ENDMDL
MODEL 4
REMARK VINA RESULT:      -7.7      0.129      1.433
REMARK  Name = 
REMARK  3 active torsions:
REMARK  status: ('A' for Active; 'I' for Inactive)
REMARK    1  A    between atoms: N_2  and  C_4
REMARK    2  A    between atoms: C_7  and  C_8
REMARK    3  A    between atoms: C_12  and  C_13
REMARK                            x       y       z     vdW  Elec       q    Type
REMARK                         _______ _______ _______ _____ _____    ______ ____
ROOT
ATOM      1  C   UNL     1       2.286   6.865  19.515  0.00  0.00    +0.000 C 
ATOM      2  N   UNL     1       2.925   6.824  18.378  0.00  0.00    +0.000 NA
ATOM      3  C   UNL     1       3.444   5.590  17.914  0.00  0.00    +0.000 A 
ATOM      4  C   UNL     1       4.489   5.623  16.984  0.00  0.00    +0.000 A 
ATOM      5  C   UNL     1       5.005   4.439  16.426  0.00  0.00    +0.000 A 
ATOM      6  C   UNL     1       4.435   3.209  16.791  0.00  0.00    +0.000 A 
ATOM      7  C   UNL     1       3.391   3.158  17.712  0.00  0.00    +0.000 A 
ATOM      8  C   UNL     1       2.909   4.337  18.284  0.00  0.00    +0.000 A 
ATOM      9  S   UNL     1       1.660   4.230  19.556  0.00  0.00    +0.000 S 
ATOM     10  C   UNL     1       2.241   5.679  20.468  0.00  0.00    +0.000 C 
ENDROOT
BRANCH   1  14
ATOM     11  C   UNL     1       0.392  10.534  20.728  0.00  0.00    +0.000 A 
ATOM     12  C   UNL     1       0.766  10.358  19.391  0.00  0.00    +0.000 A 
ATOM     13  C   UNL     1       1.372   9.163  18.992  0.00  0.00    +0.000 A 
ATOM     14  C   UNL     1       1.594   8.131  19.917  0.00  0.00    +0.000 A 
ATOM     15  C   UNL     1       1.221   8.320  21.256  0.00  0.00    +0.000 A 
ATOM     16  C   UNL     1       0.619   9.517  21.665  0.00  0.00    +0.000 A 
BRANCH  11  18
ATOM     17  O   UNL     1      -1.372  12.039  20.760  0.00  0.00    +0.000 OA
ATOM     18  N   UNL     1      -0.221  11.799  21.149  0.00  0.00    +0.000 N 
ATOM     19  O   UNL     1       0.448  12.552  21.871  0.00  0.00    +0.000 OA
ENDBRANCH  11  18
ENDBRANCH   1  14
BRANCH   5  20
ATOM     20  C   UNL     1       6.153   4.468  15.449  0.00  0.00    +0.000 C 
ATOM     21  F   UNL     1       6.155   5.557  14.633  0.00  0.00    +0.000 F 
ATOM     22  F   UNL     1       7.363   4.471  16.077  0.00  0.00    +0.000 F 
ATOM     23  F   UNL     1       6.164   3.382  14.627  0.00  0.00    +0.000 F 
ENDBRANCH   5  20
TORSDOF 3
ENDMDL
MODEL 5
REMARK VINA RESULT:      -7.4      5.725      8.193
REMARK  Name = 
REMARK  3 active torsions:
REMARK  status: ('A' for Active; 'I' for Inactive)
REMARK    1  A    between atoms: N_2  and  C_4
REMARK    2  A    between atoms: C_7  and  C_8
REMARK    3  A    between atoms: C_12  and  C_13
REMARK                            x       y       z     vdW  Elec       q    Type
REMARK                         _______ _______ _______ _____ _____    ______ ____
ROOT
ATOM      1  C   UNL     1       2.573   7.290  18.786  0.00  0.00    +0.000 C 
ATOM      2  N   UNL     1       2.113   8.378  18.231  0.00  0.00    +0.000 NA
ATOM      3  C   UNL     1       1.095   9.117  18.881  0.00  0.00    +0.000 A 
ATOM      4  C   UNL     1       0.302   9.970  18.106  0.00  0.00    +0.000 A 
ATOM      5  C   UNL     1      -0.679  10.788  18.695  0.00  0.00    +0.000 A 
ATOM      6  C   UNL     1      -0.839  10.765  20.090  0.00  0.00    +0.000 A 
ATOM      7  C   UNL     1      -0.054   9.925  20.878  0.00  0.00    +0.000 A 
ATOM      8  C   UNL     1       0.894   9.093  20.278  0.00  0.00    +0.000 A 
ATOM      9  S   UNL     1       1.792   7.935  21.299  0.00  0.00    +0.000 S 
ATOM     10  C   UNL     1       1.927   6.668  20.016  0.00  0.00    +0.000 C 
ENDROOT
BRANCH   1  14
ATOM     11  C   UNL     1       6.054   5.428  17.076  0.00  0.00    +0.000 A 
ATOM     12  C   UNL     1       5.562   4.975  18.305  0.00  0.00    +0.000 A 
ATOM     13  C   UNL     1       4.425   5.572  18.858  0.00  0.00    +0.000 A 
ATOM     14  C   UNL     1       3.762   6.609  18.183  0.00  0.00    +0.000 A 
ATOM     15  C   UNL     1       4.268   7.059  16.955  0.00  0.00    +0.000 A 
ATOM     16  C   UNL     1       5.410   6.470  16.397  0.00  0.00    +0.000 A 
BRANCH  11  18
ATOM     17  O   UNL     1       7.421   4.879  15.283  0.00  0.00    +0.000 OA
ATOM     18  N   UNL     1       7.263   4.816  16.510  0.00  0.00    +0.000 N 
ATOM     19  O   UNL     1       8.054   4.272  17.293  0.00  0.00    +0.000 OA
ENDBRANCH  11  18
ENDBRANCH   1  14
BRANCH   5  20
ATOM     20  C   UNL     1      -1.558  11.684  17.859  0.00  0.00    +0.000 C 
ATOM     21  F   UNL     1      -1.925  11.140  16.667  0.00  0.00    +0.000 F 
ATOM     22  F   UNL     1      -2.720  12.004  18.496  0.00  0.00    +0.000 F 
ATOM     23  F   UNL     1      -0.959  12.871  17.562  0.00  0.00    +0.000 F 
ENDBRANCH   5  20
TORSDOF 3
ENDMDL
MODEL 6
REMARK VINA RESULT:      -7.4      5.715      8.185
REMARK  Name = 
REMARK  3 active torsions:
REMARK  status: ('A' for Active; 'I' for Inactive)
REMARK    1  A    between atoms: N_2  and  C_4
REMARK    2  A    between atoms: C_7  and  C_8
REMARK    3  A    between atoms: C_12  and  C_13
REMARK                            x       y       z     vdW  Elec       q    Type
REMARK                         _______ _______ _______ _____ _____    ______ ____
ROOT
ATOM      1  C   UNL     1       2.583   7.262  18.798  0.00  0.00    +0.000 C 
ATOM      2  N   UNL     1       2.131   8.356  18.249  0.00  0.00    +0.000 NA
ATOM      3  C   UNL     1       1.113   9.094  18.900  0.00  0.00    +0.000 A 
ATOM      4  C   UNL     1       0.328   9.958  18.127  0.00  0.00    +0.000 A 
ATOM      5  C   UNL     1      -0.653  10.774  18.717  0.00  0.00    +0.000 A 
ATOM      6  C   UNL     1      -0.822  10.740  20.110  0.00  0.00    +0.000 A 
ATOM      7  C   UNL     1      -0.046   9.889  20.896  0.00  0.00    +0.000 A 
ATOM      8  C   UNL     1       0.902   9.059  20.295  0.00  0.00    +0.000 A 
ATOM      9  S   UNL     1       1.789   7.888  21.311  0.00  0.00    +0.000 S 
ATOM     10  C   UNL     1       1.927   6.631  20.018  0.00  0.00    +0.000 C 
ENDROOT
BRANCH   1  14
ATOM     11  C   UNL     1       6.068   5.400  17.095  0.00  0.00    +0.000 A 
ATOM     12  C   UNL     1       5.563   4.935  18.314  0.00  0.00    +0.000 A 
ATOM     13  C   UNL     1       4.424   5.532  18.864  0.00  0.00    +0.000 A 
ATOM     14  C   UNL     1       3.773   6.581  18.197  0.00  0.00    +0.000 A 
ATOM     15  C   UNL     1       4.292   7.043  16.979  0.00  0.00    +0.000 A 
ATOM     16  C   UNL     1       5.436   6.454  16.423  0.00  0.00    +0.000 A 
BRANCH  11  18
ATOM     17  O   UNL     1       8.061   4.233  17.313  0.00  0.00    +0.000 OA
ATOM     18  N   UNL     1       7.277   4.788  16.531  0.00  0.00    +0.000 N 
ATOM     19  O   UNL     1       7.443   4.860  15.305  0.00  0.00    +0.000 OA
ENDBRANCH  11  18
ENDBRANCH   1  14
BRANCH   5  20
ATOM     20  C   UNL     1      -1.524  11.682  17.883  0.00  0.00    +0.000 C 
ATOM     21  F   UNL     1      -0.925  12.854  17.537  0.00  0.00    +0.000 F 
ATOM     22  F   UNL     1      -1.903  11.097  16.712  0.00  0.00    +0.000 F 
ATOM     23  F   UNL     1      -2.679  12.023  18.520  0.00  0.00    +0.000 F 
ENDBRANCH   5  20
TORSDOF 3
ENDMDL
MODEL 7
REMARK VINA RESULT:      -7.3      2.470      3.124
REMARK  Name = 
REMARK  3 active torsions:
REMARK  status: ('A' for Active; 'I' for Inactive)
REMARK    1  A    between atoms: N_2  and  C_4
REMARK    2  A    between atoms: C_7  and  C_8
REMARK    3  A    between atoms: C_12  and  C_13
REMARK                            x       y       z     vdW  Elec       q    Type
REMARK                         _______ _______ _______ _____ _____    ______ ____
ROOT
ATOM      1  C   UNL     1       1.886   7.769  19.318  0.00  0.00    +0.000 C 
ATOM      2  N   UNL     1       2.208   6.592  19.780  0.00  0.00    +0.000 NA
ATOM      3  C   UNL     1       2.966   5.710  18.972  0.00  0.00    +0.000 A 
ATOM      4  C   UNL     1       2.906   4.341  19.255  0.00  0.00    +0.000 A 
ATOM      5  C   UNL     1       3.687   3.414  18.541  0.00  0.00    +0.000 A 
ATOM      6  C   UNL     1       4.564   3.882  17.549  0.00  0.00    +0.000 A 
ATOM      7  C   UNL     1       4.640   5.243  17.258  0.00  0.00    +0.000 A 
ATOM      8  C   UNL     1       3.835   6.149  17.950  0.00  0.00    +0.000 A 
ATOM      9  S   UNL     1       3.859   7.868  17.465  0.00  0.00    +0.000 S 
ATOM     10  C   UNL     1       2.123   8.170  17.869  0.00  0.00    +0.000 C 
ENDROOT
BRANCH   1  14
ATOM     11  C   UNL     1      -0.086  10.591  21.900  0.00  0.00    +0.000 A 
ATOM     12  C   UNL     1       0.389   9.385  22.429  0.00  0.00    +0.000 A 
ATOM     13  C   UNL     1       1.039   8.471  21.594  0.00  0.00    +0.000 A 
ATOM     14  C   UNL     1       1.236   8.760  20.234  0.00  0.00    +0.000 A 
ATOM     15  C   UNL     1       0.750   9.968  19.714  0.00  0.00    +0.000 A 
ATOM     16  C   UNL     1       0.092  10.887  20.543  0.00  0.00    +0.000 A 
BRANCH  11  18
ATOM     17  O   UNL     1      -1.797  11.132  23.371  0.00  0.00    +0.000 OA
ATOM     18  N   UNL     1      -0.790  11.537  22.774  0.00  0.00    +0.000 N 
ATOM     19  O   UNL     1      -0.335  12.686  22.865  0.00  0.00    +0.000 OA
ENDBRANCH  11  18
ENDBRANCH   1  14
BRANCH   5  20
ATOM     20  C   UNL     1       3.601   1.935  18.821  0.00  0.00    +0.000 C 
ATOM     21  F   UNL     1       3.840   1.153  17.733  0.00  0.00    +0.000 F 
ATOM     22  F   UNL     1       4.495   1.537  19.769  0.00  0.00    +0.000 F 
ATOM     23  F   UNL     1       2.375   1.564  19.288  0.00  0.00    +0.000 F 
ENDBRANCH   5  20
TORSDOF 3
ENDMDL
MODEL 8
REMARK VINA RESULT:      -7.2      2.502      3.104
REMARK  Name = 
REMARK  3 active torsions:
REMARK  status: ('A' for Active; 'I' for Inactive)
REMARK    1  A    between atoms: N_2  and  C_4
REMARK    2  A    between atoms: C_7  and  C_8
REMARK    3  A    between atoms: C_12  and  C_13
REMARK                            x       y       z     vdW  Elec       q    Type
REMARK                         _______ _______ _______ _____ _____    ______ ____
ROOT
ATOM      1  C   UNL     1       1.790   7.866  19.385  0.00  0.00    +0.000 C 
ATOM      2  N   UNL     1       2.133   6.699  19.858  0.00  0.00    +0.000 NA
ATOM      3  C   UNL     1       2.890   5.815  19.051  0.00  0.00    +0.000 A 
ATOM      4  C   UNL     1       2.851   4.449  19.354  0.00  0.00    +0.000 A 
ATOM      5  C   UNL     1       3.633   3.522  18.642  0.00  0.00    +0.000 A 
ATOM      6  C   UNL     1       4.488   3.987  17.630  0.00  0.00    +0.000 A 
ATOM      7  C   UNL     1       4.543   5.344  17.318  0.00  0.00    +0.000 A 
ATOM      8  C   UNL     1       3.738   6.250  18.010  0.00  0.00    +0.000 A 
ATOM      9  S   UNL     1       3.734   7.962  17.501  0.00  0.00    +0.000 S 
ATOM     10  C   UNL     1       2.000   8.248  17.926  0.00  0.00    +0.000 C 
ENDROOT
BRANCH   1  14
ATOM     11  C   UNL     1      -0.176  10.704  21.953  0.00  0.00    +0.000 A 
ATOM     12  C   UNL     1       0.256   9.481  22.478  0.00  0.00    +0.000 A 
ATOM     13  C   UNL     1       0.905   8.562  21.648  0.00  0.00    +0.000 A 
ATOM     14  C   UNL     1       1.142   8.861  20.297  0.00  0.00    +0.000 A 
ATOM     15  C   UNL     1       0.698  10.087  19.780  0.00  0.00    +0.000 A 
ATOM     16  C   UNL     1       0.042  11.012  20.604  0.00  0.00    +0.000 A 
BRANCH  11  18
ATOM     17  O   UNL     1      -0.386  12.786  22.956  0.00  0.00    +0.000 OA
ATOM     18  N   UNL     1      -0.878  11.657  22.821  0.00  0.00    +0.000 N 
ATOM     19  O   UNL     1      -1.924  11.278  23.366  0.00  0.00    +0.000 OA
ENDBRANCH  11  18
ENDBRANCH   1  14
BRANCH   5  20
ATOM     20  C   UNL     1       3.569   2.046  18.943  0.00  0.00    +0.000 C 
ATOM     21  F   UNL     1       2.363   1.634  19.423  0.00  0.00    +0.000 F 
ATOM     22  F   UNL     1       3.810   1.284  17.839  0.00  0.00    +0.000 F 
ATOM     23  F   UNL     1       4.492   1.663  19.868  0.00  0.00    +0.000 F 
ENDBRANCH   5  20
TORSDOF 3
ENDMDL
MODEL 9
REMARK VINA RESULT:      -7.2      1.149      1.619
REMARK  Name = 
REMARK  3 active torsions:
REMARK  status: ('A' for Active; 'I' for Inactive)
REMARK    1  A    between atoms: N_2  and  C_4
REMARK    2  A    between atoms: C_7  and  C_8
REMARK    3  A    between atoms: C_12  and  C_13
REMARK                            x       y       z     vdW  Elec       q    Type
REMARK                         _______ _______ _______ _____ _____    ______ ____
ROOT
ATOM      1  C   UNL     1       1.779   7.265  20.242  0.00  0.00    +0.000 C 
ATOM      2  N   UNL     1       2.346   7.386  19.073  0.00  0.00    +0.000 NA
ATOM      3  C   UNL     1       2.921   6.248  18.456  0.00  0.00    +0.000 A 
ATOM      4  C   UNL     1       3.901   6.453  17.478  0.00  0.00    +0.000 A 
ATOM      5  C   UNL     1       4.463   5.373  16.773  0.00  0.00    +0.000 A 
ATOM      6  C   UNL     1       4.005   4.073  17.038  0.00  0.00    +0.000 A 
ATOM      7  C   UNL     1       3.026   3.851  18.005  0.00  0.00    +0.000 A 
ATOM      8  C   UNL     1       2.500   4.927  18.722  0.00  0.00    +0.000 A 
ATOM      9  S   UNL     1       1.343   4.599  20.043  0.00  0.00    +0.000 S 
ATOM     10  C   UNL     1       1.877   5.990  21.068  0.00  0.00    +0.000 C 
ENDROOT
BRANCH   1  14
ATOM     11  C   UNL     1      -0.300  10.621  21.953  0.00  0.00    +0.000 A 
ATOM     12  C   UNL     1       0.266  10.736  20.679  0.00  0.00    +0.000 A 
ATOM     13  C   UNL     1       0.932   9.643  20.116  0.00  0.00    +0.000 A 
ATOM     14  C   UNL     1       1.025   8.427  20.811  0.00  0.00    +0.000 A 
ATOM     15  C   UNL     1       0.460   8.326  22.090  0.00  0.00    +0.000 A 
ATOM     16  C   UNL     1      -0.205   9.417  22.664  0.00  0.00    +0.000 A 
BRANCH  11  18
ATOM     17  O   UNL     1      -0.487  12.898  22.359  0.00  0.00    +0.000 OA
ATOM     18  N   UNL     1      -0.978  11.777  22.552  0.00  0.00    +0.000 N 
ATOM     19  O   UNL     1      -2.004  11.565  23.214  0.00  0.00    +0.000 OA
ENDBRANCH  11  18
ENDBRANCH   1  14
BRANCH   5  20
ATOM     20  C   UNL     1       5.543   5.587  15.742  0.00  0.00    +0.000 C 
ATOM     21  F   UNL     1       5.727   4.527  14.908  0.00  0.00    +0.000 F 
ATOM     22  F   UNL     1       5.281   6.654  14.936  0.00  0.00    +0.000 F 
ATOM     23  F   UNL     1       6.758   5.836  16.306  0.00  0.00    +0.000 F 
ENDBRANCH   5  20
TORSDOF 3
ENDMDL
