MODEL 1
REMARK VINA RESULT:      -9.3      0.000      0.000
REMARK  Name = 
REMARK  5 active torsions:
REMARK  status: ('A' for Active; 'I' for Inactive)
REMARK    1  A    between atoms: C_2  and  O_3
REMARK    2  A    between atoms: C_2  and  C_4
REMARK    3  A    between atoms: C_8  and  N_9
REMARK    4  A    between atoms: C_16  and  S_17
REMARK    5  A    between atoms: S_17  and  C_18
REMARK                            x       y       z     vdW  Elec       q    Type
REMARK                         _______ _______ _______ _____ _____    ______ ____
ROOT
ATOM      1  N   UNL     1       4.070   4.249  19.419  0.00  0.00    +0.000 N 
ATOM      2  C   UNL     1       4.035   3.015  20.067  0.00  0.00    +0.000 C 
ATOM      3  O   UNL     1       4.866   2.122  19.896  0.00  0.00    +0.000 OA
ATOM      4  N   UNL     1       2.973   2.776  20.883  0.00  0.00    +0.000 N 
ATOM      5  C   UNL     1       2.200   3.811  21.511  0.00  0.00    +0.000 C 
ATOM      6  C   UNL     1       2.234   5.121  20.778  0.00  0.00    +0.000 A 
ATOM      7  N   UNL     1       1.362   6.082  21.215  0.00  0.00    +0.000 NA
ATOM      8  C   UNL     1       1.377   7.273  20.581  0.00  0.00    +0.000 A 
ATOM      9  C   UNL     1       2.209   7.524  19.504  0.00  0.00    +0.000 A 
ATOM     10  C   UNL     1       3.085   6.528  19.068  0.00  0.00    +0.000 A 
ATOM     11  C   UNL     1       3.143   5.298  19.733  0.00  0.00    +0.000 A 
ATOM     12  H   UNL     1       2.962   1.847  21.280  0.00  0.00    +0.000 HD
ENDROOT
BRANCH   1  17
ATOM     13  C   UNL     1       6.299   4.462  15.791  0.00  0.00    +0.000 A 
ATOM     14  C   UNL     1       5.035   3.871  15.816  0.00  0.00    +0.000 A 
ATOM     15  C   UNL     1       4.310   3.812  17.008  0.00  0.00    +0.000 A 
ATOM     16 CL   UNL     1       2.702   3.170  16.892  0.00  0.00    +0.000 Cl
ATOM     17  C   UNL     1       4.841   4.328  18.213  0.00  0.00    +0.000 A 
ATOM     18  C   UNL     1       6.141   4.872  18.178  0.00  0.00    +0.000 A 
ATOM     19 CL   UNL     1       6.947   5.422  19.607  0.00  0.00    +0.000 Cl
ATOM     20  C   UNL     1       6.854   4.966  16.970  0.00  0.00    +0.000 A 
BRANCH  13  22
ATOM     21  O   UNL     1       7.761   5.486  14.240  0.00  0.00    +0.000 OA
ATOM     22  C   UNL     1       6.959   4.604  14.470  0.00  0.00    +0.000 C 
BRANCH  22  23
ATOM     23  O   UNL     1       6.583   3.688  13.558  0.00  0.00    +0.000 OA
ATOM     24  H   UNL     1       6.192   4.040  12.736  0.00  0.00    +0.000 HD
ENDBRANCH  22  23
ENDBRANCH  13  22
ENDBRANCH   1  17
BRANCH   8  25
ATOM     25  S   UNL     1       0.352   8.575  21.243  0.00  0.00    +0.000 S 
BRANCH  25  26
ATOM     26  C   UNL     1       0.866   9.967  20.256  0.00  0.00    +0.000 A 
ATOM     27  C   UNL     1       1.012   9.836  18.870  0.00  0.00    +0.000 A 
ATOM     28  C   UNL     1       1.396  10.931  18.094  0.00  0.00    +0.000 A 
ATOM     29  C   UNL     1       1.627  12.158  18.706  0.00  0.00    +0.000 A 
ATOM     30  F   UNL     1       2.003  13.206  17.962  0.00  0.00    +0.000 F 
ATOM     31  C   UNL     1       1.469  12.313  20.078  0.00  0.00    +0.000 A 
ATOM     32  C   UNL     1       1.080  11.216  20.856  0.00  0.00    +0.000 A 
ENDBRANCH  25  26
ENDBRANCH   8  25
TORSDOF 5
ENDMDL
MODEL 2
REMARK VINA RESULT:      -9.0      0.194      1.687
REMARK  Name = 
REMARK  5 active torsions:
REMARK  status: ('A' for Active; 'I' for Inactive)
REMARK    1  A    between atoms: C_2  and  O_3
REMARK    2  A    between atoms: C_2  and  C_4
REMARK    3  A    between atoms: C_8  and  N_9
REMARK    4  A    between atoms: C_16  and  S_17
REMARK    5  A    between atoms: S_17  and  C_18
REMARK                            x       y       z     vdW  Elec       q    Type
REMARK                         _______ _______ _______ _____ _____    ______ ____
ROOT
ATOM      1  N   UNL     1       4.000   4.285  19.362  0.00  0.00    +0.000 N 
ATOM      2  C   UNL     1       4.008   3.045  20.001  0.00  0.00    +0.000 C 
ATOM      3  O   UNL     1       4.834   2.159  19.777  0.00  0.00    +0.000 OA
ATOM      4  N   UNL     1       2.995   2.794  20.872  0.00  0.00    +0.000 N 
ATOM      5  C   UNL     1       2.251   3.818  21.550  0.00  0.00    +0.000 C 
ATOM      6  C   UNL     1       2.237   5.134  20.828  0.00  0.00    +0.000 A 
ATOM      7  N   UNL     1       1.384   6.086  21.320  0.00  0.00    +0.000 NA
ATOM      8  C   UNL     1       1.357   7.282  20.696  0.00  0.00    +0.000 A 
ATOM      9  C   UNL     1       2.127   7.548  19.577  0.00  0.00    +0.000 A 
ATOM     10  C   UNL     1       2.984   6.561  19.085  0.00  0.00    +0.000 A 
ATOM     11  C   UNL     1       3.086   5.326  19.736  0.00  0.00    +0.000 A 
ATOM     12  H   UNL     1       3.011   1.861  21.261  0.00  0.00    +0.000 HD
ENDROOT
BRANCH   1  17
ATOM     13  C   UNL     1       6.159   4.586  15.698  0.00  0.00    +0.000 A 
ATOM     14  C   UNL     1       6.699   5.080  16.885  0.00  0.00    +0.000 A 
ATOM     15  C   UNL     1       5.987   4.971  18.081  0.00  0.00    +0.000 A 
ATOM     16 CL   UNL     1       6.811   5.506  19.511  0.00  0.00    +0.000 Cl
ATOM     17  C   UNL     1       4.703   4.379  18.116  0.00  0.00    +0.000 A 
ATOM     18  C   UNL     1       4.151   3.934  16.898  0.00  0.00    +0.000 A 
ATOM     19 CL   UNL     1       2.543   3.305  16.792  0.00  0.00    +0.000 Cl
ATOM     20  C   UNL     1       4.885   4.009  15.701  0.00  0.00    +0.000 A 
BRANCH  13  22
ATOM     21  O   UNL     1       7.892   5.452  14.342  0.00  0.00    +0.000 OA
ATOM     22  C   UNL     1       7.019   4.620  14.490  0.00  0.00    +0.000 C 
BRANCH  22  23
ATOM     23  O   UNL     1       6.740   3.669  13.580  0.00  0.00    +0.000 OA
ATOM     24  H   UNL     1       7.067   2.773  13.786  0.00  0.00    +0.000 HD
ENDBRANCH  22  23
ENDBRANCH  13  22
ENDBRANCH   1  17
BRANCH   8  25
ATOM     25  S   UNL     1       0.362   8.573  21.424  0.00  0.00    +0.000 S 
BRANCH  25  26
ATOM     26  C   UNL     1       0.759   9.959  20.377  0.00  0.00    +0.000 A 
ATOM     27  C   UNL     1       0.678   9.840  18.985  0.00  0.00    +0.000 A 
ATOM     28  C   UNL     1       0.970  10.932  18.165  0.00  0.00    +0.000 A 
ATOM     29  C   UNL     1       1.336  12.143  18.741  0.00  0.00    +0.000 A 
ATOM     30  F   UNL     1       1.624  13.188  17.954  0.00  0.00    +0.000 F 
ATOM     31  C   UNL     1       1.403  12.287  20.122  0.00  0.00    +0.000 A 
ATOM     32  C   UNL     1       1.106  11.194  20.944  0.00  0.00    +0.000 A 
ENDBRANCH  25  26
ENDBRANCH   8  25
TORSDOF 5
ENDMDL
MODEL 3
REMARK VINA RESULT:      -8.9      0.224      1.080
REMARK  Name = 
REMARK  5 active torsions:
REMARK  status: ('A' for Active; 'I' for Inactive)
REMARK    1  A    between atoms: C_2  and  O_3
REMARK    2  A    between atoms: C_2  and  C_4
REMARK    3  A    between atoms: C_8  and  N_9
REMARK    4  A    between atoms: C_16  and  S_17
REMARK    5  A    between atoms: S_17  and  C_18
REMARK                            x       y       z     vdW  Elec       q    Type
REMARK                         _______ _______ _______ _____ _____    ______ ____
ROOT
ATOM      1  N   UNL     1       3.997   4.401  19.444  0.00  0.00    +0.000 N 
ATOM      2  C   UNL     1       3.975   3.196  20.144  0.00  0.00    +0.000 C 
ATOM      3  O   UNL     1       4.812   2.302  20.007  0.00  0.00    +0.000 OA
ATOM      4  N   UNL     1       2.919   2.985  20.975  0.00  0.00    +0.000 N 
ATOM      5  C   UNL     1       2.142   4.040  21.563  0.00  0.00    +0.000 C 
ATOM      6  C   UNL     1       2.163   5.317  20.775  0.00  0.00    +0.000 A 
ATOM      7  N   UNL     1       1.286   6.290  21.176  0.00  0.00    +0.000 NA
ATOM      8  C   UNL     1       1.288   7.453  20.492  0.00  0.00    +0.000 A 
ATOM      9  C   UNL     1       2.113   7.664  19.400  0.00  0.00    +0.000 A 
ATOM     10  C   UNL     1       2.995   6.657  19.002  0.00  0.00    +0.000 A 
ATOM     11  C   UNL     1       3.065   5.456  19.719  0.00  0.00    +0.000 A 
ATOM     12  H   UNL     1       2.917   2.073  21.411  0.00  0.00    +0.000 HD
ENDROOT
BRANCH   1  17
ATOM     13  C   UNL     1       6.205   4.478  15.797  0.00  0.00    +0.000 A 
ATOM     14  C   UNL     1       4.930   3.915  15.846  0.00  0.00    +0.000 A 
ATOM     15  C   UNL     1       4.212   3.900  17.043  0.00  0.00    +0.000 A 
ATOM     16 CL   UNL     1       2.590   3.290  16.953  0.00  0.00    +0.000 Cl
ATOM     17  C   UNL     1       4.762   4.435  18.232  0.00  0.00    +0.000 A 
ATOM     18  C   UNL     1       6.073   4.950  18.175  0.00  0.00    +0.000 A 
ATOM     19 CL   UNL     1       6.900   5.518  19.585  0.00  0.00    +0.000 Cl
ATOM     20  C   UNL     1       6.779   5.000  16.961  0.00  0.00    +0.000 A 
BRANCH  13  22
ATOM     21  O   UNL     1       6.592   3.813  13.561  0.00  0.00    +0.000 OA
ATOM     22  C   UNL     1       6.859   4.574  14.469  0.00  0.00    +0.000 C 
BRANCH  22  23
ATOM     23  O   UNL     1       7.772   5.558  14.367  0.00  0.00    +0.000 OA
ATOM     24  H   UNL     1       7.849   6.150  15.138  0.00  0.00    +0.000 HD
ENDBRANCH  22  23
ENDBRANCH  13  22
ENDBRANCH   1  17
BRANCH   8  25
ATOM     25  S   UNL     1       0.257   8.775  21.103  0.00  0.00    +0.000 S 
BRANCH  25  26
ATOM     26  C   UNL     1       0.899  10.171  20.200  0.00  0.00    +0.000 A 
ATOM     27  C   UNL     1       1.118  11.392  20.848  0.00  0.00    +0.000 A 
ATOM     28  C   UNL     1       1.640  12.480  20.146  0.00  0.00    +0.000 A 
ATOM     29  C   UNL     1       1.947  12.342  18.797  0.00  0.00    +0.000 A 
ATOM     30  F   UNL     1       2.439  13.389  18.122  0.00  0.00    +0.000 F 
ATOM     31  C   UNL     1       1.754  11.133  18.140  0.00  0.00    +0.000 A 
ATOM     32  C   UNL     1       1.236  10.040  18.845  0.00  0.00    +0.000 A 
ENDBRANCH  25  26
ENDBRANCH   8  25
TORSDOF 5
ENDMDL
MODEL 4
REMARK VINA RESULT:      -8.7      0.190      1.990
REMARK  Name = 
REMARK  5 active torsions:
REMARK  status: ('A' for Active; 'I' for Inactive)
REMARK    1  A    between atoms: C_2  and  O_3
REMARK    2  A    between atoms: C_2  and  C_4
REMARK    3  A    between atoms: C_8  and  N_9
REMARK    4  A    between atoms: C_16  and  S_17
REMARK    5  A    between atoms: S_17  and  C_18
REMARK                            x       y       z     vdW  Elec       q    Type
REMARK                         _______ _______ _______ _____ _____    ______ ____
ROOT
ATOM      1  N   UNL     1       3.997   4.365  19.380  0.00  0.00    +0.000 N 
ATOM      2  C   UNL     1       4.025   3.142  20.048  0.00  0.00    +0.000 C 
ATOM      3  O   UNL     1       4.860   2.260  19.840  0.00  0.00    +0.000 OA
ATOM      4  N   UNL     1       3.021   2.900  20.934  0.00  0.00    +0.000 N 
ATOM      5  C   UNL     1       2.271   3.932  21.592  0.00  0.00    +0.000 C 
ATOM      6  C   UNL     1       2.235   5.229  20.838  0.00  0.00    +0.000 A 
ATOM      7  N   UNL     1       1.375   6.183  21.313  0.00  0.00    +0.000 NA
ATOM      8  C   UNL     1       1.328   7.363  20.660  0.00  0.00    +0.000 A 
ATOM      9  C   UNL     1       2.087   7.609  19.529  0.00  0.00    +0.000 A 
ATOM     10  C   UNL     1       2.951   6.621  19.054  0.00  0.00    +0.000 A 
ATOM     11  C   UNL     1       3.073   5.403  19.735  0.00  0.00    +0.000 A 
ATOM     12  H   UNL     1       3.052   1.978  21.346  0.00  0.00    +0.000 HD
ENDROOT
BRANCH   1  17
ATOM     13  C   UNL     1       6.123   4.597  15.691  0.00  0.00    +0.000 A 
ATOM     14  C   UNL     1       6.684   5.093  16.869  0.00  0.00    +0.000 A 
ATOM     15  C   UNL     1       5.983   5.006  18.073  0.00  0.00    +0.000 A 
ATOM     16 CL   UNL     1       6.830   5.539  19.490  0.00  0.00    +0.000 Cl
ATOM     17  C   UNL     1       4.689   4.436  18.126  0.00  0.00    +0.000 A 
ATOM     18  C   UNL     1       4.118   3.990  16.917  0.00  0.00    +0.000 A 
ATOM     19 CL   UNL     1       2.498   3.387  16.832  0.00  0.00    +0.000 Cl
ATOM     20  C   UNL     1       4.841   4.042  15.713  0.00  0.00    +0.000 A 
BRANCH  13  22
ATOM     21  O   UNL     1       6.756   3.875  13.530  0.00  0.00    +0.000 OA
ATOM     22  C   UNL     1       6.972   4.607  14.475  0.00  0.00    +0.000 C 
BRANCH  22  23
ATOM     23  O   UNL     1       7.998   5.478  14.518  0.00  0.00    +0.000 OA
ATOM     24  H   UNL     1       8.146   6.003  13.709  0.00  0.00    +0.000 HD
ENDBRANCH  22  23
ENDBRANCH  13  22
ENDBRANCH   1  17
BRANCH   8  25
ATOM     25  S   UNL     1       0.324   8.659  21.364  0.00  0.00    +0.000 S 
BRANCH  25  26
ATOM     26  C   UNL     1       0.773  10.049  20.344  0.00  0.00    +0.000 A 
ATOM     27  C   UNL     1       1.083  11.284  20.927  0.00  0.00    +0.000 A 
ATOM     28  C   UNL     1       1.455  12.367  20.129  0.00  0.00    +0.000 A 
ATOM     29  C   UNL     1       1.522  12.212  18.749  0.00  0.00    +0.000 A 
ATOM     30  F   UNL     1       1.871  13.255  17.984  0.00  0.00    +0.000 F 
ATOM     31  C   UNL     1       1.237  10.989  18.153  0.00  0.00    +0.000 A 
ATOM     32  C   UNL     1       0.870   9.901  18.953  0.00  0.00    +0.000 A 
ENDBRANCH  25  26
ENDBRANCH   8  25
TORSDOF 5
ENDMDL
MODEL 5
REMARK VINA RESULT:      -8.6      1.390      1.505
REMARK  Name = 
REMARK  5 active torsions:
REMARK  status: ('A' for Active; 'I' for Inactive)
REMARK    1  A    between atoms: C_2  and  O_3
REMARK    2  A    between atoms: C_2  and  C_4
REMARK    3  A    between atoms: C_8  and  N_9
REMARK    4  A    between atoms: C_16  and  S_17
REMARK    5  A    between atoms: S_17  and  C_18
REMARK                            x       y       z     vdW  Elec       q    Type
REMARK                         _______ _______ _______ _____ _____    ______ ____
ROOT
ATOM      1  N   UNL     1       3.894   4.448  19.269  0.00  0.00    +0.000 N 
ATOM      2  C   UNL     1       3.682   3.210  19.875  0.00  0.00    +0.000 C 
ATOM      3  O   UNL     1       4.387   2.219  19.683  0.00  0.00    +0.000 OA
ATOM      4  N   UNL     1       2.586   3.093  20.671  0.00  0.00    +0.000 N 
ATOM      5  C   UNL     1       1.951   4.202  21.325  0.00  0.00    +0.000 C 
ATOM      6  C   UNL     1       2.173   5.518  20.637  0.00  0.00    +0.000 A 
ATOM      7  N   UNL     1       1.433   6.574  21.097  0.00  0.00    +0.000 NA
ATOM      8  C   UNL     1       1.617   7.772  20.503  0.00  0.00    +0.000 A 
ATOM      9  C   UNL     1       2.492   7.942  19.444  0.00  0.00    +0.000 A 
ATOM     10  C   UNL     1       3.232   6.850  18.984  0.00  0.00    +0.000 A 
ATOM     11  C   UNL     1       3.113   5.603  19.608  0.00  0.00    +0.000 A 
ATOM     12  H   UNL     1       2.443   2.161  21.037  0.00  0.00    +0.000 HD
ENDROOT
BRANCH   1  17
ATOM     13  C   UNL     1       6.186   4.463  15.674  0.00  0.00    +0.000 A 
ATOM     14  C   UNL     1       4.895   3.935  15.693  0.00  0.00    +0.000 A 
ATOM     15  C   UNL     1       4.150   3.940  16.873  0.00  0.00    +0.000 A 
ATOM     16 CL   UNL     1       2.515   3.374  16.747  0.00  0.00    +0.000 Cl
ATOM     17  C   UNL     1       4.687   4.460  18.075  0.00  0.00    +0.000 A 
ATOM     18  C   UNL     1       6.012   4.940  18.048  0.00  0.00    +0.000 A 
ATOM     19 CL   UNL     1       6.821   5.486  19.477  0.00  0.00    +0.000 Cl
ATOM     20  C   UNL     1       6.747   4.969  16.850  0.00  0.00    +0.000 A 
BRANCH  13  22
ATOM     21  O   UNL     1       7.709   5.386  14.118  0.00  0.00    +0.000 OA
ATOM     22  C   UNL     1       6.873   4.540  14.361  0.00  0.00    +0.000 C 
BRANCH  22  23
ATOM     23  O   UNL     1       6.480   3.609  13.472  0.00  0.00    +0.000 OA
ATOM     24  H   UNL     1       7.195   3.121  13.022  0.00  0.00    +0.000 HD
ENDBRANCH  22  23
ENDBRANCH  13  22
ENDBRANCH   1  17
BRANCH   8  25
ATOM     25  S   UNL     1       0.769   9.180  21.197  0.00  0.00    +0.000 S 
BRANCH  25  26
ATOM     26  C   UNL     1      -0.115   9.796  19.778  0.00  0.00    +0.000 A 
ATOM     27  C   UNL     1       0.103   9.238  18.512  0.00  0.00    +0.000 A 
ATOM     28  C   UNL     1      -0.603   9.707  17.403  0.00  0.00    +0.000 A 
ATOM     29  C   UNL     1      -1.532  10.730  17.564  0.00  0.00    +0.000 A 
ATOM     30  F   UNL     1      -2.203  11.184  16.498  0.00  0.00    +0.000 F 
ATOM     31  C   UNL     1      -1.776  11.283  18.815  0.00  0.00    +0.000 A 
ATOM     32  C   UNL     1      -1.072  10.809  19.928  0.00  0.00    +0.000 A 
ENDBRANCH  25  26
ENDBRANCH   8  25
TORSDOF 5
ENDMDL
MODEL 6
REMARK VINA RESULT:      -8.4      2.294      2.678
REMARK  Name = 
REMARK  5 active torsions:
REMARK  status: ('A' for Active; 'I' for Inactive)
REMARK    1  A    between atoms: C_2  and  O_3
REMARK    2  A    between atoms: C_2  and  C_4
REMARK    3  A    between atoms: C_8  and  N_9
REMARK    4  A    between atoms: C_16  and  S_17
REMARK    5  A    between atoms: S_17  and  C_18
REMARK                            x       y       z     vdW  Elec       q    Type
REMARK                         _______ _______ _______ _____ _____    ______ ____
ROOT
ATOM      1  N   UNL     1       3.850   5.551  18.752  0.00  0.00    +0.000 N 
ATOM      2  C   UNL     1       3.649   4.499  19.643  0.00  0.00    +0.000 C 
ATOM      3  O   UNL     1       4.338   3.478  19.675  0.00  0.00    +0.000 OA
ATOM      4  N   UNL     1       2.579   4.593  20.478  0.00  0.00    +0.000 N 
ATOM      5  C   UNL     1       1.975   5.838  20.865  0.00  0.00    +0.000 C 
ATOM      6  C   UNL     1       2.185   6.946  19.874  0.00  0.00    +0.000 A 
ATOM      7  N   UNL     1       1.470   8.094  20.088  0.00  0.00    +0.000 NA
ATOM      8  C   UNL     1       1.645   9.110  19.219  0.00  0.00    +0.000 A 
ATOM      9  C   UNL     1       2.485   9.007  18.123  0.00  0.00    +0.000 A 
ATOM     10  C   UNL     1       3.200   7.824  17.917  0.00  0.00    +0.000 A 
ATOM     11  C   UNL     1       3.091   6.766  18.827  0.00  0.00    +0.000 A 
ATOM     12  H   UNL     1       2.440   3.780  21.061  0.00  0.00    +0.000 HD
ENDROOT
BRANCH   1  17
ATOM     13  C   UNL     1       6.023   4.657  15.194  0.00  0.00    +0.000 A 
ATOM     14  C   UNL     1       4.776   4.079  15.430  0.00  0.00    +0.000 A 
ATOM     15  C   UNL     1       4.069   4.383  16.595  0.00  0.00    +0.000 A 
ATOM     16 CL   UNL     1       2.477   3.704  16.721  0.00  0.00    +0.000 Cl
ATOM     17  C   UNL     1       4.603   5.263  17.566  0.00  0.00    +0.000 A 
ATOM     18  C   UNL     1       5.888   5.794  17.334  0.00  0.00    +0.000 A 
ATOM     19 CL   UNL     1       6.698   6.783  18.501  0.00  0.00    +0.000 Cl
ATOM     20  C   UNL     1       6.581   5.518  16.143  0.00  0.00    +0.000 A 
BRANCH  13  22
ATOM     21  O   UNL     1       7.443   5.168  13.372  0.00  0.00    +0.000 OA
ATOM     22  C   UNL     1       6.661   4.390  13.881  0.00  0.00    +0.000 C 
BRANCH  22  23
ATOM     23  O   UNL     1       6.290   3.230  13.307  0.00  0.00    +0.000 OA
ATOM     24  H   UNL     1       5.330   3.070  13.252  0.00  0.00    +0.000 HD
ENDBRANCH  22  23
ENDBRANCH  13  22
ENDBRANCH   1  17
BRANCH   8  25
ATOM     25  S   UNL     1       0.832  10.657  19.579  0.00  0.00    +0.000 S 
BRANCH  25  26
ATOM     26  C   UNL     1      -0.661  10.505  18.618  0.00  0.00    +0.000 A 
ATOM     27  C   UNL     1      -1.800  11.246  18.958  0.00  0.00    +0.000 A 
ATOM     28  C   UNL     1      -2.963  11.142  18.194  0.00  0.00    +0.000 A 
ATOM     29  C   UNL     1      -2.984  10.301  17.087  0.00  0.00    +0.000 A 
ATOM     30  F   UNL     1      -4.104  10.196  16.359  0.00  0.00    +0.000 F 
ATOM     31  C   UNL     1      -1.858   9.573  16.722  0.00  0.00    +0.000 A 
ATOM     32  C   UNL     1      -0.690   9.680  17.485  0.00  0.00    +0.000 A 
ENDBRANCH  25  26
ENDBRANCH   8  25
TORSDOF 5
ENDMDL
MODEL 7
REMARK VINA RESULT:      -8.4      1.039      2.118
REMARK  Name = 
REMARK  5 active torsions:
REMARK  status: ('A' for Active; 'I' for Inactive)
REMARK    1  A    between atoms: C_2  and  O_3
REMARK    2  A    between atoms: C_2  and  C_4
REMARK    3  A    between atoms: C_8  and  N_9
REMARK    4  A    between atoms: C_16  and  S_17
REMARK    5  A    between atoms: S_17  and  C_18
REMARK                            x       y       z     vdW  Elec       q    Type
REMARK                         _______ _______ _______ _____ _____    ______ ____
ROOT
ATOM      1  N   UNL     1       3.913   4.412  19.297  0.00  0.00    +0.000 N 
ATOM      2  C   UNL     1       3.853   3.140  19.866  0.00  0.00    +0.000 C 
ATOM      3  O   UNL     1       4.623   2.221  19.584  0.00  0.00    +0.000 OA
ATOM      4  N   UNL     1       2.833   2.900  20.733  0.00  0.00    +0.000 N 
ATOM      5  C   UNL     1       2.157   3.927  21.476  0.00  0.00    +0.000 C 
ATOM      6  C   UNL     1       2.216   5.280  20.828  0.00  0.00    +0.000 A 
ATOM      7  N   UNL     1       1.425   6.252  21.382  0.00  0.00    +0.000 NA
ATOM      8  C   UNL     1       1.463   7.480  20.826  0.00  0.00    +0.000 A 
ATOM      9  C   UNL     1       2.239   7.762  19.714  0.00  0.00    +0.000 A 
ATOM     10  C   UNL     1       3.032   6.755  19.158  0.00  0.00    +0.000 A 
ATOM     11  C   UNL     1       3.065   5.482  19.738  0.00  0.00    +0.000 A 
ATOM     12  H   UNL     1       2.797   1.948  21.070  0.00  0.00    +0.000 HD
ENDROOT
BRANCH   1  17
ATOM     13  C   UNL     1       6.055   4.793  15.631  0.00  0.00    +0.000 A 
ATOM     14  C   UNL     1       6.615   5.230  16.831  0.00  0.00    +0.000 A 
ATOM     15  C   UNL     1       5.908   5.096  18.027  0.00  0.00    +0.000 A 
ATOM     16 CL   UNL     1       6.755   5.558  19.470  0.00  0.00    +0.000 Cl
ATOM     17  C   UNL     1       4.610   4.534  18.051  0.00  0.00    +0.000 A 
ATOM     18  C   UNL     1       4.040   4.147  16.821  0.00  0.00    +0.000 A 
ATOM     19 CL   UNL     1       2.416   3.562  16.704  0.00  0.00    +0.000 Cl
ATOM     20  C   UNL     1       4.768   4.248  15.622  0.00  0.00    +0.000 A 
BRANCH  13  22
ATOM     21  O   UNL     1       7.856   5.604  14.331  0.00  0.00    +0.000 OA
ATOM     22  C   UNL     1       6.908   4.850  14.418  0.00  0.00    +0.000 C 
BRANCH  22  23
ATOM     23  O   UNL     1       6.533   4.014  13.433  0.00  0.00    +0.000 OA
ATOM     24  H   UNL     1       7.027   4.094  12.595  0.00  0.00    +0.000 HD
ENDBRANCH  22  23
ENDBRANCH  13  22
ENDBRANCH   1  17
BRANCH   8  25
ATOM     25  S   UNL     1       0.553   8.784  21.635  0.00  0.00    +0.000 S 
BRANCH  25  26
ATOM     26  C   UNL     1       0.070   9.793  20.248  0.00  0.00    +0.000 A 
ATOM     27  C   UNL     1       0.814  10.928  19.905  0.00  0.00    +0.000 A 
ATOM     28  C   UNL     1       0.447  11.707  18.807  0.00  0.00    +0.000 A 
ATOM     29  C   UNL     1      -0.661  11.345  18.048  0.00  0.00    +0.000 A 
ATOM     30  F   UNL     1      -1.016  12.098  16.999  0.00  0.00    +0.000 F 
ATOM     31  C   UNL     1      -1.401  10.211  18.361  0.00  0.00    +0.000 A 
ATOM     32  C   UNL     1      -1.030   9.427  19.459  0.00  0.00    +0.000 A 
ENDBRANCH  25  26
ENDBRANCH   8  25
TORSDOF 5
ENDMDL
MODEL 8
REMARK VINA RESULT:      -8.4      2.503      3.345
REMARK  Name = 
REMARK  5 active torsions:
REMARK  status: ('A' for Active; 'I' for Inactive)
REMARK    1  A    between atoms: C_2  and  O_3
REMARK    2  A    between atoms: C_2  and  C_4
REMARK    3  A    between atoms: C_8  and  N_9
REMARK    4  A    between atoms: C_16  and  S_17
REMARK    5  A    between atoms: S_17  and  C_18
REMARK                            x       y       z     vdW  Elec       q    Type
REMARK                         _______ _______ _______ _____ _____    ______ ____
ROOT
ATOM      1  N   UNL     1       3.679   5.917  18.735  0.00  0.00    +0.000 N 
ATOM      2  C   UNL     1       3.573   4.944  19.728  0.00  0.00    +0.000 C 
ATOM      3  O   UNL     1       4.290   3.944  19.794  0.00  0.00    +0.000 OA
ATOM      4  N   UNL     1       2.566   5.091  20.630  0.00  0.00    +0.000 N 
ATOM      5  C   UNL     1       1.960   6.353  20.952  0.00  0.00    +0.000 C 
ATOM      6  C   UNL     1       2.066   7.372  19.856  0.00  0.00    +0.000 A 
ATOM      7  N   UNL     1       1.338   8.520  20.023  0.00  0.00    +0.000 NA
ATOM      8  C   UNL     1       1.421   9.458  19.058  0.00  0.00    +0.000 A 
ATOM      9  C   UNL     1       2.179   9.275  17.914  0.00  0.00    +0.000 A 
ATOM     10  C   UNL     1       2.908   8.093  17.757  0.00  0.00    +0.000 A 
ATOM     11  C   UNL     1       2.895   7.118  18.761  0.00  0.00    +0.000 A 
ATOM     12  H   UNL     1       2.494   4.330  21.291  0.00  0.00    +0.000 HD
ENDROOT
BRANCH   1  17
ATOM     13  C   UNL     1       5.731   4.842  15.155  0.00  0.00    +0.000 A 
ATOM     14  C   UNL     1       6.180   5.903  15.942  0.00  0.00    +0.000 A 
ATOM     15  C   UNL     1       5.505   6.243  17.115  0.00  0.00    +0.000 A 
ATOM     16 CL   UNL     1       6.226   7.496  18.075  0.00  0.00    +0.000 Cl
ATOM     17  C   UNL     1       4.348   5.539  17.524  0.00  0.00    +0.000 A 
ATOM     18  C   UNL     1       3.879   4.505  16.688  0.00  0.00    +0.000 A 
ATOM     19 CL   UNL     1       2.409   3.653  17.016  0.00  0.00    +0.000 Cl
ATOM     20  C   UNL     1       4.582   4.138  15.528  0.00  0.00    +0.000 A 
BRANCH  13  22
ATOM     21  O   UNL     1       7.431   5.181  13.547  0.00  0.00    +0.000 OA
ATOM     22  C   UNL     1       6.566   4.454  13.992  0.00  0.00    +0.000 C 
BRANCH  22  23
ATOM     23  O   UNL     1       6.272   3.248  13.472  0.00  0.00    +0.000 OA
ATOM     24  H   UNL     1       6.761   2.492  13.846  0.00  0.00    +0.000 HD
ENDBRANCH  22  23
ENDBRANCH  13  22
ENDBRANCH   1  17
BRANCH   8  25
ATOM     25  S   UNL     1       0.596  11.015  19.343  0.00  0.00    +0.000 S 
BRANCH  25  26
ATOM     26  C   UNL     1      -0.905  10.798  18.407  0.00  0.00    +0.000 A 
ATOM     27  C   UNL     1      -1.994  11.655  18.607  0.00  0.00    +0.000 A 
ATOM     28  C   UNL     1      -3.162  11.497  17.860  0.00  0.00    +0.000 A 
ATOM     29  C   UNL     1      -3.237  10.486  16.909  0.00  0.00    +0.000 A 
ATOM     30  F   UNL     1      -4.362  10.331  16.199  0.00  0.00    +0.000 F 
ATOM     31  C   UNL     1      -2.160   9.638  16.682  0.00  0.00    +0.000 A 
ATOM     32  C   UNL     1      -0.987   9.798  17.427  0.00  0.00    +0.000 A 
ENDBRANCH  25  26
ENDBRANCH   8  25
TORSDOF 5
ENDMDL
MODEL 9
REMARK VINA RESULT:      -8.4      1.702      2.080
REMARK  Name = 
REMARK  5 active torsions:
REMARK  status: ('A' for Active; 'I' for Inactive)
REMARK    1  A    between atoms: C_2  and  O_3
REMARK    2  A    between atoms: C_2  and  C_4
REMARK    3  A    between atoms: C_8  and  N_9
REMARK    4  A    between atoms: C_16  and  S_17
REMARK    5  A    between atoms: S_17  and  C_18
REMARK                            x       y       z     vdW  Elec       q    Type
REMARK                         _______ _______ _______ _____ _____    ______ ____
ROOT
ATOM      1  N   UNL     1       3.862   4.812  19.148  0.00  0.00    +0.000 N 
ATOM      2  C   UNL     1       3.657   3.620  19.842  0.00  0.00    +0.000 C 
ATOM      3  O   UNL     1       4.362   2.619  19.718  0.00  0.00    +0.000 OA
ATOM      4  N   UNL     1       2.565   3.558  20.651  0.00  0.00    +0.000 N 
ATOM      5  C   UNL     1       1.932   4.711  21.228  0.00  0.00    +0.000 C 
ATOM      6  C   UNL     1       2.148   5.975  20.447  0.00  0.00    +0.000 A 
ATOM      7  N   UNL     1       1.408   7.060  20.834  0.00  0.00    +0.000 NA
ATOM      8  C   UNL     1       1.587   8.212  20.155  0.00  0.00    +0.000 A 
ATOM      9  C   UNL     1       2.456   8.307  19.081  0.00  0.00    +0.000 A 
ATOM     10  C   UNL     1       3.195   7.186  18.696  0.00  0.00    +0.000 A 
ATOM     11  C   UNL     1       3.081   5.987  19.409  0.00  0.00    +0.000 A 
ATOM     12  H   UNL     1       2.426   2.656  21.084  0.00  0.00    +0.000 HD
ENDROOT
BRANCH   1  17
ATOM     13  C   UNL     1       6.133   4.577  15.547  0.00  0.00    +0.000 A 
ATOM     14  C   UNL     1       4.822   4.103  15.594  0.00  0.00    +0.000 A 
ATOM     15  C   UNL     1       4.084   4.190  16.776  0.00  0.00    +0.000 A 
ATOM     16 CL   UNL     1       2.426   3.686  16.681  0.00  0.00    +0.000 Cl
ATOM     17  C   UNL     1       4.648   4.739  17.951  0.00  0.00    +0.000 A 
ATOM     18  C   UNL     1       5.992   5.163  17.899  0.00  0.00    +0.000 A 
ATOM     19 CL   UNL     1       6.830   5.738  19.299  0.00  0.00    +0.000 Cl
ATOM     20  C   UNL     1       6.720   5.110  16.698  0.00  0.00    +0.000 A 
BRANCH  13  22
ATOM     21  O   UNL     1       6.500   3.799  13.344  0.00  0.00    +0.000 OA
ATOM     22  C   UNL     1       6.815   4.568  14.230  0.00  0.00    +0.000 C 
BRANCH  22  23
ATOM     23  O   UNL     1       7.809   5.467  14.111  0.00  0.00    +0.000 OA
ATOM     24  H   UNL     1       8.282   5.691  14.935  0.00  0.00    +0.000 HD
ENDBRANCH  22  23
ENDBRANCH  13  22
ENDBRANCH   1  17
BRANCH   8  25
ATOM     25  S   UNL     1       0.740   9.665  20.751  0.00  0.00    +0.000 S 
BRANCH  25  26
ATOM     26  C   UNL     1      -0.360  10.016  19.394  0.00  0.00    +0.000 A 
ATOM     27  C   UNL     1      -1.376  10.969  19.535  0.00  0.00    +0.000 A 
ATOM     28  C   UNL     1      -2.225  11.259  18.466  0.00  0.00    +0.000 A 
ATOM     29  C   UNL     1      -2.052  10.599  17.254  0.00  0.00    +0.000 A 
ATOM     30  F   UNL     1      -2.872  10.872  16.231  0.00  0.00    +0.000 F 
ATOM     31  C   UNL     1      -1.037   9.664  17.089  0.00  0.00    +0.000 A 
ATOM     32  C   UNL     1      -0.183   9.377  18.159  0.00  0.00    +0.000 A 
ENDBRANCH  25  26
ENDBRANCH   8  25
TORSDOF 5
ENDMDL
