MODEL 1
REMARK VINA RESULT:     -11.3      0.000      0.000
REMARK  Name = 
REMARK  6 active torsions:
REMARK  status: ('A' for Active; 'I' for Inactive)
REMARK    1  A    between atoms: C_1  and  O_2
REMARK    2  A    between atoms: O_2  and  C_3
REMARK    3  A    between atoms: N_11  and  C_12
REMARK    4  A    between atoms: C_12  and  C_13
REMARK    5  A    between atoms: C_13  and  C_14
REMARK    6  A    between atoms: C_15  and  C_16
REMARK                            x       y       z     vdW  Elec       q    Type
REMARK                         _______ _______ _______ _____ _____    ______ ____
ROOT
ATOM      1  C   UNL     1       2.724   4.006  19.950  0.00  0.00    +0.000 C 
ATOM      2  N   UNL     1       1.985   3.409  18.863  0.00  0.00    +0.000 N 
ATOM      3  C   UNL     1       0.882   2.721  19.299  0.00  0.00    +0.000 C 
ATOM      4  O   UNL     1       0.083   2.136  18.590  0.00  0.00    +0.000 OA
ATOM      5  N   UNL     1       0.871   2.738  20.653  0.00  0.00    +0.000 N 
ATOM      6  C   UNL     1       2.030   3.287  21.121  0.00  0.00    +0.000 C 
ATOM      7  O   UNL     1       2.396   3.262  22.289  0.00  0.00    +0.000 OA
ATOM      8  H   UNL     1       2.325   3.313  17.911  0.00  0.00    +0.000 HD
ATOM      9  H   UNL     1       0.218   2.206  21.201  0.00  0.00    +0.000 HD
ENDROOT
BRANCH   1  10
ATOM     10  C   UNL     1       2.289   5.461  20.007  0.00  0.00    +0.000 C 
ATOM     11  C   UNL     1       1.915   6.709  20.057  0.00  0.00    +0.000 C 
BRANCH  11  12
ATOM     12  C   UNL     1       1.475   8.073  20.100  0.00  0.00    +0.000 A 
ATOM     13  C   UNL     1       1.598   8.889  18.965  0.00  0.00    +0.000 A 
ATOM     14  C   UNL     1       1.137  10.212  18.982  0.00  0.00    +0.000 A 
ATOM     15  C   UNL     1       0.550  10.703  20.141  0.00  0.00    +0.000 A 
ATOM     16  C   UNL     1       0.443   9.894  21.275  0.00  0.00    +0.000 A 
ATOM     17  C   UNL     1       0.900   8.581  21.268  0.00  0.00    +0.000 A 
ATOM     18  C   UNL     1      -0.228  10.600  22.407  0.00  0.00    +0.000 C 
ATOM     19  C   UNL     1      -0.499  12.012  21.861  0.00  0.00    +0.000 C 
ATOM     20  C   UNL     1      -0.051  12.053  20.388  0.00  0.00    +0.000 C 
ATOM     21  N   UNL     1       0.853  13.142  20.117  0.00  0.00    +0.000 N 
ATOM     22  C   UNL     1       0.324  14.044  19.228  0.00  0.00    +0.000 C 
ATOM     23  O   UNL     1       0.873  15.065  18.854  0.00  0.00    +0.000 OA
ATOM     24  N   UNL     1      -0.897  13.607  18.841  0.00  0.00    +0.000 N 
ATOM     25  C   UNL     1      -1.209  12.430  19.448  0.00  0.00    +0.000 C 
ATOM     26  O   UNL     1      -2.252  11.813  19.281  0.00  0.00    +0.000 OA
ATOM     27  H   UNL     1       1.771  13.267  20.520  0.00  0.00    +0.000 HD
ATOM     28  H   UNL     1      -1.488  14.087  18.184  0.00  0.00    +0.000 HD
ENDBRANCH  11  12
ENDBRANCH   1  10
BRANCH   1  29
ATOM     29  C   UNL     1       4.248   3.867  19.933  0.00  0.00    +0.000 C 
BRANCH  29  38
ATOM     30  C   UNL     1       7.307   5.105  14.886  0.00  0.00    +0.000 A 
ATOM     31  C   UNL     1       6.314   4.322  14.260  0.00  0.00    +0.000 A 
ATOM     32  C   UNL     1       5.275   3.722  14.994  0.00  0.00    +0.000 A 
ATOM     33  C   UNL     1       5.256   3.916  16.361  0.00  0.00    +0.000 A 
ATOM     34  C   UNL     1       6.265   4.667  16.961  0.00  0.00    +0.000 A 
ATOM     35  C   UNL     1       7.283   5.280  16.266  0.00  0.00    +0.000 A 
ATOM     36  C   UNL     1       6.039   4.692  18.401  0.00  0.00    +0.000 C 
ATOM     37  O   UNL     1       6.767   5.221  19.219  0.00  0.00    +0.000 OA
ATOM     38  N   UNL     1       4.858   4.015  18.621  0.00  0.00    +0.000 N 
ATOM     39  C   UNL     1       4.290   3.449  17.402  0.00  0.00    +0.000 C 
BRANCH  30  41
ATOM     40  C   UNL     1       7.989   5.509  12.653  0.00  0.00    +0.000 C 
ATOM     41  O   UNL     1       8.246   5.649  14.049  0.00  0.00    +0.000 OA
ENDBRANCH  30  41
ENDBRANCH  29  38
ENDBRANCH   1  29
TORSDOF 5
ENDMDL
MODEL 2
REMARK VINA RESULT:     -11.0      0.937      1.338
REMARK  Name = 
REMARK  6 active torsions:
REMARK  status: ('A' for Active; 'I' for Inactive)
REMARK    1  A    between atoms: C_1  and  O_2
REMARK    2  A    between atoms: O_2  and  C_3
REMARK    3  A    between atoms: N_11  and  C_12
REMARK    4  A    between atoms: C_12  and  C_13
REMARK    5  A    between atoms: C_13  and  C_14
REMARK    6  A    between atoms: C_15  and  C_16
REMARK                            x       y       z     vdW  Elec       q    Type
REMARK                         _______ _______ _______ _____ _____    ______ ____
ROOT
ATOM      1  C   UNL     1       2.638   4.000  20.003  0.00  0.00    +0.000 C 
ATOM      2  N   UNL     1       1.904   3.414  18.907  0.00  0.00    +0.000 N 
ATOM      3  C   UNL     1       0.790   2.735  19.331  0.00  0.00    +0.000 C 
ATOM      4  O   UNL     1      -0.008   2.161  18.612  0.00  0.00    +0.000 OA
ATOM      5  N   UNL     1       0.767   2.748  20.684  0.00  0.00    +0.000 N 
ATOM      6  C   UNL     1       1.926   3.284  21.165  0.00  0.00    +0.000 C 
ATOM      7  O   UNL     1       2.281   3.252  22.336  0.00  0.00    +0.000 OA
ATOM      8  H   UNL     1       2.252   3.318  17.958  0.00  0.00    +0.000 HD
ATOM      9  H   UNL     1       0.104   2.221  21.225  0.00  0.00    +0.000 HD
ENDROOT
BRANCH   1  10
ATOM     10  C   UNL     1       2.218   5.459  20.061  0.00  0.00    +0.000 C 
ATOM     11  C   UNL     1       1.855   6.711  20.112  0.00  0.00    +0.000 C 
BRANCH  11  12
ATOM     12  C   UNL     1       1.431   8.080  20.148  0.00  0.00    +0.000 A 
ATOM     13  C   UNL     1       1.577   8.893  19.013  0.00  0.00    +0.000 A 
ATOM     14  C   UNL     1       1.133  10.221  19.024  0.00  0.00    +0.000 A 
ATOM     15  C   UNL     1       0.539  10.721  20.175  0.00  0.00    +0.000 A 
ATOM     16  C   UNL     1       0.408   9.915  21.309  0.00  0.00    +0.000 A 
ATOM     17  C   UNL     1       0.850   8.597  21.309  0.00  0.00    +0.000 A 
ATOM     18  C   UNL     1      -0.266  10.632  22.433  0.00  0.00    +0.000 C 
ATOM     19  C   UNL     1      -0.513  12.046  21.881  0.00  0.00    +0.000 C 
ATOM     20  C   UNL     1      -0.048  12.079  20.413  0.00  0.00    +0.000 C 
ATOM     21  N   UNL     1       0.872  13.157  20.150  0.00  0.00    +0.000 N 
ATOM     22  C   UNL     1       0.365  14.064  19.255  0.00  0.00    +0.000 C 
ATOM     23  O   UNL     1       0.930  15.077  18.885  0.00  0.00    +0.000 OA
ATOM     24  N   UNL     1      -0.858  13.641  18.854  0.00  0.00    +0.000 N 
ATOM     25  C   UNL     1      -1.191  12.469  19.460  0.00  0.00    +0.000 C 
ATOM     26  O   UNL     1      -2.239  11.865  19.282  0.00  0.00    +0.000 OA
ATOM     27  H   UNL     1       1.787  13.270  20.563  0.00  0.00    +0.000 HD
ATOM     28  H   UNL     1      -1.435  14.127  18.191  0.00  0.00    +0.000 HD
ENDBRANCH  11  12
ENDBRANCH   1  10
BRANCH   1  29
ATOM     29  C   UNL     1       4.161   3.846  20.000  0.00  0.00    +0.000 C 
BRANCH  29  38
ATOM     30  C   UNL     1       6.614   4.561  14.537  0.00  0.00    +0.000 A 
ATOM     31  C   UNL     1       7.165   5.735  15.094  0.00  0.00    +0.000 A 
ATOM     32  C   UNL     1       6.907   6.114  16.424  0.00  0.00    +0.000 A 
ATOM     33  C   UNL     1       6.086   5.299  17.178  0.00  0.00    +0.000 A 
ATOM     34  C   UNL     1       5.528   4.161  16.599  0.00  0.00    +0.000 A 
ATOM     35  C   UNL     1       5.777   3.758  15.305  0.00  0.00    +0.000 A 
ATOM     36  C   UNL     1       4.680   3.500  17.583  0.00  0.00    +0.000 C 
ATOM     37  O   UNL     1       4.010   2.506  17.379  0.00  0.00    +0.000 OA
ATOM     38  N   UNL     1       4.808   4.219  18.752  0.00  0.00    +0.000 N 
ATOM     39  C   UNL     1       5.649   5.402  18.604  0.00  0.00    +0.000 C 
BRANCH  30  41
ATOM     40  C   UNL     1       6.129   3.378  12.542  0.00  0.00    +0.000 C 
ATOM     41  O   UNL     1       6.965   4.300  13.239  0.00  0.00    +0.000 OA
ENDBRANCH  30  41
ENDBRANCH  29  38
ENDBRANCH   1  29
TORSDOF 5
ENDMDL
MODEL 3
REMARK VINA RESULT:     -10.9      2.013      2.783
REMARK  Name = 
REMARK  6 active torsions:
REMARK  status: ('A' for Active; 'I' for Inactive)
REMARK    1  A    between atoms: C_1  and  O_2
REMARK    2  A    between atoms: O_2  and  C_3
REMARK    3  A    between atoms: N_11  and  C_12
REMARK    4  A    between atoms: C_12  and  C_13
REMARK    5  A    between atoms: C_13  and  C_14
REMARK    6  A    between atoms: C_15  and  C_16
REMARK                            x       y       z     vdW  Elec       q    Type
REMARK                         _______ _______ _______ _____ _____    ______ ____
ROOT
ATOM      1  C   UNL     1       2.383   4.799  20.237  0.00  0.00    +0.000 C 
ATOM      2  N   UNL     1       1.640   4.223  19.142  0.00  0.00    +0.000 N 
ATOM      3  C   UNL     1       0.755   3.262  19.562  0.00  0.00    +0.000 C 
ATOM      4  O   UNL     1      -0.000   2.631  18.845  0.00  0.00    +0.000 OA
ATOM      5  N   UNL     1       0.916   3.081  20.894  0.00  0.00    +0.000 N 
ATOM      6  C   UNL     1       1.998   3.788  21.333  0.00  0.00    +0.000 C 
ATOM      7  O   UNL     1       2.509   3.674  22.439  0.00  0.00    +0.000 OA
ATOM      8  H   UNL     1       1.866   4.339  18.160  0.00  0.00    +0.000 HD
ATOM      9  H   UNL     1       0.454   2.351  21.406  0.00  0.00    +0.000 HD
ENDROOT
BRANCH   1  10
ATOM     10  C   UNL     1       1.688   6.106  20.579  0.00  0.00    +0.000 C 
ATOM     11  C   UNL     1       1.089   7.227  20.870  0.00  0.00    +0.000 C 
BRANCH  11  12
ATOM     12  C   UNL     1       0.438   8.471  21.161  0.00  0.00    +0.000 A 
ATOM     13  C   UNL     1       0.232   8.864  22.493  0.00  0.00    +0.000 A 
ATOM     14  C   UNL     1      -0.370  10.094  22.790  0.00  0.00    +0.000 A 
ATOM     15  C   UNL     1      -0.756  10.922  21.744  0.00  0.00    +0.000 A 
ATOM     16  C   UNL     1      -0.564  10.522  20.419  0.00  0.00    +0.000 A 
ATOM     17  C   UNL     1       0.029   9.302  20.115  0.00  0.00    +0.000 A 
ATOM     18  C   UNL     1      -1.032  11.555  19.447  0.00  0.00    +0.000 C 
ATOM     19  C   UNL     1      -1.605  12.674  20.335  0.00  0.00    +0.000 C 
ATOM     20  C   UNL     1      -1.372  12.287  21.807  0.00  0.00    +0.000 C 
ATOM     21  N   UNL     1      -2.581  12.336  22.589  0.00  0.00    +0.000 N 
ATOM     22  C   UNL     1      -2.519  13.282  23.580  0.00  0.00    +0.000 C 
ATOM     23  O   UNL     1      -3.418  13.541  24.360  0.00  0.00    +0.000 OA
ATOM     24  N   UNL     1      -1.300  13.869  23.544  0.00  0.00    +0.000 N 
ATOM     25  C   UNL     1      -0.535  13.344  22.550  0.00  0.00    +0.000 C 
ATOM     26  O   UNL     1       0.610  13.690  22.291  0.00  0.00    +0.000 OA
ATOM     27  H   UNL     1      -3.402  11.763  22.449  0.00  0.00    +0.000 HD
ATOM     28  H   UNL     1      -1.001  14.591  24.176  0.00  0.00    +0.000 HD
ENDBRANCH  11  12
ENDBRANCH   1  10
BRANCH   1  29
ATOM     29  C   UNL     1       3.891   4.988  20.050  0.00  0.00    +0.000 C 
BRANCH  29  38
ATOM     30  C   UNL     1       5.930   4.073  14.449  0.00  0.00    +0.000 A 
ATOM     31  C   UNL     1       5.864   5.479  14.347  0.00  0.00    +0.000 A 
ATOM     32  C   UNL     1       5.417   6.277  15.415  0.00  0.00    +0.000 A 
ATOM     33  C   UNL     1       5.033   5.641  16.579  0.00  0.00    +0.000 A 
ATOM     34  C   UNL     1       5.078   4.249  16.647  0.00  0.00    +0.000 A 
ATOM     35  C   UNL     1       5.527   3.444  15.623  0.00  0.00    +0.000 A 
ATOM     36  C   UNL     1       4.592   3.826  17.955  0.00  0.00    +0.000 C 
ATOM     37  O   UNL     1       4.457   2.673  18.316  0.00  0.00    +0.000 OA
ATOM     38  N   UNL     1       4.338   4.979  18.666  0.00  0.00    +0.000 N 
ATOM     39  C   UNL     1       4.549   6.191  17.882  0.00  0.00    +0.000 C 
BRANCH  30  41
ATOM     40  C   UNL     1       5.523   3.370  12.224  0.00  0.00    +0.000 C 
ATOM     41  O   UNL     1       6.407   3.421  13.342  0.00  0.00    +0.000 OA
ENDBRANCH  30  41
ENDBRANCH  29  38
ENDBRANCH   1  29
TORSDOF 5
ENDMDL
MODEL 4
REMARK VINA RESULT:     -10.6      2.892     11.458
REMARK  Name = 
REMARK  6 active torsions:
REMARK  status: ('A' for Active; 'I' for Inactive)
REMARK    1  A    between atoms: C_1  and  O_2
REMARK    2  A    between atoms: O_2  and  C_3
REMARK    3  A    between atoms: N_11  and  C_12
REMARK    4  A    between atoms: C_12  and  C_13
REMARK    5  A    between atoms: C_13  and  C_14
REMARK    6  A    between atoms: C_15  and  C_16
REMARK                            x       y       z     vdW  Elec       q    Type
REMARK                         _______ _______ _______ _____ _____    ______ ____
ROOT
ATOM      1  C   UNL     1       0.017  11.378  19.967  0.00  0.00    +0.000 C 
ATOM      2  N   UNL     1      -1.337  11.155  19.520  0.00  0.00    +0.000 N 
ATOM      3  C   UNL     1      -1.548  11.615  18.246  0.00  0.00    +0.000 C 
ATOM      4  O   UNL     1      -2.594  11.541  17.627  0.00  0.00    +0.000 OA
ATOM      5  N   UNL     1      -0.420  12.232  17.819  0.00  0.00    +0.000 N 
ATOM      6  C   UNL     1       0.475  12.327  18.845  0.00  0.00    +0.000 C 
ATOM      7  O   UNL     1       1.498  13.000  18.823  0.00  0.00    +0.000 OA
ATOM      8  H   UNL     1      -2.112  10.887  20.119  0.00  0.00    +0.000 HD
ATOM      9  H   UNL     1      -0.370  12.744  16.956  0.00  0.00    +0.000 HD
ENDROOT
BRANCH   1  10
ATOM     10  C   UNL     1       0.752  10.064  19.761  0.00  0.00    +0.000 C 
ATOM     11  C   UNL     1       1.383   8.937  19.582  0.00  0.00    +0.000 C 
BRANCH  11  12
ATOM     12  C   UNL     1       2.053   7.689  19.364  0.00  0.00    +0.000 A 
ATOM     13  C   UNL     1       1.839   6.612  20.239  0.00  0.00    +0.000 A 
ATOM     14  C   UNL     1       2.459   5.375  20.016  0.00  0.00    +0.000 A 
ATOM     15  C   UNL     1       3.286   5.229  18.910  0.00  0.00    +0.000 A 
ATOM     16  C   UNL     1       3.511   6.306  18.050  0.00  0.00    +0.000 A 
ATOM     17  C   UNL     1       2.903   7.539  18.265  0.00  0.00    +0.000 A 
ATOM     18  C   UNL     1       4.416   5.943  16.919  0.00  0.00    +0.000 C 
ATOM     19  C   UNL     1       4.792   4.477  17.196  0.00  0.00    +0.000 C 
ATOM     20  C   UNL     1       4.017   4.008  18.442  0.00  0.00    +0.000 C 
ATOM     21  N   UNL     1       4.880   3.435  19.444  0.00  0.00    +0.000 N 
ATOM     22  C   UNL     1       4.606   2.109  19.665  0.00  0.00    +0.000 C 
ATOM     23  O   UNL     1       5.208   1.388  20.441  0.00  0.00    +0.000 OA
ATOM     24  N   UNL     1       3.562   1.745  18.883  0.00  0.00    +0.000 N 
ATOM     25  C   UNL     1       3.123   2.793  18.136  0.00  0.00    +0.000 C 
ATOM     26  O   UNL     1       2.194   2.745  17.342  0.00  0.00    +0.000 OA
ATOM     27  H   UNL     1       5.615   3.918  19.941  0.00  0.00    +0.000 HD
ATOM     28  H   UNL     1       3.163   0.823  18.867  0.00  0.00    +0.000 HD
ENDBRANCH  11  12
ENDBRANCH   1  10
BRANCH   1  29
ATOM     29  C   UNL     1       0.216  11.926  21.383  0.00  0.00    +0.000 C 
BRANCH  29  38
ATOM     30  C   UNL     1      -4.569  14.712  23.771  0.00  0.00    +0.000 A 
ATOM     31  C   UNL     1      -4.794  13.474  24.410  0.00  0.00    +0.000 A 
ATOM     32  C   UNL     1      -3.945  12.371  24.203  0.00  0.00    +0.000 A 
ATOM     33  C   UNL     1      -2.875  12.533  23.344  0.00  0.00    +0.000 A 
ATOM     34  C   UNL     1      -2.691  13.755  22.702  0.00  0.00    +0.000 A 
ATOM     35  C   UNL     1      -3.496  14.856  22.897  0.00  0.00    +0.000 A 
ATOM     36  C   UNL     1      -1.526  13.657  21.830  0.00  0.00    +0.000 C 
ATOM     37  O   UNL     1      -1.124  14.535  21.091  0.00  0.00    +0.000 OA
ATOM     38  N   UNL     1      -0.998  12.399  22.028  0.00  0.00    +0.000 N 
ATOM     39  C   UNL     1      -1.792  11.585  22.943  0.00  0.00    +0.000 C 
BRANCH  30  41
ATOM     40  C   UNL     1      -4.929  16.807  24.818  0.00  0.00    +0.000 C 
ATOM     41  O   UNL     1      -5.458  15.707  24.080  0.00  0.00    +0.000 OA
ENDBRANCH  30  41
ENDBRANCH  29  38
ENDBRANCH   1  29
TORSDOF 5
ENDMDL
MODEL 5
REMARK VINA RESULT:     -10.5      1.255      1.998
REMARK  Name = 
REMARK  6 active torsions:
REMARK  status: ('A' for Active; 'I' for Inactive)
REMARK    1  A    between atoms: C_1  and  O_2
REMARK    2  A    between atoms: O_2  and  C_3
REMARK    3  A    between atoms: N_11  and  C_12
REMARK    4  A    between atoms: C_12  and  C_13
REMARK    5  A    between atoms: C_13  and  C_14
REMARK    6  A    between atoms: C_15  and  C_16
REMARK                            x       y       z     vdW  Elec       q    Type
REMARK                         _______ _______ _______ _____ _____    ______ ____
ROOT
ATOM      1  C   UNL     1       2.632   4.288  20.134  0.00  0.00    +0.000 C 
ATOM      2  N   UNL     1       1.934   3.739  18.996  0.00  0.00    +0.000 N 
ATOM      3  C   UNL     1       0.874   2.950  19.366  0.00  0.00    +0.000 C 
ATOM      4  O   UNL     1       0.115   2.379  18.605  0.00  0.00    +0.000 OA
ATOM      5  N   UNL     1       0.860   2.854  20.716  0.00  0.00    +0.000 N 
ATOM      6  C   UNL     1       1.982   3.432  21.236  0.00  0.00    +0.000 C 
ATOM      7  O   UNL     1       2.346   3.333  22.401  0.00  0.00    +0.000 OA
ATOM      8  H   UNL     1       2.281   3.744  18.042  0.00  0.00    +0.000 HD
ATOM      9  H   UNL     1       0.240   2.239  21.214  0.00  0.00    +0.000 HD
ENDROOT
BRANCH   1  10
ATOM     10  C   UNL     1       2.108   5.704  20.309  0.00  0.00    +0.000 C 
ATOM     11  C   UNL     1       1.657   6.918  20.459  0.00  0.00    +0.000 C 
BRANCH  11  12
ATOM     12  C   UNL     1       1.145   8.250  20.594  0.00  0.00    +0.000 A 
ATOM     13  C   UNL     1       0.825   8.756  21.865  0.00  0.00    +0.000 A 
ATOM     14  C   UNL     1       0.360  10.068  22.014  0.00  0.00    +0.000 A 
ATOM     15  C   UNL     1       0.226  10.866  20.885  0.00  0.00    +0.000 A 
ATOM     16  C   UNL     1       0.530  10.356  19.621  0.00  0.00    +0.000 A 
ATOM     17  C   UNL     1       0.989   9.053  19.462  0.00  0.00    +0.000 A 
ATOM     18  C   UNL     1       0.333  11.371  18.543  0.00  0.00    +0.000 C 
ATOM     19  C   UNL     1      -0.195  12.610  19.287  0.00  0.00    +0.000 C 
ATOM     20  C   UNL     1      -0.206  12.298  20.796  0.00  0.00    +0.000 C 
ATOM     21  N   UNL     1      -1.488  12.551  21.402  0.00  0.00    +0.000 N 
ATOM     22  C   UNL     1      -1.428  13.547  22.343  0.00  0.00    +0.000 C 
ATOM     23  O   UNL     1      -2.376  13.969  22.980  0.00  0.00    +0.000 OA
ATOM     24  N   UNL     1      -0.147  13.973  22.444  0.00  0.00    +0.000 N 
ATOM     25  C   UNL     1       0.663  13.289  21.591  0.00  0.00    +0.000 C 
ATOM     26  O   UNL     1       1.867  13.471  21.473  0.00  0.00    +0.000 OA
ATOM     27  H   UNL     1      -2.353  12.078  21.181  0.00  0.00    +0.000 HD
ATOM     28  H   UNL     1       0.162  14.693  23.073  0.00  0.00    +0.000 HD
ENDBRANCH  11  12
ENDBRANCH   1  10
BRANCH   1  29
ATOM     29  C   UNL     1       4.162   4.245  20.116  0.00  0.00    +0.000 C 
BRANCH  29  38
ATOM     30  C   UNL     1       7.222   5.115  14.993  0.00  0.00    +0.000 A 
ATOM     31  C   UNL     1       6.151   4.414  14.400  0.00  0.00    +0.000 A 
ATOM     32  C   UNL     1       5.077   3.922  15.164  0.00  0.00    +0.000 A 
ATOM     33  C   UNL     1       5.101   4.141  16.527  0.00  0.00    +0.000 A 
ATOM     34  C   UNL     1       6.184   4.809  17.095  0.00  0.00    +0.000 A 
ATOM     35  C   UNL     1       7.240   5.316  16.370  0.00  0.00    +0.000 A 
ATOM     36  C   UNL     1       5.989   4.879  18.538  0.00  0.00    +0.000 C 
ATOM     37  O   UNL     1       6.777   5.355  19.332  0.00  0.00    +0.000 OA
ATOM     38  N   UNL     1       4.758   4.315  18.791  0.00  0.00    +0.000 N 
ATOM     39  C   UNL     1       4.118   3.781  17.594  0.00  0.00    +0.000 C 
BRANCH  30  41
ATOM     40  C   UNL     1       7.936   5.331  12.745  0.00  0.00    +0.000 C 
ATOM     41  O   UNL     1       8.189   5.559  14.130  0.00  0.00    +0.000 OA
ENDBRANCH  30  41
ENDBRANCH  29  38
ENDBRANCH   1  29
TORSDOF 5
ENDMDL
MODEL 6
REMARK VINA RESULT:     -10.4      2.821     11.356
REMARK  Name = 
REMARK  6 active torsions:
REMARK  status: ('A' for Active; 'I' for Inactive)
REMARK    1  A    between atoms: C_1  and  O_2
REMARK    2  A    between atoms: O_2  and  C_3
REMARK    3  A    between atoms: N_11  and  C_12
REMARK    4  A    between atoms: C_12  and  C_13
REMARK    5  A    between atoms: C_13  and  C_14
REMARK    6  A    between atoms: C_15  and  C_16
REMARK                            x       y       z     vdW  Elec       q    Type
REMARK                         _______ _______ _______ _____ _____    ______ ____
ROOT
ATOM      1  C   UNL     1      -0.144  11.449  19.482  0.00  0.00    +0.000 C 
ATOM      2  N   UNL     1      -1.514  11.110  19.182  0.00  0.00    +0.000 N 
ATOM      3  C   UNL     1      -1.943  11.668  18.005  0.00  0.00    +0.000 C 
ATOM      4  O   UNL     1      -3.049  11.530  17.515  0.00  0.00    +0.000 OA
ATOM      5  N   UNL     1      -0.956  12.456  17.517  0.00  0.00    +0.000 N 
ATOM      6  C   UNL     1       0.055  12.555  18.429  0.00  0.00    +0.000 C 
ATOM      7  O   UNL     1       0.987  13.345  18.360  0.00  0.00    +0.000 OA
ATOM      8  H   UNL     1      -2.167  10.691  19.836  0.00  0.00    +0.000 HD
ATOM      9  H   UNL     1      -1.078  13.055  16.720  0.00  0.00    +0.000 HD
ENDROOT
BRANCH   1  10
ATOM     10  C   UNL     1       0.694  10.262  19.037  0.00  0.00    +0.000 C 
ATOM     11  C   UNL     1       1.410   9.242  18.654  0.00  0.00    +0.000 C 
BRANCH  11  12
ATOM     12  C   UNL     1       2.180   8.101  18.252  0.00  0.00    +0.000 A 
ATOM     13  C   UNL     1       3.404   8.276  17.586  0.00  0.00    +0.000 A 
ATOM     14  C   UNL     1       4.183   7.171  17.222  0.00  0.00    +0.000 A 
ATOM     15  C   UNL     1       3.729   5.896  17.536  0.00  0.00    +0.000 A 
ATOM     16  C   UNL     1       2.505   5.724  18.185  0.00  0.00    +0.000 A 
ATOM     17  C   UNL     1       1.722   6.815  18.547  0.00  0.00    +0.000 A 
ATOM     18  C   UNL     1       2.204   4.284  18.444  0.00  0.00    +0.000 C 
ATOM     19  C   UNL     1       3.395   3.534  17.821  0.00  0.00    +0.000 C 
ATOM     20  C   UNL     1       4.397   4.577  17.293  0.00  0.00    +0.000 C 
ATOM     21  N   UNL     1       4.747   4.356  15.913  0.00  0.00    +0.000 N 
ATOM     22  C   UNL     1       6.077   4.060  15.757  0.00  0.00    +0.000 C 
ATOM     23  O   UNL     1       6.621   3.806  14.697  0.00  0.00    +0.000 OA
ATOM     24  N   UNL     1       6.677   4.104  16.971  0.00  0.00    +0.000 N 
ATOM     25  C   UNL     1       5.782   4.420  17.945  0.00  0.00    +0.000 C 
ATOM     26  O   UNL     1       6.052   4.526  19.133  0.00  0.00    +0.000 OA
ATOM     27  H   UNL     1       4.114   4.396  15.126  0.00  0.00    +0.000 HD
ATOM     28  H   UNL     1       7.655   3.933  17.124  0.00  0.00    +0.000 HD
ENDBRANCH  11  12
ENDBRANCH   1  10
BRANCH   1  29
ATOM     29  C   UNL     1       0.185  11.872  20.916  0.00  0.00    +0.000 C 
BRANCH  29  38
ATOM     30  C   UNL     1      -4.275  14.707  23.821  0.00  0.00    +0.000 A 
ATOM     31  C   UNL     1      -4.488  13.450  24.427  0.00  0.00    +0.000 A 
ATOM     32  C   UNL     1      -3.700  12.331  24.105  0.00  0.00    +0.000 A 
ATOM     33  C   UNL     1      -2.703  12.494  23.163  0.00  0.00    +0.000 A 
ATOM     34  C   UNL     1      -2.531  13.736  22.555  0.00  0.00    +0.000 A 
ATOM     35  C   UNL     1      -3.276  14.852  22.863  0.00  0.00    +0.000 A 
ATOM     36  C   UNL     1      -1.449  13.637  21.582  0.00  0.00    +0.000 C 
ATOM     37  O   UNL     1      -1.081  14.532  20.846  0.00  0.00    +0.000 OA
ATOM     38  N   UNL     1      -0.952  12.356  21.684  0.00  0.00    +0.000 N 
ATOM     39  C   UNL     1      -1.692  11.530  22.631  0.00  0.00    +0.000 C 
BRANCH  30  41
ATOM     40  C   UNL     1      -4.462  16.788  24.938  0.00  0.00    +0.000 C 
ATOM     41  O   UNL     1      -5.099  15.715  24.245  0.00  0.00    +0.000 OA
ENDBRANCH  30  41
ENDBRANCH  29  38
ENDBRANCH   1  29
TORSDOF 5
ENDMDL
MODEL 7
REMARK VINA RESULT:     -10.3      2.859      9.945
REMARK  Name = 
REMARK  6 active torsions:
REMARK  status: ('A' for Active; 'I' for Inactive)
REMARK    1  A    between atoms: C_1  and  O_2
REMARK    2  A    between atoms: O_2  and  C_3
REMARK    3  A    between atoms: N_11  and  C_12
REMARK    4  A    between atoms: C_12  and  C_13
REMARK    5  A    between atoms: C_13  and  C_14
REMARK    6  A    between atoms: C_15  and  C_16
REMARK                            x       y       z     vdW  Elec       q    Type
REMARK                         _______ _______ _______ _____ _____    ______ ____
ROOT
ATOM      1  C   UNL     1       0.184  11.726  19.504  0.00  0.00    +0.000 C 
ATOM      2  N   UNL     1       0.527  12.201  20.823  0.00  0.00    +0.000 N 
ATOM      3  C   UNL     1      -0.456  11.940  21.743  0.00  0.00    +0.000 C 
ATOM      4  O   UNL     1      -0.415  12.223  22.926  0.00  0.00    +0.000 OA
ATOM      5  N   UNL     1      -1.510  11.382  21.101  0.00  0.00    +0.000 N 
ATOM      6  C   UNL     1      -1.304  11.417  19.752  0.00  0.00    +0.000 C 
ATOM      7  O   UNL     1      -2.154  11.168  18.906  0.00  0.00    +0.000 OA
ATOM      8  H   UNL     1       1.292  12.835  21.033  0.00  0.00    +0.000 HD
ATOM      9  H   UNL     1      -2.391  11.204  21.548  0.00  0.00    +0.000 HD
ENDROOT
BRANCH   1  10
ATOM     10  C   UNL     1       0.889  10.390  19.338  0.00  0.00    +0.000 C 
ATOM     11  C   UNL     1       1.493   9.243  19.195  0.00  0.00    +0.000 C 
BRANCH  11  12
ATOM     12  C   UNL     1       2.135   7.969  19.059  0.00  0.00    +0.000 A 
ATOM     13  C   UNL     1       1.876   6.946  19.986  0.00  0.00    +0.000 A 
ATOM     14  C   UNL     1       2.468   5.685  19.841  0.00  0.00    +0.000 A 
ATOM     15  C   UNL     1       3.313   5.459  18.762  0.00  0.00    +0.000 A 
ATOM     16  C   UNL     1       3.582   6.482  17.850  0.00  0.00    +0.000 A 
ATOM     17  C   UNL     1       3.002   7.739  17.987  0.00  0.00    +0.000 A 
ATOM     18  C   UNL     1       4.499   6.036  16.759  0.00  0.00    +0.000 C 
ATOM     19  C   UNL     1       4.831   4.578  17.122  0.00  0.00    +0.000 C 
ATOM     20  C   UNL     1       4.021   4.197  18.375  0.00  0.00    +0.000 C 
ATOM     21  N   UNL     1       4.849   3.657  19.424  0.00  0.00    +0.000 N 
ATOM     22  C   UNL     1       4.537   2.352  19.709  0.00  0.00    +0.000 C 
ATOM     23  O   UNL     1       5.105   1.660  20.535  0.00  0.00    +0.000 OA
ATOM     24  N   UNL     1       3.500   1.972  18.927  0.00  0.00    +0.000 N 
ATOM     25  C   UNL     1       3.102   2.989  18.116  0.00  0.00    +0.000 C 
ATOM     26  O   UNL     1       2.187   2.921  17.307  0.00  0.00    +0.000 OA
ATOM     27  H   UNL     1       5.587   4.148  19.909  0.00  0.00    +0.000 HD
ATOM     28  H   UNL     1       3.077   1.061  18.952  0.00  0.00    +0.000 HD
ENDBRANCH  11  12
ENDBRANCH   1  10
BRANCH   1  29
ATOM     29  C   UNL     1       0.449  12.661  18.321  0.00  0.00    +0.000 C 
BRANCH  29  38
ATOM     30  C   UNL     1       4.732  16.821  19.169  0.00  0.00    +0.000 A 
ATOM     31  C   UNL     1       5.576  15.874  18.552  0.00  0.00    +0.000 A 
ATOM     32  C   UNL     1       5.095  14.624  18.123  0.00  0.00    +0.000 A 
ATOM     33  C   UNL     1       3.759  14.341  18.330  0.00  0.00    +0.000 A 
ATOM     34  C   UNL     1       2.951  15.280  18.970  0.00  0.00    +0.000 A 
ATOM     35  C   UNL     1       3.391  16.517  19.384  0.00  0.00    +0.000 A 
ATOM     36  C   UNL     1       1.606  14.732  19.098  0.00  0.00    +0.000 C 
ATOM     37  O   UNL     1       0.673  15.280  19.655  0.00  0.00    +0.000 OA
ATOM     38  N   UNL     1       1.623  13.507  18.466  0.00  0.00    +0.000 N 
ATOM     39  C   UNL     1       2.945  13.140  17.971  0.00  0.00    +0.000 C 
BRANCH  30  41
ATOM     40  C   UNL     1       6.209  17.954  20.635  0.00  0.00    +0.000 C 
ATOM     41  O   UNL     1       5.326  18.006  19.516  0.00  0.00    +0.000 OA
ENDBRANCH  30  41
ENDBRANCH  29  38
ENDBRANCH   1  29
TORSDOF 5
ENDMDL
MODEL 8
REMARK VINA RESULT:     -10.3      3.087     11.517
REMARK  Name = 
REMARK  6 active torsions:
REMARK  status: ('A' for Active; 'I' for Inactive)
REMARK    1  A    between atoms: C_1  and  O_2
REMARK    2  A    between atoms: O_2  and  C_3
REMARK    3  A    between atoms: N_11  and  C_12
REMARK    4  A    between atoms: C_12  and  C_13
REMARK    5  A    between atoms: C_13  and  C_14
REMARK    6  A    between atoms: C_15  and  C_16
REMARK                            x       y       z     vdW  Elec       q    Type
REMARK                         _______ _______ _______ _____ _____    ______ ____
ROOT
ATOM      1  C   UNL     1      -0.387  11.690  19.724  0.00  0.00    +0.000 C 
ATOM      2  N   UNL     1      -1.720  11.414  19.246  0.00  0.00    +0.000 N 
ATOM      3  C   UNL     1      -1.910  11.843  17.957  0.00  0.00    +0.000 C 
ATOM      4  O   UNL     1      -2.936  11.723  17.312  0.00  0.00    +0.000 OA
ATOM      5  N   UNL     1      -0.792  12.487  17.548  0.00  0.00    +0.000 N 
ATOM      6  C   UNL     1       0.072  12.631  18.595  0.00  0.00    +0.000 C 
ATOM      7  O   UNL     1       1.072  13.336  18.587  0.00  0.00    +0.000 OA
ATOM      8  H   UNL     1      -2.502  11.133  19.829  0.00  0.00    +0.000 HD
ATOM      9  H   UNL     1      -0.735  12.984  16.676  0.00  0.00    +0.000 HD
ENDROOT
BRANCH   1  10
ATOM     10  C   UNL     1       0.396  10.397  19.564  0.00  0.00    +0.000 C 
ATOM     11  C   UNL     1       1.068   9.288  19.426  0.00  0.00    +0.000 C 
BRANCH  11  12
ATOM     12  C   UNL     1       1.798   8.068  19.242  0.00  0.00    +0.000 A 
ATOM     13  C   UNL     1       1.587   6.983  20.108  0.00  0.00    +0.000 A 
ATOM     14  C   UNL     1       2.266   5.773  19.917  0.00  0.00    +0.000 A 
ATOM     15  C   UNL     1       3.150   5.661  18.851  0.00  0.00    +0.000 A 
ATOM     16  C   UNL     1       3.371   6.746  18.000  0.00  0.00    +0.000 A 
ATOM     17  C   UNL     1       2.704   7.953  18.184  0.00  0.00    +0.000 A 
ATOM     18  C   UNL     1       4.342   6.420  16.914  0.00  0.00    +0.000 C 
ATOM     19  C   UNL     1       4.763   4.970  17.210  0.00  0.00    +0.000 C 
ATOM     20  C   UNL     1       3.951   4.471  18.420  0.00  0.00    +0.000 C 
ATOM     21  N   UNL     1       4.788   3.933  19.462  0.00  0.00    +0.000 N 
ATOM     22  C   UNL     1       4.559   2.597  19.673  0.00  0.00    +0.000 C 
ATOM     23  O   UNL     1       5.152   1.901  20.477  0.00  0.00    +0.000 OA
ATOM     24  N   UNL     1       3.569   2.191  18.843  0.00  0.00    +0.000 N 
ATOM     25  C   UNL     1       3.123   3.220  18.075  0.00  0.00    +0.000 C 
ATOM     26  O   UNL     1       2.235   3.134  17.238  0.00  0.00    +0.000 OA
ATOM     27  H   UNL     1       5.479   4.445  19.992  0.00  0.00    +0.000 HD
ATOM     28  H   UNL     1       3.208   1.253  18.811  0.00  0.00    +0.000 HD
ENDBRANCH  11  12
ENDBRANCH   1  10
BRANCH   1  29
ATOM     29  C   UNL     1      -0.244  12.272  21.133  0.00  0.00    +0.000 C 
BRANCH  29  38
ATOM     30  C   UNL     1      -5.458  13.497  23.903  0.00  0.00    +0.000 A 
ATOM     31  C   UNL     1      -5.424  14.682  23.137  0.00  0.00    +0.000 A 
ATOM     32  C   UNL     1      -4.363  14.962  22.258  0.00  0.00    +0.000 A 
ATOM     33  C   UNL     1      -3.339  14.039  22.167  0.00  0.00    +0.000 A 
ATOM     34  C   UNL     1      -3.379  12.891  22.956  0.00  0.00    +0.000 A 
ATOM     35  C   UNL     1      -4.413  12.583  23.812  0.00  0.00    +0.000 A 
ATOM     36  C   UNL     1      -2.177  12.106  22.703  0.00  0.00    +0.000 C 
ATOM     37  O   UNL     1      -1.881  11.070  23.269  0.00  0.00    +0.000 OA
ATOM     38  N   UNL     1      -1.481  12.767  21.714  0.00  0.00    +0.000 N 
ATOM     39  C   UNL     1      -2.107  14.025  21.321  0.00  0.00    +0.000 C 
BRANCH  30  41
ATOM     40  C   UNL     1      -7.791  13.823  24.162  0.00  0.00    +0.000 C 
ATOM     41  O   UNL     1      -6.561  13.339  24.700  0.00  0.00    +0.000 OA
ENDBRANCH  30  41
ENDBRANCH  29  38
ENDBRANCH   1  29
TORSDOF 5
ENDMDL
MODEL 9
REMARK VINA RESULT:     -10.3      1.503      2.387
REMARK  Name = 
REMARK  6 active torsions:
REMARK  status: ('A' for Active; 'I' for Inactive)
REMARK    1  A    between atoms: C_1  and  O_2
REMARK    2  A    between atoms: O_2  and  C_3
REMARK    3  A    between atoms: N_11  and  C_12
REMARK    4  A    between atoms: C_12  and  C_13
REMARK    5  A    between atoms: C_13  and  C_14
REMARK    6  A    between atoms: C_15  and  C_16
REMARK                            x       y       z     vdW  Elec       q    Type
REMARK                         _______ _______ _______ _____ _____    ______ ____
ROOT
ATOM      1  C   UNL     1       2.657   4.240  20.066  0.00  0.00    +0.000 C 
ATOM      2  N   UNL     1       1.904   3.635  18.993  0.00  0.00    +0.000 N 
ATOM      3  C   UNL     1       0.836   2.907  19.453  0.00  0.00    +0.000 C 
ATOM      4  O   UNL     1       0.034   2.308  18.760  0.00  0.00    +0.000 OA
ATOM      5  N   UNL     1       0.866   2.906  20.807  0.00  0.00    +0.000 N 
ATOM      6  C   UNL     1       2.022   3.484  21.247  0.00  0.00    +0.000 C 
ATOM      7  O   UNL     1       2.425   3.455  22.403  0.00  0.00    +0.000 OA
ATOM      8  H   UNL     1       2.217   3.562  18.030  0.00  0.00    +0.000 HD
ATOM      9  H   UNL     1       0.247   2.348  21.367  0.00  0.00    +0.000 HD
ENDROOT
BRANCH   1  10
ATOM     10  C   UNL     1       2.181   5.680  20.157  0.00  0.00    +0.000 C 
ATOM     11  C   UNL     1       1.774   6.917  20.236  0.00  0.00    +0.000 C 
BRANCH  11  12
ATOM     12  C   UNL     1       1.332   8.275  20.355  0.00  0.00    +0.000 A 
ATOM     13  C   UNL     1       0.933   8.779  21.603  0.00  0.00    +0.000 A 
ATOM     14  C   UNL     1       0.535  10.115  21.740  0.00  0.00    +0.000 A 
ATOM     15  C   UNL     1       0.545  10.937  20.620  0.00  0.00    +0.000 A 
ATOM     16  C   UNL     1       0.927  10.429  19.376  0.00  0.00    +0.000 A 
ATOM     17  C   UNL     1       1.321   9.103  19.230  0.00  0.00    +0.000 A 
ATOM     18  C   UNL     1       0.884  11.471  18.307  0.00  0.00    +0.000 C 
ATOM     19  C   UNL     1       0.367  12.728  19.028  0.00  0.00    +0.000 C 
ATOM     20  C   UNL     1       0.208  12.394  20.523  0.00  0.00    +0.000 C 
ATOM     21  N   UNL     1      -1.105  12.714  21.023  0.00  0.00    +0.000 N 
ATOM     22  C   UNL     1      -1.068  13.690  21.986  0.00  0.00    +0.000 C 
ATOM     23  O   UNL     1      -2.041  14.159  22.549  0.00  0.00    +0.000 OA
ATOM     24  N   UNL     1       0.223  14.036  22.204  0.00  0.00    +0.000 N 
ATOM     25  C   UNL     1       1.061  13.318  21.410  0.00  0.00    +0.000 C 
ATOM     26  O   UNL     1       2.279  13.429  21.399  0.00  0.00    +0.000 OA
ATOM     27  H   UNL     1      -1.974  12.297  20.720  0.00  0.00    +0.000 HD
ATOM     28  H   UNL     1       0.518  14.726  22.873  0.00  0.00    +0.000 HD
ENDBRANCH  11  12
ENDBRANCH   1  10
BRANCH   1  29
ATOM     29  C   UNL     1       4.184   4.148  20.000  0.00  0.00    +0.000 C 
BRANCH  29  38
ATOM     30  C   UNL     1       6.351   4.128  14.373  0.00  0.00    +0.000 A 
ATOM     31  C   UNL     1       6.838   5.410  14.706  0.00  0.00    +0.000 A 
ATOM     32  C   UNL     1       6.609   5.981  15.971  0.00  0.00    +0.000 A 
ATOM     33  C   UNL     1       5.880   5.248  16.887  0.00  0.00    +0.000 A 
ATOM     34  C   UNL     1       5.383   3.997  16.525  0.00  0.00    +0.000 A 
ATOM     35  C   UNL     1       5.606   3.407  15.301  0.00  0.00    +0.000 A 
ATOM     36  C   UNL     1       4.626   3.450  17.645  0.00  0.00    +0.000 C 
ATOM     37  O   UNL     1       4.021   2.395  17.637  0.00  0.00    +0.000 OA
ATOM     38  N   UNL     1       4.750   4.356  18.677  0.00  0.00    +0.000 N 
ATOM     39  C   UNL     1       5.496   5.551  18.300  0.00  0.00    +0.000 C 
BRANCH  30  41
ATOM     40  C   UNL     1       5.560   3.355  12.277  0.00  0.00    +0.000 C 
ATOM     41  O   UNL     1       6.667   3.684  13.116  0.00  0.00    +0.000 OA
ENDBRANCH  30  41
ENDBRANCH  29  38
ENDBRANCH   1  29
TORSDOF 5
ENDMDL
