MODEL 1
REMARK VINA RESULT:      -7.5      0.000      0.000
REMARK  Name = 
REMARK  3 active torsions:
REMARK  status: ('A' for Active; 'I' for Inactive)
REMARK    1  A    between atoms: C_2  and  C_3
REMARK    2  A    between atoms: C_2  and  C_9
REMARK    3  A    between atoms: C_19  and  C_20
REMARK                            x       y       z     vdW  Elec       q    Type
REMARK                         _______ _______ _______ _____ _____    ______ ____
ROOT
ATOM      1  C   UNL     1      -2.139  12.571  19.975  0.00  0.00    +0.000 A 
ATOM      2  C   UNL     1      -1.621  13.759  20.542  0.00  0.00    +0.000 A 
ATOM      3  C   UNL     1      -2.487  14.788  21.027  0.00  0.00    +0.000 A 
ATOM      4  C   UNL     1      -3.827  14.400  21.126  0.00  0.00    +0.000 A 
ATOM      5  C   UNL     1      -4.166  13.074  20.915  0.00  0.00    +0.000 A 
ATOM      6  C   UNL     1      -3.508  12.340  19.967  0.00  0.00    +0.000 A 
ATOM      7  N   UNL     1      -5.024  12.654  21.896  0.00  0.00    +0.000 NA
ATOM      8  C   UNL     1      -5.410  13.774  22.471  0.00  0.00    +0.000 A 
ATOM      9  S   UNL     1      -7.040  13.946  23.049  0.00  0.00    +0.000 S 
ATOM     10  C   UNL     1      -7.419  14.469  21.393  0.00  0.00    +0.000 A 
ATOM     11  C   UNL     1      -7.916  13.569  20.497  0.00  0.00    +0.000 C 
ATOM     12  C   UNL     1      -6.189  15.256  20.899  0.00  0.00    +0.000 A 
ATOM     13  O   UNL     1      -6.106  16.045  19.978  0.00  0.00    +0.000 OA
ATOM     14  N   UNL     1      -5.056  14.813  21.631  0.00  0.00    +0.000 N 
ENDROOT
BRANCH  11  15
ATOM     15  C   UNL     1      -7.534  12.118  20.303  0.00  0.00    +0.000 A 
ATOM     16  C   UNL     1      -7.885  11.093  21.207  0.00  0.00    +0.000 A 
ATOM     17  C   UNL     1      -7.621   9.751  20.920  0.00  0.00    +0.000 A 
ATOM     18  C   UNL     1      -7.013   9.398  19.725  0.00  0.00    +0.000 A 
ATOM     19  F   UNL     1      -6.798   8.110  19.426  0.00  0.00    +0.000 F 
ATOM     20  C   UNL     1      -6.631  10.395  18.825  0.00  0.00    +0.000 A 
ATOM     21  C   UNL     1      -6.892  11.740  19.114  0.00  0.00    +0.000 A 
ENDBRANCH  11  15
BRANCH   1  23
ATOM     22  O   UNL     1      -1.596  10.859  18.483  0.00  0.00    +0.000 OA
ATOM     23  C   UNL     1      -1.419  11.323  19.620  0.00  0.00    +0.000 C 
BRANCH  23  24
ATOM     24  C   UNL     1      -0.501  10.547  20.445  0.00  0.00    +0.000 A 
ATOM     25  C   UNL     1       0.412   9.637  19.921  0.00  0.00    +0.000 A 
ATOM     26  C   UNL     1       1.123   8.822  20.798  0.00  0.00    +0.000 A 
ATOM     27  C   UNL     1       0.908   8.913  22.184  0.00  0.00    +0.000 A 
ATOM     28  C   UNL     1       0.000   9.812  22.699  0.00  0.00    +0.000 A 
ATOM     29  C   UNL     1      -0.704  10.635  21.835  0.00  0.00    +0.000 A 
ENDBRANCH  23  24
ENDBRANCH   1  23
TORSDOF 3
ENDMDL
MODEL 2
REMARK VINA RESULT:      -7.5      2.785      4.693
REMARK  Name = 
REMARK  3 active torsions:
REMARK  status: ('A' for Active; 'I' for Inactive)
REMARK    1  A    between atoms: C_2  and  C_3
REMARK    2  A    between atoms: C_2  and  C_9
REMARK    3  A    between atoms: C_19  and  C_20
REMARK                            x       y       z     vdW  Elec       q    Type
REMARK                         _______ _______ _______ _____ _____    ______ ____
ROOT
ATOM      1  C   UNL     1      -5.143  11.644  18.889  0.00  0.00    +0.000 A 
ATOM      2  C   UNL     1      -6.527  11.668  18.591  0.00  0.00    +0.000 A 
ATOM      3  C   UNL     1      -7.499  11.917  19.609  0.00  0.00    +0.000 A 
ATOM      4  C   UNL     1      -6.955  12.380  20.811  0.00  0.00    +0.000 A 
ATOM      5  C   UNL     1      -5.609  12.700  20.867  0.00  0.00    +0.000 A 
ATOM      6  C   UNL     1      -4.698  11.960  20.164  0.00  0.00    +0.000 A 
ATOM      7  N   UNL     1      -5.445  13.901  21.502  0.00  0.00    +0.000 NA
ATOM      8  C   UNL     1      -6.615  14.117  22.066  0.00  0.00    +0.000 A 
ATOM      9  S   UNL     1      -6.712  14.882  23.624  0.00  0.00    +0.000 S 
ATOM     10  C   UNL     1      -6.508  13.242  24.280  0.00  0.00    +0.000 A 
ATOM     11  C   UNL     1      -5.270  12.813  24.656  0.00  0.00    +0.000 C 
ATOM     12  C   UNL     1      -7.251  12.298  23.315  0.00  0.00    +0.000 A 
ATOM     13  O   UNL     1      -7.643  11.163  23.506  0.00  0.00    +0.000 OA
ATOM     14  N   UNL     1      -7.312  12.923  22.042  0.00  0.00    +0.000 N 
ENDROOT
BRANCH  11  15
ATOM     15  C   UNL     1      -3.938  13.063  23.983  0.00  0.00    +0.000 A 
ATOM     16  C   UNL     1      -3.312  14.327  23.942  0.00  0.00    +0.000 A 
ATOM     17  C   UNL     1      -2.024  14.482  23.421  0.00  0.00    +0.000 A 
ATOM     18  C   UNL     1      -1.327  13.384  22.942  0.00  0.00    +0.000 A 
ATOM     19  F   UNL     1      -0.076  13.520  22.484  0.00  0.00    +0.000 F 
ATOM     20  C   UNL     1      -1.934  12.126  22.946  0.00  0.00    +0.000 A 
ATOM     21  C   UNL     1      -3.226  11.971  23.464  0.00  0.00    +0.000 A 
ENDBRANCH  11  15
BRANCH   1  23
ATOM     22  O   UNL     1      -4.235  11.772  16.742  0.00  0.00    +0.000 OA
ATOM     23  C   UNL     1      -3.995  11.617  17.949  0.00  0.00    +0.000 C 
BRANCH  23  24
ATOM     24  C   UNL     1      -2.582  11.433  18.258  0.00  0.00    +0.000 A 
ATOM     25  C   UNL     1      -1.926  10.212  18.132  0.00  0.00    +0.000 A 
ATOM     26  C   UNL     1      -0.624  10.099  18.613  0.00  0.00    +0.000 A 
ATOM     27  C   UNL     1       0.004  11.196  19.227  0.00  0.00    +0.000 A 
ATOM     28  C   UNL     1      -0.650  12.402  19.356  0.00  0.00    +0.000 A 
ATOM     29  C   UNL     1      -1.942  12.527  18.869  0.00  0.00    +0.000 A 
ENDBRANCH  23  24
ENDBRANCH   1  23
TORSDOF 3
ENDMDL
MODEL 3
REMARK VINA RESULT:      -7.4      1.187      1.553
REMARK  Name = 
REMARK  3 active torsions:
REMARK  status: ('A' for Active; 'I' for Inactive)
REMARK    1  A    between atoms: C_2  and  C_3
REMARK    2  A    between atoms: C_2  and  C_9
REMARK    3  A    between atoms: C_19  and  C_20
REMARK                            x       y       z     vdW  Elec       q    Type
REMARK                         _______ _______ _______ _____ _____    ______ ____
ROOT
ATOM      1  C   UNL     1      -2.092  13.225  21.309  0.00  0.00    +0.000 A 
ATOM      2  C   UNL     1      -1.665  14.155  22.287  0.00  0.00    +0.000 A 
ATOM      3  C   UNL     1      -2.603  14.974  22.989  0.00  0.00    +0.000 A 
ATOM      4  C   UNL     1      -3.936  14.585  22.815  0.00  0.00    +0.000 A 
ATOM      5  C   UNL     1      -4.216  13.406  22.146  0.00  0.00    +0.000 A 
ATOM      6  C   UNL     1      -3.445  13.020  21.084  0.00  0.00    +0.000 A 
ATOM      7  N   UNL     1      -5.157  12.693  22.839  0.00  0.00    +0.000 NA
ATOM      8  C   UNL     1      -5.629  13.563  23.706  0.00  0.00    +0.000 A 
ATOM      9  S   UNL     1      -7.313  13.549  24.137  0.00  0.00    +0.000 S 
ATOM     10  C   UNL     1      -7.536  14.591  22.714  0.00  0.00    +0.000 A 
ATOM     11  C   UNL     1      -7.916  14.041  21.526  0.00  0.00    +0.000 C 
ATOM     12  C   UNL     1      -6.285  15.487  22.637  0.00  0.00    +0.000 A 
ATOM     13  O   UNL     1      -6.130  16.535  22.042  0.00  0.00    +0.000 OA
ATOM     14  N   UNL     1      -5.220  14.819  23.297  0.00  0.00    +0.000 N 
ENDROOT
BRANCH  11  15
ATOM     15  C   UNL     1      -7.478  12.732  20.906  0.00  0.00    +0.000 A 
ATOM     16  C   UNL     1      -7.875  11.469  21.393  0.00  0.00    +0.000 A 
ATOM     17  C   UNL     1      -7.549  10.294  20.711  0.00  0.00    +0.000 A 
ATOM     18  C   UNL     1      -6.832  10.349  19.526  0.00  0.00    +0.000 A 
ATOM     19  F   UNL     1      -6.556   9.228  18.846  0.00  0.00    +0.000 F 
ATOM     20  C   UNL     1      -6.403  11.584  19.036  0.00  0.00    +0.000 A 
ATOM     21  C   UNL     1      -6.726  12.761  19.722  0.00  0.00    +0.000 A 
ENDBRANCH  11  15
BRANCH   1  23
ATOM     22  O   UNL     1      -1.080  12.284  19.428  0.00  0.00    +0.000 OA
ATOM     23  C   UNL     1      -1.306  12.157  20.641  0.00  0.00    +0.000 C 
BRANCH  23  24
ATOM     24  C   UNL     1      -0.742  10.950  21.232  0.00  0.00    +0.000 A 
ATOM     25  C   UNL     1      -0.794  10.671  22.594  0.00  0.00    +0.000 A 
ATOM     26  C   UNL     1      -0.079   9.580  23.081  0.00  0.00    +0.000 A 
ATOM     27  C   UNL     1       0.690   8.788  22.211  0.00  0.00    +0.000 A 
ATOM     28  C   UNL     1       0.744   9.071  20.864  0.00  0.00    +0.000 A 
ATOM     29  C   UNL     1       0.026  10.148  20.368  0.00  0.00    +0.000 A 
ENDBRANCH  23  24
ENDBRANCH   1  23
TORSDOF 3
ENDMDL
MODEL 4
REMARK VINA RESULT:      -7.3      2.756      4.491
REMARK  Name = 
REMARK  3 active torsions:
REMARK  status: ('A' for Active; 'I' for Inactive)
REMARK    1  A    between atoms: C_2  and  C_3
REMARK    2  A    between atoms: C_2  and  C_9
REMARK    3  A    between atoms: C_19  and  C_20
REMARK                            x       y       z     vdW  Elec       q    Type
REMARK                         _______ _______ _______ _____ _____    ______ ____
ROOT
ATOM      1  C   UNL     1      -4.023  11.436  18.199  0.00  0.00    +0.000 A 
ATOM      2  C   UNL     1      -5.293  11.336  17.582  0.00  0.00    +0.000 A 
ATOM      3  C   UNL     1      -6.494  11.592  18.313  0.00  0.00    +0.000 A 
ATOM      4  C   UNL     1      -6.281  12.185  19.562  0.00  0.00    +0.000 A 
ATOM      5  C   UNL     1      -5.007  12.606  19.904  0.00  0.00    +0.000 A 
ATOM      6  C   UNL     1      -3.917  11.881  19.509  0.00  0.00    +0.000 A 
ATOM      7  N   UNL     1      -5.065  13.861  20.447  0.00  0.00    +0.000 NA
ATOM      8  C   UNL     1      -6.346  14.034  20.694  0.00  0.00    +0.000 A 
ATOM      9  S   UNL     1      -6.856  14.909  22.107  0.00  0.00    +0.000 S 
ATOM     10  C   UNL     1      -6.733  13.344  22.943  0.00  0.00    +0.000 A 
ATOM     11  C   UNL     1      -5.602  13.037  23.639  0.00  0.00    +0.000 C 
ATOM     12  C   UNL     1      -7.171  12.276  21.921  0.00  0.00    +0.000 A 
ATOM     13  O   UNL     1      -7.538  11.135  22.117  0.00  0.00    +0.000 OA
ATOM     14  N   UNL     1      -6.953  12.795  20.617  0.00  0.00    +0.000 N 
ENDROOT
BRANCH  11  15
ATOM     15  C   UNL     1      -4.161  13.329  23.280  0.00  0.00    +0.000 A 
ATOM     16  C   UNL     1      -3.604  14.626  23.293  0.00  0.00    +0.000 A 
ATOM     17  C   UNL     1      -2.238  14.830  23.079  0.00  0.00    +0.000 A 
ATOM     18  C   UNL     1      -1.396  13.751  22.859  0.00  0.00    +0.000 A 
ATOM     19  F   UNL     1      -0.080  13.939  22.698  0.00  0.00    +0.000 F 
ATOM     20  C   UNL     1      -1.926  12.460  22.814  0.00  0.00    +0.000 A 
ATOM     21  C   UNL     1      -3.295  12.256  23.024  0.00  0.00    +0.000 A 
ENDBRANCH  11  15
BRANCH   1  23
ATOM     22  O   UNL     1      -2.631  11.347  16.328  0.00  0.00    +0.000 OA
ATOM     23  C   UNL     1      -2.681  11.419  17.565  0.00  0.00    +0.000 C 
BRANCH  23  24
ATOM     24  C   UNL     1      -1.377  11.483  18.214  0.00  0.00    +0.000 A 
ATOM     25  C   UNL     1      -0.804  10.405  18.881  0.00  0.00    +0.000 A 
ATOM     26  C   UNL     1       0.363  10.615  19.612  0.00  0.00    +0.000 A 
ATOM     27  C   UNL     1       0.937  11.896  19.682  0.00  0.00    +0.000 A 
ATOM     28  C   UNL     1       0.363  12.962  19.025  0.00  0.00    +0.000 A 
ATOM     29  C   UNL     1      -0.792  12.761  18.285  0.00  0.00    +0.000 A 
ENDBRANCH  23  24
ENDBRANCH   1  23
TORSDOF 3
ENDMDL
MODEL 5
REMARK VINA RESULT:      -7.3      2.769      4.544
REMARK  Name = 
REMARK  3 active torsions:
REMARK  status: ('A' for Active; 'I' for Inactive)
REMARK    1  A    between atoms: C_2  and  C_3
REMARK    2  A    between atoms: C_2  and  C_9
REMARK    3  A    between atoms: C_19  and  C_20
REMARK                            x       y       z     vdW  Elec       q    Type
REMARK                         _______ _______ _______ _____ _____    ______ ____
ROOT
ATOM      1  C   UNL     1      -4.033  11.683  18.489  0.00  0.00    +0.000 A 
ATOM      2  C   UNL     1      -5.350  11.878  18.009  0.00  0.00    +0.000 A 
ATOM      3  C   UNL     1      -6.411  12.252  18.890  0.00  0.00    +0.000 A 
ATOM      4  C   UNL     1      -5.979  12.651  20.160  0.00  0.00    +0.000 A 
ATOM      5  C   UNL     1      -4.624  12.801  20.398  0.00  0.00    +0.000 A 
ATOM      6  C   UNL     1      -3.726  11.948  19.816  0.00  0.00    +0.000 A 
ATOM      7  N   UNL     1      -4.398  13.976  21.063  0.00  0.00    +0.000 NA
ATOM      8  C   UNL     1      -5.597  14.339  21.467  0.00  0.00    +0.000 A 
ATOM      9  S   UNL     1      -5.806  15.120  23.006  0.00  0.00    +0.000 S 
ATOM     10  C   UNL     1      -5.899  13.472  23.666  0.00  0.00    +0.000 A 
ATOM     11  C   UNL     1      -4.785  12.893  24.200  0.00  0.00    +0.000 C 
ATOM     12  C   UNL     1      -6.618  12.622  22.600  0.00  0.00    +0.000 A 
ATOM     13  O   UNL     1      -7.170  11.547  22.724  0.00  0.00    +0.000 OA
ATOM     14  N   UNL     1      -6.428  13.242  21.337  0.00  0.00    +0.000 N 
ENDROOT
BRANCH  11  15
ATOM     15  C   UNL     1      -3.354  12.970  23.714  0.00  0.00    +0.000 A 
ATOM     16  C   UNL     1      -2.670  11.881  23.135  0.00  0.00    +0.000 A 
ATOM     17  C   UNL     1      -1.394  12.036  22.585  0.00  0.00    +0.000 A 
ATOM     18  C   UNL     1      -0.777  13.277  22.589  0.00  0.00    +0.000 A 
ATOM     19  F   UNL     1       0.426  13.440  22.023  0.00  0.00    +0.000 F 
ATOM     20  C   UNL     1      -1.422  14.366  23.179  0.00  0.00    +0.000 A 
ATOM     21  C   UNL     1      -2.698  14.210  23.734  0.00  0.00    +0.000 A 
ENDBRANCH  11  15
BRANCH   1  23
ATOM     22  O   UNL     1      -2.882  11.354  16.485  0.00  0.00    +0.000 OA
ATOM     23  C   UNL     1      -2.781  11.506  17.712  0.00  0.00    +0.000 C 
BRANCH  23  24
ATOM     24  C   UNL     1      -1.409  11.492  18.204  0.00  0.00    +0.000 A 
ATOM     25  C   UNL     1      -0.826  10.381  18.807  0.00  0.00    +0.000 A 
ATOM     26  C   UNL     1       0.428  10.521  19.397  0.00  0.00    +0.000 A 
ATOM     27  C   UNL     1       1.081  11.766  19.392  0.00  0.00    +0.000 A 
ATOM     28  C   UNL     1       0.498  12.864  18.799  0.00  0.00    +0.000 A 
ATOM     29  C   UNL     1      -0.744  12.733  18.200  0.00  0.00    +0.000 A 
ENDBRANCH  23  24
ENDBRANCH   1  23
TORSDOF 3
ENDMDL
MODEL 6
REMARK VINA RESULT:      -7.2      3.082      5.609
REMARK  Name = 
REMARK  3 active torsions:
REMARK  status: ('A' for Active; 'I' for Inactive)
REMARK    1  A    between atoms: C_2  and  C_3
REMARK    2  A    between atoms: C_2  and  C_9
REMARK    3  A    between atoms: C_19  and  C_20
REMARK                            x       y       z     vdW  Elec       q    Type
REMARK                         _______ _______ _______ _____ _____    ______ ____
ROOT
ATOM      1  C   UNL     1      -6.132  11.730  19.614  0.00  0.00    +0.000 A 
ATOM      2  C   UNL     1      -7.343  11.663  20.343  0.00  0.00    +0.000 A 
ATOM      3  C   UNL     1      -7.401  12.042  21.720  0.00  0.00    +0.000 A 
ATOM      4  C   UNL     1      -6.257  12.711  22.172  0.00  0.00    +0.000 A 
ATOM      5  C   UNL     1      -5.282  13.078  21.259  0.00  0.00    +0.000 A 
ATOM      6  C   UNL     1      -4.992  12.263  20.200  0.00  0.00    +0.000 A 
ATOM      7  N   UNL     1      -4.896  14.370  21.491  0.00  0.00    +0.000 NA
ATOM      8  C   UNL     1      -5.399  14.637  22.677  0.00  0.00    +0.000 A 
ATOM      9  S   UNL     1      -4.525  15.641  23.795  0.00  0.00    +0.000 S 
ATOM     10  C   UNL     1      -3.717  14.136  24.290  0.00  0.00    +0.000 A 
ATOM     11  C   UNL     1      -2.505  13.813  23.755  0.00  0.00    +0.000 C 
ATOM     12  C   UNL     1      -4.781  13.026  24.192  0.00  0.00    +0.000 A 
ATOM     13  O   UNL     1      -4.787  11.926  24.708  0.00  0.00    +0.000 OA
ATOM     14  N   UNL     1      -5.764  13.435  23.253  0.00  0.00    +0.000 N 
ENDROOT
BRANCH  11  15
ATOM     15  C   UNL     1      -2.020  13.992  22.333  0.00  0.00    +0.000 A 
ATOM     16  C   UNL     1      -1.701  15.247  21.772  0.00  0.00    +0.000 A 
ATOM     17  C   UNL     1      -1.136  15.349  20.498  0.00  0.00    +0.000 A 
ATOM     18  C   UNL     1      -0.865  14.207  19.760  0.00  0.00    +0.000 A 
ATOM     19  F   UNL     1      -0.282  14.298  18.557  0.00  0.00    +0.000 F 
ATOM     20  C   UNL     1      -1.195  12.954  20.280  0.00  0.00    +0.000 A 
ATOM     21  C   UNL     1      -1.766  12.853  21.555  0.00  0.00    +0.000 A 
ENDBRANCH  11  15
BRANCH   1  23
ATOM     22  O   UNL     1      -6.796  12.043  17.398  0.00  0.00    +0.000 OA
ATOM     23  C   UNL     1      -5.922  11.587  18.152  0.00  0.00    +0.000 C 
BRANCH  23  24
ATOM     24  C   UNL     1      -4.797  10.972  17.458  0.00  0.00    +0.000 A 
ATOM     25  C   UNL     1      -3.972  10.015  18.042  0.00  0.00    +0.000 A 
ATOM     26  C   UNL     1      -2.825   9.617  17.361  0.00  0.00    +0.000 A 
ATOM     27  C   UNL     1      -2.505  10.183  16.115  0.00  0.00    +0.000 A 
ATOM     28  C   UNL     1      -3.321  11.134  15.543  0.00  0.00    +0.000 A 
ATOM     29  C   UNL     1      -4.471  11.530  16.208  0.00  0.00    +0.000 A 
ENDBRANCH  23  24
ENDBRANCH   1  23
TORSDOF 3
ENDMDL
MODEL 7
REMARK VINA RESULT:      -7.2      3.154      6.586
REMARK  Name = 
REMARK  3 active torsions:
REMARK  status: ('A' for Active; 'I' for Inactive)
REMARK    1  A    between atoms: C_2  and  C_3
REMARK    2  A    between atoms: C_2  and  C_9
REMARK    3  A    between atoms: C_19  and  C_20
REMARK                            x       y       z     vdW  Elec       q    Type
REMARK                         _______ _______ _______ _____ _____    ______ ____
ROOT
ATOM      1  C   UNL     1      -4.019  11.374  17.707  0.00  0.00    +0.000 A 
ATOM      2  C   UNL     1      -3.322  10.679  16.690  0.00  0.00    +0.000 A 
ATOM      3  C   UNL     1      -1.900  10.540  16.728  0.00  0.00    +0.000 A 
ATOM      4  C   UNL     1      -1.328  10.906  17.952  0.00  0.00    +0.000 A 
ATOM      5  C   UNL     1      -2.153  11.202  19.024  0.00  0.00    +0.000 A 
ATOM      6  C   UNL     1      -3.338  11.852  18.818  0.00  0.00    +0.000 A 
ATOM      7  N   UNL     1      -1.692  10.573  20.149  0.00  0.00    +0.000 NA
ATOM      8  C   UNL     1      -0.480  10.184  19.813  0.00  0.00    +0.000 A 
ATOM      9  S   UNL     1       0.805  10.209  20.983  0.00  0.00    +0.000 S 
ATOM     10  C   UNL     1       1.029  11.901  20.487  0.00  0.00    +0.000 A 
ATOM     11  C   UNL     1       0.454  12.900  21.216  0.00  0.00    +0.000 C 
ATOM     12  C   UNL     1       0.727  11.950  18.977  0.00  0.00    +0.000 A 
ATOM     13  O   UNL     1       1.038  12.796  18.162  0.00  0.00    +0.000 OA
ATOM     14  N   UNL     1      -0.131  10.864  18.661  0.00  0.00    +0.000 N 
ENDROOT
BRANCH  11  15
ATOM     15  C   UNL     1      -0.910  12.929  21.871  0.00  0.00    +0.000 A 
ATOM     16  C   UNL     1      -1.963  13.763  21.438  0.00  0.00    +0.000 A 
ATOM     17  C   UNL     1      -3.242  13.661  21.992  0.00  0.00    +0.000 A 
ATOM     18  C   UNL     1      -3.504  12.723  22.978  0.00  0.00    +0.000 A 
ATOM     19  F   UNL     1      -4.739  12.592  23.481  0.00  0.00    +0.000 F 
ATOM     20  C   UNL     1      -2.473  11.904  23.443  0.00  0.00    +0.000 A 
ATOM     21  C   UNL     1      -1.191  12.008  22.891  0.00  0.00    +0.000 A 
ENDBRANCH  11  15
BRANCH   1  23
ATOM     22  O   UNL     1      -6.184  11.982  17.084  0.00  0.00    +0.000 OA
ATOM     23  C   UNL     1      -5.482  11.438  17.950  0.00  0.00    +0.000 C 
BRANCH  23  24
ATOM     24  C   UNL     1      -6.229  10.931  19.094  0.00  0.00    +0.000 A 
ATOM     25  C   UNL     1      -6.750   9.642  19.155  0.00  0.00    +0.000 A 
ATOM     26  C   UNL     1      -7.592   9.311  20.213  0.00  0.00    +0.000 A 
ATOM     27  C   UNL     1      -7.917  10.268  21.190  0.00  0.00    +0.000 A 
ATOM     28  C   UNL     1      -7.403  11.544  21.124  0.00  0.00    +0.000 A 
ATOM     29  C   UNL     1      -6.555  11.881  20.081  0.00  0.00    +0.000 A 
ENDBRANCH  23  24
ENDBRANCH   1  23
TORSDOF 3
ENDMDL
MODEL 8
REMARK VINA RESULT:      -7.1      1.715      2.255
REMARK  Name = 
REMARK  3 active torsions:
REMARK  status: ('A' for Active; 'I' for Inactive)
REMARK    1  A    between atoms: C_2  and  C_3
REMARK    2  A    between atoms: C_2  and  C_9
REMARK    3  A    between atoms: C_19  and  C_20
REMARK                            x       y       z     vdW  Elec       q    Type
REMARK                         _______ _______ _______ _____ _____    ______ ____
ROOT
ATOM      1  C   UNL     1      -2.167  12.673  22.587  0.00  0.00    +0.000 A 
ATOM      2  C   UNL     1      -1.872  13.594  23.620  0.00  0.00    +0.000 A 
ATOM      3  C   UNL     1      -2.827  14.573  24.035  0.00  0.00    +0.000 A 
ATOM      4  C   UNL     1      -4.114  14.359  23.529  0.00  0.00    +0.000 A 
ATOM      5  C   UNL     1      -4.384  13.190  22.837  0.00  0.00    +0.000 A 
ATOM      6  C   UNL     1      -3.434  12.641  22.021  0.00  0.00    +0.000 A 
ATOM      7  N   UNL     1      -5.564  12.655  23.277  0.00  0.00    +0.000 NA
ATOM      8  C   UNL     1      -6.109  13.632  23.972  0.00  0.00    +0.000 A 
ATOM      9  S   UNL     1      -7.830  13.872  23.949  0.00  0.00    +0.000 S 
ATOM     10  C   UNL     1      -7.529  14.847  22.493  0.00  0.00    +0.000 A 
ATOM     11  C   UNL     1      -7.671  14.283  21.260  0.00  0.00    +0.000 C 
ATOM     12  C   UNL     1      -6.182  15.559  22.724  0.00  0.00    +0.000 A 
ATOM     13  O   UNL     1      -5.728  16.538  22.166  0.00  0.00    +0.000 OA
ATOM     14  N   UNL     1      -5.430  14.793  23.654  0.00  0.00    +0.000 N 
ENDROOT
BRANCH  11  15
ATOM     15  C   UNL     1      -7.286  12.892  20.806  0.00  0.00    +0.000 A 
ATOM     16  C   UNL     1      -7.916  11.719  21.273  0.00  0.00    +0.000 A 
ATOM     17  C   UNL     1      -7.613  10.468  20.729  0.00  0.00    +0.000 A 
ATOM     18  C   UNL     1      -6.687  10.357  19.704  0.00  0.00    +0.000 A 
ATOM     19  F   UNL     1      -6.426   9.165  19.150  0.00  0.00    +0.000 F 
ATOM     20  C   UNL     1      -6.029  11.498  19.242  0.00  0.00    +0.000 A 
ATOM     21  C   UNL     1      -6.329  12.751  19.790  0.00  0.00    +0.000 A 
ENDBRANCH  11  15
BRANCH   1  23
ATOM     22  O   UNL     1      -1.174  10.608  23.033  0.00  0.00    +0.000 OA
ATOM     23  C   UNL     1      -1.402  11.471  22.171  0.00  0.00    +0.000 C 
BRANCH  23  24
ATOM     24  C   UNL     1      -0.872  11.151  20.852  0.00  0.00    +0.000 A 
ATOM     25  C   UNL     1      -1.493  11.534  19.667  0.00  0.00    +0.000 A 
ATOM     26  C   UNL     1      -1.002  11.035  18.463  0.00  0.00    +0.000 A 
ATOM     27  C   UNL     1       0.091  10.152  18.453  0.00  0.00    +0.000 A 
ATOM     28  C   UNL     1       0.701   9.772  19.628  0.00  0.00    +0.000 A 
ATOM     29  C   UNL     1       0.226  10.271  20.831  0.00  0.00    +0.000 A 
ENDBRANCH  23  24
ENDBRANCH   1  23
TORSDOF 3
ENDMDL
MODEL 9
REMARK VINA RESULT:      -7.1      2.964      4.415
REMARK  Name = 
REMARK  3 active torsions:
REMARK  status: ('A' for Active; 'I' for Inactive)
REMARK    1  A    between atoms: C_2  and  C_3
REMARK    2  A    between atoms: C_2  and  C_9
REMARK    3  A    between atoms: C_19  and  C_20
REMARK                            x       y       z     vdW  Elec       q    Type
REMARK                         _______ _______ _______ _____ _____    ______ ____
ROOT
ATOM      1  C   UNL     1      -2.688  12.046  19.160  0.00  0.00    +0.000 A 
ATOM      2  C   UNL     1      -3.434  11.592  18.046  0.00  0.00    +0.000 A 
ATOM      3  C   UNL     1      -4.848  11.401  18.129  0.00  0.00    +0.000 A 
ATOM      4  C   UNL     1      -5.425  11.943  19.283  0.00  0.00    +0.000 A 
ATOM      5  C   UNL     1      -4.651  12.721  20.127  0.00  0.00    +0.000 A 
ATOM      6  C   UNL     1      -3.335  12.410  20.332  0.00  0.00    +0.000 A 
ATOM      7  N   UNL     1      -5.339  13.852  20.473  0.00  0.00    +0.000 NA
ATOM      8  C   UNL     1      -6.574  13.592  20.099  0.00  0.00    +0.000 A 
ATOM      9  S   UNL     1      -7.916  14.159  21.046  0.00  0.00    +0.000 S 
ATOM     10  C   UNL     1      -7.704  12.660  21.979  0.00  0.00    +0.000 A 
ATOM     11  C   UNL     1      -6.982  12.680  23.135  0.00  0.00    +0.000 C 
ATOM     12  C   UNL     1      -7.269  11.583  20.966  0.00  0.00    +0.000 A 
ATOM     13  O   UNL     1      -7.307  10.373  21.074  0.00  0.00    +0.000 OA
ATOM     14  N   UNL     1      -6.657  12.233  19.862  0.00  0.00    +0.000 N 
ENDROOT
BRANCH  11  15
ATOM     15  C   UNL     1      -5.710  13.439  23.443  0.00  0.00    +0.000 A 
ATOM     16  C   UNL     1      -5.663  14.837  23.628  0.00  0.00    +0.000 A 
ATOM     17  C   UNL     1      -4.489  15.476  24.036  0.00  0.00    +0.000 A 
ATOM     18  C   UNL     1      -3.341  14.739  24.281  0.00  0.00    +0.000 A 
ATOM     19  F   UNL     1      -2.226  15.342  24.715  0.00  0.00    +0.000 F 
ATOM     20  C   UNL     1      -3.352  13.357  24.080  0.00  0.00    +0.000 A 
ATOM     21  C   UNL     1      -4.527  12.718  23.666  0.00  0.00    +0.000 A 
ENDBRANCH  11  15
BRANCH   1  23
ATOM     22  O   UNL     1      -1.059  13.670  19.554  0.00  0.00    +0.000 OA
ATOM     23  C   UNL     1      -1.276  12.500  19.206  0.00  0.00    +0.000 C 
BRANCH  23  24
ATOM     24  C   UNL     1      -0.073  11.737  18.894  0.00  0.00    +0.000 A 
ATOM     25  C   UNL     1       1.164  12.328  18.656  0.00  0.00    +0.000 A 
ATOM     26  C   UNL     1       2.209  11.529  18.199  0.00  0.00    +0.000 A 
ATOM     27  C   UNL     1       2.008  10.157  17.971  0.00  0.00    +0.000 A 
ATOM     28  C   UNL     1       0.781   9.577  18.202  0.00  0.00    +0.000 A 
ATOM     29  C   UNL     1      -0.263  10.361  18.668  0.00  0.00    +0.000 A 
ENDBRANCH  23  24
ENDBRANCH   1  23
TORSDOF 3
ENDMDL
