MODEL 1
REMARK VINA RESULT:      -6.5      0.000      0.000
REMARK  Name = 
REMARK  9 active torsions:
REMARK  status: ('A' for Active; 'I' for Inactive)
REMARK    1  A    between atoms: C_1  and  C_2
REMARK    2  A    between atoms: N_4  and  C_5
REMARK    3  A    between atoms: C_5  and  C_6
REMARK    4  A    between atoms: C_5  and  C_16
REMARK    5  A    between atoms: N_8  and  C_9
REMARK    6  A    between atoms: N_8  and  C_10
REMARK    7  A    between atoms: C_10  and  C_11
REMARK    8  A    between atoms: C_16  and  C_17
REMARK    9  A    between atoms: C_16  and  C_18
REMARK                            x       y       z     vdW  Elec       q    Type
REMARK                         _______ _______ _______ _____ _____    ______ ____
ROOT
ATOM      1  C   UNL     1       4.673   6.266  17.651  0.00  0.00    +0.000 C 
ATOM      2  O   UNL     1       3.954   7.176  17.216  0.00  0.00    +0.000 OA
ATOM      3  N   UNL     1       4.324   5.570  18.803  0.00  0.00    +0.000 N 
ATOM      4  C   UNL     1       5.177   4.629  19.518  0.00  0.00    +0.000 C 
ENDROOT
BRANCH   1   5
ATOM      5  C   UNL     1       6.042   6.000  16.979  0.00  0.00    +0.000 C 
BRANCH   5   9
ATOM      6  C   UNL     1       8.314   8.985  17.656  0.00  0.00    +0.000 C 
ATOM      7  C   UNL     1       7.713   7.624  17.867  0.00  0.00    +0.000 C 
ATOM      8  O   UNL     1       8.105   6.868  18.752  0.00  0.00    +0.000 OA
ATOM      9  N   UNL     1       6.729   7.294  16.972  0.00  0.00    +0.000 N 
ATOM     10  H   UNL     1       6.384   7.993  16.325  0.00  0.00    +0.000 HD
ENDBRANCH   5   9
BRANCH   5  11
ATOM     11  C   UNL     1       5.878   5.482  15.526  0.00  0.00    +0.000 C 
ATOM     12  C   UNL     1       7.230   5.077  14.922  0.00  0.00    +0.000 C 
ATOM     13  C   UNL     1       4.932   4.276  15.466  0.00  0.00    +0.000 C 
ENDBRANCH   5  11
ENDBRANCH   1   5
BRANCH   3  14
ATOM     14  C   UNL     1       3.063   5.912  19.463  0.00  0.00    +0.000 C 
BRANCH  14  15
ATOM     15  C   UNL     1       2.151   4.718  19.536  0.00  0.00    +0.000 A 
ATOM     16  C   UNL     1       1.623   4.098  20.652  0.00  0.00    +0.000 A 
ATOM     17  C   UNL     1       0.899   2.912  20.331  0.00  0.00    +0.000 A 
ATOM     18  C   UNL     1       0.886   2.670  18.976  0.00  0.00    +0.000 A 
ATOM     19  S   UNL     1       1.717   3.882  18.101  0.00  0.00    +0.000 S 
ENDBRANCH  14  15
ENDBRANCH   3  14
TORSDOF 5
ENDMDL
MODEL 2
REMARK VINA RESULT:      -6.0      2.258      3.262
REMARK  Name = 
REMARK  9 active torsions:
REMARK  status: ('A' for Active; 'I' for Inactive)
REMARK    1  A    between atoms: C_1  and  C_2
REMARK    2  A    between atoms: N_4  and  C_5
REMARK    3  A    between atoms: C_5  and  C_6
REMARK    4  A    between atoms: C_5  and  C_16
REMARK    5  A    between atoms: N_8  and  C_9
REMARK    6  A    between atoms: N_8  and  C_10
REMARK    7  A    between atoms: C_10  and  C_11
REMARK    8  A    between atoms: C_16  and  C_17
REMARK    9  A    between atoms: C_16  and  C_18
REMARK                            x       y       z     vdW  Elec       q    Type
REMARK                         _______ _______ _______ _____ _____    ______ ____
ROOT
ATOM      1  C   UNL     1       3.872   4.569  17.229  0.00  0.00    +0.000 C 
ATOM      2  O   UNL     1       3.436   3.428  17.017  0.00  0.00    +0.000 OA
ATOM      3  N   UNL     1       3.066   5.543  17.807  0.00  0.00    +0.000 N 
ATOM      4  C   UNL     1       3.393   6.959  17.920  0.00  0.00    +0.000 C 
ENDROOT
BRANCH   1   5
ATOM      5  C   UNL     1       5.281   4.946  16.713  0.00  0.00    +0.000 C 
BRANCH   5   9
ATOM      6  C   UNL     1       6.321   3.622  13.292  0.00  0.00    +0.000 C 
ATOM      7  C   UNL     1       6.224   4.598  14.431  0.00  0.00    +0.000 C 
ATOM      8  O   UNL     1       6.807   5.680  14.414  0.00  0.00    +0.000 OA
ATOM      9  N   UNL     1       5.470   4.163  15.489  0.00  0.00    +0.000 N 
ATOM     10  H   UNL     1       4.938   3.305  15.407  0.00  0.00    +0.000 HD
ENDBRANCH   5   9
BRANCH   5  11
ATOM     11  C   UNL     1       6.384   4.588  17.744  0.00  0.00    +0.000 C 
ATOM     12  C   UNL     1       7.460   5.682  17.812  0.00  0.00    +0.000 C 
ATOM     13  C   UNL     1       5.796   4.389  19.146  0.00  0.00    +0.000 C 
ENDBRANCH   5  11
ENDBRANCH   1   5
BRANCH   3  14
ATOM     14  C   UNL     1       1.705   5.173  18.199  0.00  0.00    +0.000 C 
BRANCH  14  15
ATOM     15  C   UNL     1       1.705   4.418  19.501  0.00  0.00    +0.000 A 
ATOM     16  C   UNL     1       2.304   4.759  20.699  0.00  0.00    +0.000 A 
ATOM     17  C   UNL     1       2.193   3.730  21.680  0.00  0.00    +0.000 A 
ATOM     18  C   UNL     1       1.501   2.639  21.204  0.00  0.00    +0.000 A 
ATOM     19  S   UNL     1       0.967   2.871  19.596  0.00  0.00    +0.000 S 
ENDBRANCH  14  15
ENDBRANCH   3  14
TORSDOF 5
ENDMDL
MODEL 3
REMARK VINA RESULT:      -6.0      1.571      1.751
REMARK  Name = 
REMARK  9 active torsions:
REMARK  status: ('A' for Active; 'I' for Inactive)
REMARK    1  A    between atoms: C_1  and  C_2
REMARK    2  A    between atoms: N_4  and  C_5
REMARK    3  A    between atoms: C_5  and  C_6
REMARK    4  A    between atoms: C_5  and  C_16
REMARK    5  A    between atoms: N_8  and  C_9
REMARK    6  A    between atoms: N_8  and  C_10
REMARK    7  A    between atoms: C_10  and  C_11
REMARK    8  A    between atoms: C_16  and  C_17
REMARK    9  A    between atoms: C_16  and  C_18
REMARK                            x       y       z     vdW  Elec       q    Type
REMARK                         _______ _______ _______ _____ _____    ______ ____
ROOT
ATOM      1  C   UNL     1       4.256   5.339  17.010  0.00  0.00    +0.000 C 
ATOM      2  O   UNL     1       3.887   6.517  17.122  0.00  0.00    +0.000 OA
ATOM      3  N   UNL     1       3.429   4.293  17.404  0.00  0.00    +0.000 N 
ATOM      4  C   UNL     1       3.822   2.893  17.509  0.00  0.00    +0.000 C 
ENDROOT
BRANCH   1   5
ATOM      5  C   UNL     1       5.706   5.043  16.559  0.00  0.00    +0.000 C 
BRANCH   5   9
ATOM      6  C   UNL     1       8.217   6.927  18.722  0.00  0.00    +0.000 C 
ATOM      7  C   UNL     1       7.443   5.748  18.203  0.00  0.00    +0.000 C 
ATOM      8  O   UNL     1       7.644   4.606  18.610  0.00  0.00    +0.000 OA
ATOM      9  N   UNL     1       6.534   6.052  17.224  0.00  0.00    +0.000 N 
ATOM     10  H   UNL     1       6.347   7.022  16.998  0.00  0.00    +0.000 HD
ENDBRANCH   5   9
BRANCH   5  11
ATOM     11  C   UNL     1       5.864   5.162  15.020  0.00  0.00    +0.000 C 
ATOM     12  C   UNL     1       7.344   5.240  14.616  0.00  0.00    +0.000 C 
ATOM     13  C   UNL     1       5.220   3.972  14.298  0.00  0.00    +0.000 C 
ENDBRANCH   5  11
ENDBRANCH   1   5
BRANCH   3  14
ATOM     14  C   UNL     1       2.095   4.617  17.912  0.00  0.00    +0.000 C 
BRANCH  14  15
ATOM     15  C   UNL     1       1.923   4.135  19.326  0.00  0.00    +0.000 A 
ATOM     16  C   UNL     1       2.565   4.567  20.472  0.00  0.00    +0.000 A 
ATOM     17  C   UNL     1       2.232   3.782  21.615  0.00  0.00    +0.000 A 
ATOM     18  C   UNL     1       1.337   2.782  21.309  0.00  0.00    +0.000 A 
ATOM     19  S   UNL     1       0.882   2.812  19.661  0.00  0.00    +0.000 S 
ENDBRANCH  14  15
ENDBRANCH   3  14
TORSDOF 5
ENDMDL
MODEL 4
REMARK VINA RESULT:      -5.9      1.743      2.011
REMARK  Name = 
REMARK  9 active torsions:
REMARK  status: ('A' for Active; 'I' for Inactive)
REMARK    1  A    between atoms: C_1  and  C_2
REMARK    2  A    between atoms: N_4  and  C_5
REMARK    3  A    between atoms: C_5  and  C_6
REMARK    4  A    between atoms: C_5  and  C_16
REMARK    5  A    between atoms: N_8  and  C_9
REMARK    6  A    between atoms: N_8  and  C_10
REMARK    7  A    between atoms: C_10  and  C_11
REMARK    8  A    between atoms: C_16  and  C_17
REMARK    9  A    between atoms: C_16  and  C_18
REMARK                            x       y       z     vdW  Elec       q    Type
REMARK                         _______ _______ _______ _____ _____    ______ ____
ROOT
ATOM      1  C   UNL     1       4.348   5.172  16.836  0.00  0.00    +0.000 C 
ATOM      2  O   UNL     1       4.034   6.364  16.962  0.00  0.00    +0.000 OA
ATOM      3  N   UNL     1       3.489   4.160  17.251  0.00  0.00    +0.000 N 
ATOM      4  C   UNL     1       3.825   2.744  17.342  0.00  0.00    +0.000 C 
ENDROOT
BRANCH   1   5
ATOM      5  C   UNL     1       5.771   4.815  16.342  0.00  0.00    +0.000 C 
BRANCH   5   9
ATOM      6  C   UNL     1       8.053   6.471  18.908  0.00  0.00    +0.000 C 
ATOM      7  C   UNL     1       7.098   5.451  18.355  0.00  0.00    +0.000 C 
ATOM      8  O   UNL     1       6.763   4.457  18.996  0.00  0.00    +0.000 OA
ATOM      9  N   UNL     1       6.673   5.705  17.078  0.00  0.00    +0.000 N 
ATOM     10  H   UNL     1       6.909   6.586  16.637  0.00  0.00    +0.000 HD
ENDBRANCH   5   9
BRANCH   5  11
ATOM     11  C   UNL     1       5.925   5.052  14.817  0.00  0.00    +0.000 C 
ATOM     12  C   UNL     1       7.404   5.158  14.415  0.00  0.00    +0.000 C 
ATOM     13  C   UNL     1       5.276   3.923  14.007  0.00  0.00    +0.000 C 
ENDBRANCH   5  11
ENDBRANCH   1   5
BRANCH   3  14
ATOM     14  C   UNL     1       2.185   4.540  17.798  0.00  0.00    +0.000 C 
BRANCH  14  15
ATOM     15  C   UNL     1       1.997   3.981  19.182  0.00  0.00    +0.000 A 
ATOM     16  C   UNL     1       1.042   3.090  19.633  0.00  0.00    +0.000 A 
ATOM     17  C   UNL     1       1.102   2.890  21.044  0.00  0.00    +0.000 A 
ATOM     18  C   UNL     1       2.110   3.626  21.625  0.00  0.00    +0.000 A 
ATOM     19  S   UNL     1       2.992   4.527  20.470  0.00  0.00    +0.000 S 
ENDBRANCH  14  15
ENDBRANCH   3  14
TORSDOF 5
ENDMDL
MODEL 5
REMARK VINA RESULT:      -5.9      1.766      3.143
REMARK  Name = 
REMARK  9 active torsions:
REMARK  status: ('A' for Active; 'I' for Inactive)
REMARK    1  A    between atoms: C_1  and  C_2
REMARK    2  A    between atoms: N_4  and  C_5
REMARK    3  A    between atoms: C_5  and  C_6
REMARK    4  A    between atoms: C_5  and  C_16
REMARK    5  A    between atoms: N_8  and  C_9
REMARK    6  A    between atoms: N_8  and  C_10
REMARK    7  A    between atoms: C_10  and  C_11
REMARK    8  A    between atoms: C_16  and  C_17
REMARK    9  A    between atoms: C_16  and  C_18
REMARK                            x       y       z     vdW  Elec       q    Type
REMARK                         _______ _______ _______ _____ _____    ______ ____
ROOT
ATOM      1  C   UNL     1       4.571   5.717  18.927  0.00  0.00    +0.000 C 
ATOM      2  O   UNL     1       4.836   4.745  19.649  0.00  0.00    +0.000 OA
ATOM      3  N   UNL     1       3.327   6.334  18.990  0.00  0.00    +0.000 N 
ATOM      4  C   UNL     1       2.830   7.343  18.063  0.00  0.00    +0.000 C 
ENDROOT
BRANCH   1   5
ATOM      5  C   UNL     1       5.589   6.153  17.846  0.00  0.00    +0.000 C 
BRANCH   5   9
ATOM      6  C   UNL     1       5.378   4.275  14.535  0.00  0.00    +0.000 C 
ATOM      7  C   UNL     1       5.440   5.462  15.454  0.00  0.00    +0.000 C 
ATOM      8  O   UNL     1       5.477   6.614  15.030  0.00  0.00    +0.000 OA
ATOM      9  N   UNL     1       5.488   5.146  16.787  0.00  0.00    +0.000 N 
ATOM     10  H   UNL     1       5.359   4.184  17.079  0.00  0.00    +0.000 HD
ENDBRANCH   5   9
BRANCH   5  11
ATOM     11  C   UNL     1       7.037   6.190  18.402  0.00  0.00    +0.000 C 
ATOM     12  C   UNL     1       7.800   4.903  18.055  0.00  0.00    +0.000 C 
ATOM     13  C   UNL     1       7.817   7.389  17.851  0.00  0.00    +0.000 C 
ENDBRANCH   5  11
ENDBRANCH   1   5
BRANCH   3  14
ATOM     14  C   UNL     1       2.354   5.835  19.965  0.00  0.00    +0.000 C 
BRANCH  14  15
ATOM     15  C   UNL     1       1.916   4.437  19.623  0.00  0.00    +0.000 A 
ATOM     16  C   UNL     1       1.476   3.940  18.411  0.00  0.00    +0.000 A 
ATOM     17  C   UNL     1       1.025   2.590  18.502  0.00  0.00    +0.000 A 
ATOM     18  C   UNL     1       1.148   2.094  19.780  0.00  0.00    +0.000 A 
ATOM     19  S   UNL     1       1.828   3.240  20.851  0.00  0.00    +0.000 S 
ENDBRANCH  14  15
ENDBRANCH   3  14
TORSDOF 5
ENDMDL
MODEL 6
REMARK VINA RESULT:      -5.9      1.702      3.257
REMARK  Name = 
REMARK  9 active torsions:
REMARK  status: ('A' for Active; 'I' for Inactive)
REMARK    1  A    between atoms: C_1  and  C_2
REMARK    2  A    between atoms: N_4  and  C_5
REMARK    3  A    between atoms: C_5  and  C_6
REMARK    4  A    between atoms: C_5  and  C_16
REMARK    5  A    between atoms: N_8  and  C_9
REMARK    6  A    between atoms: N_8  and  C_10
REMARK    7  A    between atoms: C_10  and  C_11
REMARK    8  A    between atoms: C_16  and  C_17
REMARK    9  A    between atoms: C_16  and  C_18
REMARK                            x       y       z     vdW  Elec       q    Type
REMARK                         _______ _______ _______ _____ _____    ______ ____
ROOT
ATOM      1  C   UNL     1       5.519   5.245  18.692  0.00  0.00    +0.000 C 
ATOM      2  O   UNL     1       6.092   4.302  19.255  0.00  0.00    +0.000 OA
ATOM      3  N   UNL     1       4.215   5.590  19.028  0.00  0.00    +0.000 N 
ATOM      4  C   UNL     1       3.373   6.537  18.306  0.00  0.00    +0.000 C 
ENDROOT
BRANCH   1   5
ATOM      5  C   UNL     1       6.218   5.951  17.505  0.00  0.00    +0.000 C 
BRANCH   5   9
ATOM      6  C   UNL     1       6.090   4.014  14.224  0.00  0.00    +0.000 C 
ATOM      7  C   UNL     1       5.877   5.169  15.162  0.00  0.00    +0.000 C 
ATOM      8  O   UNL     1       5.393   6.233  14.785  0.00  0.00    +0.000 OA
ATOM      9  N   UNL     1       6.300   4.943  16.445  0.00  0.00    +0.000 N 
ATOM     10  H   UNL     1       6.603   4.015  16.718  0.00  0.00    +0.000 HD
ENDBRANCH   5   9
BRANCH   5  11
ATOM     11  C   UNL     1       7.642   6.436  17.883  0.00  0.00    +0.000 C 
ATOM     12  C   UNL     1       7.781   7.954  17.702  0.00  0.00    +0.000 C 
ATOM     13  C   UNL     1       7.987   6.080  19.334  0.00  0.00    +0.000 C 
ENDBRANCH   5  11
ENDBRANCH   1   5
BRANCH   3  14
ATOM     14  C   UNL     1       3.553   4.839  20.096  0.00  0.00    +0.000 C 
BRANCH  14  15
ATOM     15  C   UNL     1       2.662   3.767  19.530  0.00  0.00    +0.000 A 
ATOM     16  C   UNL     1       2.941   2.843  18.541  0.00  0.00    +0.000 A 
ATOM     17  C   UNL     1       1.802   2.065  18.179  0.00  0.00    +0.000 A 
ATOM     18  C   UNL     1       0.690   2.411  18.915  0.00  0.00    +0.000 A 
ATOM     19  S   UNL     1       1.031   3.644  20.049  0.00  0.00    +0.000 S 
ENDBRANCH  14  15
ENDBRANCH   3  14
TORSDOF 5
ENDMDL
MODEL 7
REMARK VINA RESULT:      -5.8      1.923      3.016
REMARK  Name = 
REMARK  9 active torsions:
REMARK  status: ('A' for Active; 'I' for Inactive)
REMARK    1  A    between atoms: C_1  and  C_2
REMARK    2  A    between atoms: N_4  and  C_5
REMARK    3  A    between atoms: C_5  and  C_6
REMARK    4  A    between atoms: C_5  and  C_16
REMARK    5  A    between atoms: N_8  and  C_9
REMARK    6  A    between atoms: N_8  and  C_10
REMARK    7  A    between atoms: C_10  and  C_11
REMARK    8  A    between atoms: C_16  and  C_17
REMARK    9  A    between atoms: C_16  and  C_18
REMARK                            x       y       z     vdW  Elec       q    Type
REMARK                         _______ _______ _______ _____ _____    ______ ____
ROOT
ATOM      1  C   UNL     1       4.495   4.733  17.002  0.00  0.00    +0.000 C 
ATOM      2  O   UNL     1       4.741   3.621  16.513  0.00  0.00    +0.000 OA
ATOM      3  N   UNL     1       3.280   4.982  17.630  0.00  0.00    +0.000 N 
ATOM      4  C   UNL     1       2.798   6.289  18.060  0.00  0.00    +0.000 C 
ENDROOT
BRANCH   1   5
ATOM      5  C   UNL     1       5.497   5.892  16.783  0.00  0.00    +0.000 C 
BRANCH   5   9
ATOM      6  C   UNL     1       7.287   4.995  13.539  0.00  0.00    +0.000 C 
ATOM      7  C   UNL     1       7.032   5.023  15.020  0.00  0.00    +0.000 C 
ATOM      8  O   UNL     1       7.732   4.400  15.814  0.00  0.00    +0.000 OA
ATOM      9  N   UNL     1       5.942   5.765  15.393  0.00  0.00    +0.000 N 
ATOM     10  H   UNL     1       5.461   6.331  14.704  0.00  0.00    +0.000 HD
ENDBRANCH   5   9
BRANCH   5  11
ATOM     11  C   UNL     1       6.715   5.785  17.738  0.00  0.00    +0.000 C 
ATOM     12  C   UNL     1       7.471   7.119  17.830  0.00  0.00    +0.000 C 
ATOM     13  C   UNL     1       6.284   5.366  19.149  0.00  0.00    +0.000 C 
ENDBRANCH   5  11
ENDBRANCH   1   5
BRANCH   3  14
ATOM     14  C   UNL     1       2.318   3.884  17.738  0.00  0.00    +0.000 C 
BRANCH  14  15
ATOM     15  C   UNL     1       2.153   3.449  19.168  0.00  0.00    +0.000 A 
ATOM     16  C   UNL     1       1.047   3.572  19.989  0.00  0.00    +0.000 A 
ATOM     17  C   UNL     1       1.309   3.157  21.328  0.00  0.00    +0.000 A 
ATOM     18  C   UNL     1       2.604   2.717  21.485  0.00  0.00    +0.000 A 
ATOM     19  S   UNL     1       3.484   2.780  20.021  0.00  0.00    +0.000 S 
ENDBRANCH  14  15
ENDBRANCH   3  14
TORSDOF 5
ENDMDL
MODEL 8
REMARK VINA RESULT:      -5.8      1.514      3.240
REMARK  Name = 
REMARK  9 active torsions:
REMARK  status: ('A' for Active; 'I' for Inactive)
REMARK    1  A    between atoms: C_1  and  C_2
REMARK    2  A    between atoms: N_4  and  C_5
REMARK    3  A    between atoms: C_5  and  C_6
REMARK    4  A    between atoms: C_5  and  C_16
REMARK    5  A    between atoms: N_8  and  C_9
REMARK    6  A    between atoms: N_8  and  C_10
REMARK    7  A    between atoms: C_10  and  C_11
REMARK    8  A    between atoms: C_16  and  C_17
REMARK    9  A    between atoms: C_16  and  C_18
REMARK                            x       y       z     vdW  Elec       q    Type
REMARK                         _______ _______ _______ _____ _____    ______ ____
ROOT
ATOM      1  C   UNL     1       6.321   5.070  17.997  0.00  0.00    +0.000 C 
ATOM      2  O   UNL     1       7.092   4.108  18.128  0.00  0.00    +0.000 OA
ATOM      3  N   UNL     1       5.066   5.064  18.596  0.00  0.00    +0.000 N 
ATOM      4  C   UNL     1       4.004   6.033  18.354  0.00  0.00    +0.000 C 
ENDROOT
BRANCH   1   5
ATOM      5  C   UNL     1       6.709   6.223  17.041  0.00  0.00    +0.000 C 
BRANCH   5   9
ATOM      6  C   UNL     1       6.974   4.526  13.637  0.00  0.00    +0.000 C 
ATOM      7  C   UNL     1       6.300   5.127  14.838  0.00  0.00    +0.000 C 
ATOM      8  O   UNL     1       5.079   5.234  14.915  0.00  0.00    +0.000 OA
ATOM      9  N   UNL     1       7.160   5.572  15.808  0.00  0.00    +0.000 N 
ATOM     10  H   UNL     1       8.150   5.371  15.732  0.00  0.00    +0.000 HD
ENDBRANCH   5   9
BRANCH   5  11
ATOM     11  C   UNL     1       7.852   7.094  17.626  0.00  0.00    +0.000 C 
ATOM     12  C   UNL     1       7.495   8.587  17.578  0.00  0.00    +0.000 C 
ATOM     13  C   UNL     1       8.162   6.708  19.077  0.00  0.00    +0.000 C 
ENDBRANCH   5  11
ENDBRANCH   1   5
BRANCH   3  14
ATOM     14  C   UNL     1       4.698   3.912  19.422  0.00  0.00    +0.000 C 
BRANCH  14  15
ATOM     15  C   UNL     1       3.228   3.615  19.309  0.00  0.00    +0.000 A 
ATOM     16  C   UNL     1       2.216   3.897  20.208  0.00  0.00    +0.000 A 
ATOM     17  C   UNL     1       0.961   3.347  19.811  0.00  0.00    +0.000 A 
ATOM     18  C   UNL     1       1.051   2.672  18.615  0.00  0.00    +0.000 A 
ATOM     19  S   UNL     1       2.632   2.728  17.965  0.00  0.00    +0.000 S 
ENDBRANCH  14  15
ENDBRANCH   3  14
TORSDOF 5
ENDMDL
MODEL 9
REMARK VINA RESULT:      -5.6      2.076      2.349
REMARK  Name = 
REMARK  9 active torsions:
REMARK  status: ('A' for Active; 'I' for Inactive)
REMARK    1  A    between atoms: C_1  and  C_2
REMARK    2  A    between atoms: N_4  and  C_5
REMARK    3  A    between atoms: C_5  and  C_6
REMARK    4  A    between atoms: C_5  and  C_16
REMARK    5  A    between atoms: N_8  and  C_9
REMARK    6  A    between atoms: N_8  and  C_10
REMARK    7  A    between atoms: C_10  and  C_11
REMARK    8  A    between atoms: C_16  and  C_17
REMARK    9  A    between atoms: C_16  and  C_18
REMARK                            x       y       z     vdW  Elec       q    Type
REMARK                         _______ _______ _______ _____ _____    ______ ____
ROOT
ATOM      1  C   UNL     1       3.899   3.973  17.184  0.00  0.00    +0.000 C 
ATOM      2  O   UNL     1       3.293   2.908  16.997  0.00  0.00    +0.000 OA
ATOM      3  N   UNL     1       3.263   5.061  17.772  0.00  0.00    +0.000 N 
ATOM      4  C   UNL     1       3.800   6.413  17.861  0.00  0.00    +0.000 C 
ENDROOT
BRANCH   1   5
ATOM      5  C   UNL     1       5.334   4.132  16.628  0.00  0.00    +0.000 C 
BRANCH   5   9
ATOM      6  C   UNL     1       7.812   6.139  18.718  0.00  0.00    +0.000 C 
ATOM      7  C   UNL     1       7.332   5.040  17.812  0.00  0.00    +0.000 C 
ATOM      8  O   UNL     1       8.096   4.195  17.351  0.00  0.00    +0.000 OA
ATOM      9  N   UNL     1       5.994   5.087  17.522  0.00  0.00    +0.000 N 
ATOM     10  H   UNL     1       5.399   5.750  18.005  0.00  0.00    +0.000 HD
ENDBRANCH   5   9
BRANCH   5  11
ATOM     11  C   UNL     1       5.330   4.683  15.177  0.00  0.00    +0.000 C 
ATOM     12  C   UNL     1       5.559   6.202  15.157  0.00  0.00    +0.000 C 
ATOM     13  C   UNL     1       6.410   4.011  14.321  0.00  0.00    +0.000 C 
ENDBRANCH   5  11
ENDBRANCH   1   5
BRANCH   3  14
ATOM     14  C   UNL     1       1.873   4.901  18.205  0.00  0.00    +0.000 C 
BRANCH  14  15
ATOM     15  C   UNL     1       1.801   4.241  19.554  0.00  0.00    +0.000 A 
ATOM     16  C   UNL     1       2.412   4.617  20.736  0.00  0.00    +0.000 A 
ATOM     17  C   UNL     1       2.211   3.670  21.783  0.00  0.00    +0.000 A 
ATOM     18  C   UNL     1       1.441   2.605  21.372  0.00  0.00    +0.000 A 
ATOM     19  S   UNL     1       0.943   2.766  19.744  0.00  0.00    +0.000 S 
ENDBRANCH  14  15
ENDBRANCH   3  14
TORSDOF 5
ENDMDL
