MODEL 1
REMARK VINA RESULT:      -8.9      0.000      0.000
REMARK  Name = 
REMARK  8 active torsions:
REMARK  status: ('A' for Active; 'I' for Inactive)
REMARK    1  A    between atoms: C_1  and  O_2
REMARK    2  A    between atoms: O_2  and  C_3
REMARK    3  A    between atoms: C_6  and  C_7
REMARK    4  A    between atoms: C_8  and  C_9
REMARK    5  A    between atoms: C_9  and  C_11
REMARK    6  A    between atoms: C_14  and  N_15
REMARK    7  A    between atoms: C_25  and  O_26
REMARK    8  A    between atoms: O_26  and  C_27
REMARK                            x       y       z     vdW  Elec       q    Type
REMARK                         _______ _______ _______ _____ _____    ______ ____
ROOT
ATOM      1  C   UNL     1       7.362   6.904  17.231  0.00  0.00    +0.000 C 
ATOM      2  O   UNL     1       7.910   6.580  16.185  0.00  0.00    +0.000 OA
ENDROOT
BRANCH   1   3
ATOM      3  C   UNL     1       6.126   6.218  17.693  0.00  0.00    +0.000 A 
ATOM      4  C   UNL     1       6.225   5.235  18.678  0.00  0.00    +0.000 A 
ATOM      5  C   UNL     1       5.072   4.587  19.145  0.00  0.00    +0.000 A 
ATOM      6  C   UNL     1       3.800   4.899  18.633  0.00  0.00    +0.000 A 
ATOM      7  C   UNL     1       3.725   5.892  17.646  0.00  0.00    +0.000 A 
ATOM      8  C   UNL     1       4.869   6.556  17.190  0.00  0.00    +0.000 A 
BRANCH   6   9
ATOM      9  N   UNL     1       2.627   4.245  19.105  0.00  0.00    +0.000 N 
ATOM     10  C   UNL     1       2.113   3.081  18.610  0.00  0.00    +0.000 C 
ATOM     11  O   UNL     1       2.509   2.335  17.731  0.00  0.00    +0.000 OA
ATOM     12  C   UNL     1       0.914   2.762  19.393  0.00  0.00    +0.000 C 
ATOM     13  C   UNL     1       0.753   3.717  20.305  0.00  0.00    +0.000 C 
ATOM     14  C   UNL     1       1.844   4.683  20.138  0.00  0.00    +0.000 C 
ATOM     15  O   UNL     1       1.907   5.681  20.834  0.00  0.00    +0.000 OA
ENDBRANCH   6   9
ENDBRANCH   1   3
BRANCH   1  17
ATOM     16  C   UNL     1       8.200   9.189  17.546  0.00  0.00    +0.000 C 
ATOM     17  C   UNL     1       7.867   8.008  18.085  0.00  0.00    +0.000 C 
BRANCH  16  21
ATOM     18  C   UNL     1       9.942  12.381  19.818  0.00  0.00    +0.000 A 
ATOM     19  C   UNL     1       9.802  11.093  20.359  0.00  0.00    +0.000 A 
ATOM     20  C   UNL     1       9.224  10.060  19.617  0.00  0.00    +0.000 A 
ATOM     21  C   UNL     1       8.733  10.304  18.336  0.00  0.00    +0.000 A 
ATOM     22  C   UNL     1       8.808  11.610  17.831  0.00  0.00    +0.000 A 
ATOM     23  C   UNL     1       9.390  12.657  18.561  0.00  0.00    +0.000 A 
BRANCH  18  25
ATOM     24  C   UNL     1       9.875  13.911  21.613  0.00  0.00    +0.000 C 
ATOM     25  O   UNL     1      10.597  13.365  20.508  0.00  0.00    +0.000 OA
ENDBRANCH  18  25
BRANCH  23  26
ATOM     26  O   UNL     1       9.343  13.838  17.871  0.00  0.00    +0.000 OA
ATOM     27  C   UNL     1       8.346  14.793  18.195  0.00  0.00    +0.000 C 
ENDBRANCH  23  26
ENDBRANCH  16  21
ENDBRANCH   1  17
TORSDOF 6
ENDMDL
MODEL 2
REMARK VINA RESULT:      -8.9      0.386      1.714
REMARK  Name = 
REMARK  8 active torsions:
REMARK  status: ('A' for Active; 'I' for Inactive)
REMARK    1  A    between atoms: C_1  and  O_2
REMARK    2  A    between atoms: O_2  and  C_3
REMARK    3  A    between atoms: C_6  and  C_7
REMARK    4  A    between atoms: C_8  and  C_9
REMARK    5  A    between atoms: C_9  and  C_11
REMARK    6  A    between atoms: C_14  and  N_15
REMARK    7  A    between atoms: C_25  and  O_26
REMARK    8  A    between atoms: O_26  and  C_27
REMARK                            x       y       z     vdW  Elec       q    Type
REMARK                         _______ _______ _______ _____ _____    ______ ____
ROOT
ATOM      1  C   UNL     1       7.360   6.830  17.225  0.00  0.00    +0.000 C 
ATOM      2  O   UNL     1       7.843   6.528  16.141  0.00  0.00    +0.000 OA
ENDROOT
BRANCH   1   3
ATOM      3  C   UNL     1       6.156   6.132  17.749  0.00  0.00    +0.000 A 
ATOM      4  C   UNL     1       4.893   6.558  17.338  0.00  0.00    +0.000 A 
ATOM      5  C   UNL     1       3.743   5.903  17.802  0.00  0.00    +0.000 A 
ATOM      6  C   UNL     1       3.829   4.818  18.692  0.00  0.00    +0.000 A 
ATOM      7  C   UNL     1       5.108   4.405  19.088  0.00  0.00    +0.000 A 
ATOM      8  C   UNL     1       6.260   5.041  18.613  0.00  0.00    +0.000 A 
BRANCH   6   9
ATOM      9  N   UNL     1       2.664   4.149  19.164  0.00  0.00    +0.000 N 
ATOM     10  C   UNL     1       2.093   4.321  20.392  0.00  0.00    +0.000 C 
ATOM     11  O   UNL     1       2.381   5.059  21.318  0.00  0.00    +0.000 OA
ATOM     12  C   UNL     1       0.912   3.453  20.453  0.00  0.00    +0.000 C 
ATOM     13  C   UNL     1       0.817   2.807  19.294  0.00  0.00    +0.000 C 
ATOM     14  C   UNL     1       1.935   3.239  18.449  0.00  0.00    +0.000 C 
ATOM     15  O   UNL     1       2.098   2.765  17.338  0.00  0.00    +0.000 OA
ENDBRANCH   6   9
ENDBRANCH   1   3
BRANCH   1  17
ATOM     16  C   UNL     1       8.048   9.158  17.581  0.00  0.00    +0.000 C 
ATOM     17  C   UNL     1       7.917   7.917  18.068  0.00  0.00    +0.000 C 
BRANCH  16  21
ATOM     18  C   UNL     1       9.898  12.342  19.777  0.00  0.00    +0.000 A 
ATOM     19  C   UNL     1       9.963  11.013  20.226  0.00  0.00    +0.000 A 
ATOM     20  C   UNL     1       9.349   9.982  19.511  0.00  0.00    +0.000 A 
ATOM     21  C   UNL     1       8.619  10.264  18.358  0.00  0.00    +0.000 A 
ATOM     22  C   UNL     1       8.495  11.602  17.958  0.00  0.00    +0.000 A 
ATOM     23  C   UNL     1       9.109  12.648  18.661  0.00  0.00    +0.000 A 
BRANCH  18  25
ATOM     24  C   UNL     1       9.858  13.987  21.470  0.00  0.00    +0.000 C 
ATOM     25  O   UNL     1      10.582  13.336  20.425  0.00  0.00    +0.000 OA
ENDBRANCH  18  25
BRANCH  23  26
ATOM     26  O   UNL     1       8.843  13.864  18.091  0.00  0.00    +0.000 OA
ATOM     27  C   UNL     1       7.519  14.166  17.684  0.00  0.00    +0.000 C 
ENDBRANCH  23  26
ENDBRANCH  16  21
ENDBRANCH   1  17
TORSDOF 6
ENDMDL
MODEL 3
REMARK VINA RESULT:      -8.7      0.644      1.545
REMARK  Name = 
REMARK  8 active torsions:
REMARK  status: ('A' for Active; 'I' for Inactive)
REMARK    1  A    between atoms: C_1  and  O_2
REMARK    2  A    between atoms: O_2  and  C_3
REMARK    3  A    between atoms: C_6  and  C_7
REMARK    4  A    between atoms: C_8  and  C_9
REMARK    5  A    between atoms: C_9  and  C_11
REMARK    6  A    between atoms: C_14  and  N_15
REMARK    7  A    between atoms: C_25  and  O_26
REMARK    8  A    between atoms: O_26  and  C_27
REMARK                            x       y       z     vdW  Elec       q    Type
REMARK                         _______ _______ _______ _____ _____    ______ ____
ROOT
ATOM      1  C   UNL     1       7.097   7.089  17.141  0.00  0.00    +0.000 C 
ATOM      2  O   UNL     1       7.823   6.650  16.258  0.00  0.00    +0.000 OA
ENDROOT
BRANCH   1   3
ATOM      3  C   UNL     1       5.917   6.319  17.617  0.00  0.00    +0.000 A 
ATOM      4  C   UNL     1       6.120   5.183  18.400  0.00  0.00    +0.000 A 
ATOM      5  C   UNL     1       5.023   4.451  18.878  0.00  0.00    +0.000 A 
ATOM      6  C   UNL     1       3.704   4.831  18.576  0.00  0.00    +0.000 A 
ATOM      7  C   UNL     1       3.523   5.978  17.789  0.00  0.00    +0.000 A 
ATOM      8  C   UNL     1       4.613   6.724  17.327  0.00  0.00    +0.000 A 
BRANCH   6   9
ATOM      9  N   UNL     1       2.587   4.092  19.060  0.00  0.00    +0.000 N 
ATOM     10  C   UNL     1       1.994   4.257  20.279  0.00  0.00    +0.000 C 
ATOM     11  O   UNL     1       2.218   5.042  21.184  0.00  0.00    +0.000 OA
ATOM     12  C   UNL     1       0.880   3.306  20.358  0.00  0.00    +0.000 C 
ATOM     13  C   UNL     1       0.844   2.621  19.218  0.00  0.00    +0.000 C 
ATOM     14  C   UNL     1       1.934   3.109  18.368  0.00  0.00    +0.000 C 
ATOM     15  O   UNL     1       2.142   2.616  17.273  0.00  0.00    +0.000 OA
ENDBRANCH   6   9
ENDBRANCH   1   3
BRANCH   1  17
ATOM     16  C   UNL     1       8.560   8.920  17.869  0.00  0.00    +0.000 C 
ATOM     17  C   UNL     1       7.323   8.414  17.771  0.00  0.00    +0.000 C 
BRANCH  16  21
ATOM     18  C   UNL     1       9.591  12.660  19.695  0.00  0.00    +0.000 A 
ATOM     19  C   UNL     1       9.767  11.444  20.374  0.00  0.00    +0.000 A 
ATOM     20  C   UNL     1       9.419  10.229  19.778  0.00  0.00    +0.000 A 
ATOM     21  C   UNL     1       8.846  10.209  18.508  0.00  0.00    +0.000 A 
ATOM     22  C   UNL     1       8.604  11.432  17.866  0.00  0.00    +0.000 A 
ATOM     23  C   UNL     1       8.952  12.659  18.448  0.00  0.00    +0.000 A 
BRANCH  18  25
ATOM     24  C   UNL     1      11.377  14.183  19.941  0.00  0.00    +0.000 C 
ATOM     25  O   UNL     1      10.024  13.839  20.241  0.00  0.00    +0.000 OA
ENDBRANCH  18  25
BRANCH  23  26
ATOM     26  O   UNL     1       8.614  13.713  17.643  0.00  0.00    +0.000 OA
ATOM     27  C   UNL     1       7.437  14.452  17.921  0.00  0.00    +0.000 C 
ENDBRANCH  23  26
ENDBRANCH  16  21
ENDBRANCH   1  17
TORSDOF 6
ENDMDL
MODEL 4
REMARK VINA RESULT:      -8.7      0.704      1.160
REMARK  Name = 
REMARK  8 active torsions:
REMARK  status: ('A' for Active; 'I' for Inactive)
REMARK    1  A    between atoms: C_1  and  O_2
REMARK    2  A    between atoms: O_2  and  C_3
REMARK    3  A    between atoms: C_6  and  C_7
REMARK    4  A    between atoms: C_8  and  C_9
REMARK    5  A    between atoms: C_9  and  C_11
REMARK    6  A    between atoms: C_14  and  N_15
REMARK    7  A    between atoms: C_25  and  O_26
REMARK    8  A    between atoms: O_26  and  C_27
REMARK                            x       y       z     vdW  Elec       q    Type
REMARK                         _______ _______ _______ _____ _____    ______ ____
ROOT
ATOM      1  C   UNL     1       7.306   7.181  17.134  0.00  0.00    +0.000 C 
ATOM      2  O   UNL     1       7.994   6.677  16.255  0.00  0.00    +0.000 OA
ENDROOT
BRANCH   1   3
ATOM      3  C   UNL     1       6.165   6.439  17.733  0.00  0.00    +0.000 A 
ATOM      4  C   UNL     1       4.889   6.610  17.194  0.00  0.00    +0.000 A 
ATOM      5  C   UNL     1       3.799   5.906  17.728  0.00  0.00    +0.000 A 
ATOM      6  C   UNL     1       3.958   5.027  18.814  0.00  0.00    +0.000 A 
ATOM      7  C   UNL     1       5.249   4.869  19.336  0.00  0.00    +0.000 A 
ATOM      8  C   UNL     1       6.343   5.552  18.796  0.00  0.00    +0.000 A 
BRANCH   6   9
ATOM      9  N   UNL     1       2.854   4.310  19.357  0.00  0.00    +0.000 N 
ATOM     10  C   UNL     1       2.558   3.001  19.108  0.00  0.00    +0.000 C 
ATOM     11  O   UNL     1       3.133   2.158  18.441  0.00  0.00    +0.000 OA
ATOM     12  C   UNL     1       1.355   2.668  19.877  0.00  0.00    +0.000 C 
ATOM     13  C   UNL     1       0.979   3.757  20.542  0.00  0.00    +0.000 C 
ATOM     14  C   UNL     1       1.928   4.827  20.222  0.00  0.00    +0.000 C 
ATOM     15  O   UNL     1       1.786   5.947  20.679  0.00  0.00    +0.000 OA
ENDBRANCH   6   9
ENDBRANCH   1   3
BRANCH   1  17
ATOM     16  C   UNL     1       8.686   8.868  18.261  0.00  0.00    +0.000 C 
ATOM     17  C   UNL     1       7.541   8.557  17.638  0.00  0.00    +0.000 C 
BRANCH  16  21
ATOM     18  C   UNL     1       9.685  12.737  19.817  0.00  0.00    +0.000 A 
ATOM     19  C   UNL     1       9.849  11.575  20.590  0.00  0.00    +0.000 A 
ATOM     20  C   UNL     1       9.512  10.319  20.081  0.00  0.00    +0.000 A 
ATOM     21  C   UNL     1       8.961  10.203  18.805  0.00  0.00    +0.000 A 
ATOM     22  C   UNL     1       8.731  11.373  18.069  0.00  0.00    +0.000 A 
ATOM     23  C   UNL     1       9.068  12.641  18.564  0.00  0.00    +0.000 A 
BRANCH  18  25
ATOM     24  C   UNL     1      11.383  14.376  19.795  0.00  0.00    +0.000 C 
ATOM     25  O   UNL     1      10.108  13.954  20.281  0.00  0.00    +0.000 OA
ENDBRANCH  18  25
BRANCH  23  26
ATOM     26  O   UNL     1       8.745  13.631  17.675  0.00  0.00    +0.000 OA
ATOM     27  C   UNL     1       7.532  14.347  17.842  0.00  0.00    +0.000 C 
ENDBRANCH  23  26
ENDBRANCH  16  21
ENDBRANCH   1  17
TORSDOF 6
ENDMDL
MODEL 5
REMARK VINA RESULT:      -8.6      0.780      1.644
REMARK  Name = 
REMARK  8 active torsions:
REMARK  status: ('A' for Active; 'I' for Inactive)
REMARK    1  A    between atoms: C_1  and  O_2
REMARK    2  A    between atoms: O_2  and  C_3
REMARK    3  A    between atoms: C_6  and  C_7
REMARK    4  A    between atoms: C_8  and  C_9
REMARK    5  A    between atoms: C_9  and  C_11
REMARK    6  A    between atoms: C_14  and  N_15
REMARK    7  A    between atoms: C_25  and  O_26
REMARK    8  A    between atoms: O_26  and  C_27
REMARK                            x       y       z     vdW  Elec       q    Type
REMARK                         _______ _______ _______ _____ _____    ______ ____
ROOT
ATOM      1  C   UNL     1       7.278   7.181  17.160  0.00  0.00    +0.000 C 
ATOM      2  O   UNL     1       7.960   6.691  16.269  0.00  0.00    +0.000 OA
ENDROOT
BRANCH   1   3
ATOM      3  C   UNL     1       6.123   6.442  17.735  0.00  0.00    +0.000 A 
ATOM      4  C   UNL     1       6.343   5.555  18.789  0.00  0.00    +0.000 A 
ATOM      5  C   UNL     1       5.267   4.861  19.362  0.00  0.00    +0.000 A 
ATOM      6  C   UNL     1       3.954   5.029  18.890  0.00  0.00    +0.000 A 
ATOM      7  C   UNL     1       3.756   5.928  17.832  0.00  0.00    +0.000 A 
ATOM      8  C   UNL     1       4.821   6.638  17.270  0.00  0.00    +0.000 A 
BRANCH   6   9
ATOM      9  N   UNL     1       2.859   4.328  19.470  0.00  0.00    +0.000 N 
ATOM     10  C   UNL     1       1.931   4.865  20.315  0.00  0.00    +0.000 C 
ATOM     11  O   UNL     1       1.782   6.000  20.732  0.00  0.00    +0.000 OA
ATOM     12  C   UNL     1       0.982   3.800  20.658  0.00  0.00    +0.000 C 
ATOM     13  C   UNL     1       1.361   2.693  20.027  0.00  0.00    +0.000 C 
ATOM     14  C   UNL     1       2.568   3.008  19.257  0.00  0.00    +0.000 C 
ATOM     15  O   UNL     1       3.140   2.148  18.611  0.00  0.00    +0.000 OA
ENDBRANCH   6   9
ENDBRANCH   1   3
BRANCH   1  17
ATOM     16  C   UNL     1       8.711   8.838  18.265  0.00  0.00    +0.000 C 
ATOM     17  C   UNL     1       7.533   8.539  17.702  0.00  0.00    +0.000 C 
BRANCH  16  21
ATOM     18  C   UNL     1       9.769  12.618  19.990  0.00  0.00    +0.000 A 
ATOM     19  C   UNL     1       9.466  11.509  20.795  0.00  0.00    +0.000 A 
ATOM     20  C   UNL     1       9.112  10.283  20.227  0.00  0.00    +0.000 A 
ATOM     21  C   UNL     1       9.009  10.153  18.843  0.00  0.00    +0.000 A 
ATOM     22  C   UNL     1       9.239  11.285  18.049  0.00  0.00    +0.000 A 
ATOM     23  C   UNL     1       9.600  12.522  18.603  0.00  0.00    +0.000 A 
BRANCH  18  25
ATOM     24  C   UNL     1       9.206  14.787  20.730  0.00  0.00    +0.000 C 
ATOM     25  O   UNL     1      10.211  13.790  20.545  0.00  0.00    +0.000 OA
ENDBRANCH  18  25
BRANCH  23  26
ATOM     26  O   UNL     1       9.765  13.478  17.637  0.00  0.00    +0.000 OA
ATOM     27  C   UNL     1      11.028  13.622  17.009  0.00  0.00    +0.000 C 
ENDBRANCH  23  26
ENDBRANCH  16  21
ENDBRANCH   1  17
TORSDOF 6
ENDMDL
MODEL 6
REMARK VINA RESULT:      -8.5      1.291      1.411
REMARK  Name = 
REMARK  8 active torsions:
REMARK  status: ('A' for Active; 'I' for Inactive)
REMARK    1  A    between atoms: C_1  and  O_2
REMARK    2  A    between atoms: O_2  and  C_3
REMARK    3  A    between atoms: C_6  and  C_7
REMARK    4  A    between atoms: C_8  and  C_9
REMARK    5  A    between atoms: C_9  and  C_11
REMARK    6  A    between atoms: C_14  and  N_15
REMARK    7  A    between atoms: C_25  and  O_26
REMARK    8  A    between atoms: O_26  and  C_27
REMARK                            x       y       z     vdW  Elec       q    Type
REMARK                         _______ _______ _______ _____ _____    ______ ____
ROOT
ATOM      1  C   UNL     1       7.284   6.551  17.095  0.00  0.00    +0.000 C 
ATOM      2  O   UNL     1       7.776   6.294  16.003  0.00  0.00    +0.000 OA
ENDROOT
BRANCH   1   3
ATOM      3  C   UNL     1       6.094   5.812  17.593  0.00  0.00    +0.000 A 
ATOM      4  C   UNL     1       5.533   4.815  16.795  0.00  0.00    +0.000 A 
ATOM      5  C   UNL     1       4.422   4.089  17.250  0.00  0.00    +0.000 A 
ATOM      6  C   UNL     1       3.843   4.350  18.505  0.00  0.00    +0.000 A 
ATOM      7  C   UNL     1       4.426   5.354  19.291  0.00  0.00    +0.000 A 
ATOM      8  C   UNL     1       5.546   6.067  18.851  0.00  0.00    +0.000 A 
BRANCH   6   9
ATOM      9  N   UNL     1       2.717   3.615  18.972  0.00  0.00    +0.000 N 
ATOM     10  C   UNL     1       1.474   3.622  18.405  0.00  0.00    +0.000 C 
ATOM     11  O   UNL     1       1.045   4.181  17.411  0.00  0.00    +0.000 OA
ATOM     12  C   UNL     1       0.627   2.721  19.194  0.00  0.00    +0.000 C 
ATOM     13  C   UNL     1       1.367   2.219  20.178  0.00  0.00    +0.000 C 
ATOM     14  C   UNL     1       2.715   2.781  20.056  0.00  0.00    +0.000 C 
ATOM     15  O   UNL     1       3.584   2.506  20.866  0.00  0.00    +0.000 OA
ENDBRANCH   6   9
ENDBRANCH   1   3
BRANCH   1  17
ATOM     16  C   UNL     1       8.113   8.829  17.475  0.00  0.00    +0.000 C 
ATOM     17  C   UNL     1       7.816   7.622  17.974  0.00  0.00    +0.000 C 
BRANCH  16  21
ATOM     18  C   UNL     1       9.920  11.918  19.836  0.00  0.00    +0.000 A 
ATOM     19  C   UNL     1       9.624  10.660  20.385  0.00  0.00    +0.000 A 
ATOM     20  C   UNL     1       9.025   9.661  19.613  0.00  0.00    +0.000 A 
ATOM     21  C   UNL     1       8.669   9.915  18.290  0.00  0.00    +0.000 A 
ATOM     22  C   UNL     1       8.900  11.197  17.771  0.00  0.00    +0.000 A 
ATOM     23  C   UNL     1       9.504  12.209  18.531  0.00  0.00    +0.000 A 
BRANCH  18  25
ATOM     24  C   UNL     1       9.788  13.618  21.468  0.00  0.00    +0.000 C 
ATOM     25  O   UNL     1      10.595  12.861  20.565  0.00  0.00    +0.000 OA
ENDBRANCH  18  25
BRANCH  23  26
ATOM     26  O   UNL     1       9.619  13.373  17.820  0.00  0.00    +0.000 OA
ATOM     27  C   UNL     1      10.837  13.666  17.157  0.00  0.00    +0.000 C 
ENDBRANCH  23  26
ENDBRANCH  16  21
ENDBRANCH   1  17
TORSDOF 6
ENDMDL
MODEL 7
REMARK VINA RESULT:      -8.4      1.005      2.488
REMARK  Name = 
REMARK  8 active torsions:
REMARK  status: ('A' for Active; 'I' for Inactive)
REMARK    1  A    between atoms: C_1  and  O_2
REMARK    2  A    between atoms: O_2  and  C_3
REMARK    3  A    between atoms: C_6  and  C_7
REMARK    4  A    between atoms: C_8  and  C_9
REMARK    5  A    between atoms: C_9  and  C_11
REMARK    6  A    between atoms: C_14  and  N_15
REMARK    7  A    between atoms: C_25  and  O_26
REMARK    8  A    between atoms: O_26  and  C_27
REMARK                            x       y       z     vdW  Elec       q    Type
REMARK                         _______ _______ _______ _____ _____    ______ ____
ROOT
ATOM      1  C   UNL     1       7.281   7.154  17.160  0.00  0.00    +0.000 C 
ATOM      2  O   UNL     1       7.951   6.647  16.270  0.00  0.00    +0.000 OA
ENDROOT
BRANCH   1   3
ATOM      3  C   UNL     1       6.167   6.406  17.801  0.00  0.00    +0.000 A 
ATOM      4  C   UNL     1       4.869   6.581  17.321  0.00  0.00    +0.000 A 
ATOM      5  C   UNL     1       3.804   5.871  17.895  0.00  0.00    +0.000 A 
ATOM      6  C   UNL     1       4.010   4.982  18.965  0.00  0.00    +0.000 A 
ATOM      7  C   UNL     1       5.323   4.820  19.429  0.00  0.00    +0.000 A 
ATOM      8  C   UNL     1       6.393   5.509  18.847  0.00  0.00    +0.000 A 
BRANCH   6   9
ATOM      9  N   UNL     1       2.932   4.259  19.549  0.00  0.00    +0.000 N 
ATOM     10  C   UNL     1       1.966   4.788  20.357  0.00  0.00    +0.000 C 
ATOM     11  O   UNL     1       1.765   5.931  20.729  0.00  0.00    +0.000 OA
ATOM     12  C   UNL     1       1.053   3.700  20.720  0.00  0.00    +0.000 C 
ATOM     13  C   UNL     1       1.488   2.587  20.138  0.00  0.00    +0.000 C 
ATOM     14  C   UNL     1       2.698   2.922  19.379  0.00  0.00    +0.000 C 
ATOM     15  O   UNL     1       3.316   2.063  18.777  0.00  0.00    +0.000 OA
ENDBRANCH   6   9
ENDBRANCH   1   3
BRANCH   1  17
ATOM     16  C   UNL     1       8.670   8.878  18.220  0.00  0.00    +0.000 C 
ATOM     17  C   UNL     1       7.511   8.540  17.637  0.00  0.00    +0.000 C 
BRANCH  16  21
ATOM     18  C   UNL     1       9.266  12.857  19.702  0.00  0.00    +0.000 A 
ATOM     19  C   UNL     1       9.185  12.596  18.325  0.00  0.00    +0.000 A 
ATOM     20  C   UNL     1       9.001  11.296  17.848  0.00  0.00    +0.000 A 
ATOM     21  C   UNL     1       8.941  10.224  18.736  0.00  0.00    +0.000 A 
ATOM     22  C   UNL     1       9.098  10.482  20.105  0.00  0.00    +0.000 A 
ATOM     23  C   UNL     1       9.279  11.782  20.600  0.00  0.00    +0.000 A 
BRANCH  18  25
ATOM     24  C   UNL     1       8.922  15.147  19.251  0.00  0.00    +0.000 C 
ATOM     25  O   UNL     1       9.348  14.141  20.171  0.00  0.00    +0.000 OA
ENDBRANCH  18  25
BRANCH  23  26
ATOM     26  O   UNL     1       9.417  11.787  21.962  0.00  0.00    +0.000 OA
ATOM     27  C   UNL     1       8.258  11.780  22.779  0.00  0.00    +0.000 C 
ENDBRANCH  23  26
ENDBRANCH  16  21
ENDBRANCH   1  17
TORSDOF 6
ENDMDL
MODEL 8
REMARK VINA RESULT:      -8.4      1.000      2.001
REMARK  Name = 
REMARK  8 active torsions:
REMARK  status: ('A' for Active; 'I' for Inactive)
REMARK    1  A    between atoms: C_1  and  O_2
REMARK    2  A    between atoms: O_2  and  C_3
REMARK    3  A    between atoms: C_6  and  C_7
REMARK    4  A    between atoms: C_8  and  C_9
REMARK    5  A    between atoms: C_9  and  C_11
REMARK    6  A    between atoms: C_14  and  N_15
REMARK    7  A    between atoms: C_25  and  O_26
REMARK    8  A    between atoms: O_26  and  C_27
REMARK                            x       y       z     vdW  Elec       q    Type
REMARK                         _______ _______ _______ _____ _____    ______ ____
ROOT
ATOM      1  C   UNL     1       7.265   7.234  17.195  0.00  0.00    +0.000 C 
ATOM      2  O   UNL     1       7.978   6.760  16.320  0.00  0.00    +0.000 OA
ENDROOT
BRANCH   1   3
ATOM      3  C   UNL     1       6.109   6.471  17.738  0.00  0.00    +0.000 A 
ATOM      4  C   UNL     1       4.836   6.711  17.221  0.00  0.00    +0.000 A 
ATOM      5  C   UNL     1       3.733   5.991  17.702  0.00  0.00    +0.000 A 
ATOM      6  C   UNL     1       3.876   5.024  18.713  0.00  0.00    +0.000 A 
ATOM      7  C   UNL     1       5.165   4.797  19.215  0.00  0.00    +0.000 A 
ATOM      8  C   UNL     1       6.272   5.498  18.726  0.00  0.00    +0.000 A 
BRANCH   6   9
ATOM      9  N   UNL     1       2.759   4.289  19.203  0.00  0.00    +0.000 N 
ATOM     10  C   UNL     1       2.401   3.032  18.809  0.00  0.00    +0.000 C 
ATOM     11  O   UNL     1       2.922   2.254  18.028  0.00  0.00    +0.000 OA
ATOM     12  C   UNL     1       1.207   2.655  19.572  0.00  0.00    +0.000 C 
ATOM     13  C   UNL     1       0.896   3.669  20.374  0.00  0.00    +0.000 C 
ATOM     14  C   UNL     1       1.880   4.733  20.153  0.00  0.00    +0.000 C 
ATOM     15  O   UNL     1       1.798   5.794  20.746  0.00  0.00    +0.000 OA
ENDBRANCH   6   9
ENDBRANCH   1   3
BRANCH   1  17
ATOM     16  C   UNL     1       8.707   8.992  18.116  0.00  0.00    +0.000 C 
ATOM     17  C   UNL     1       7.482   8.593  17.749  0.00  0.00    +0.000 C 
BRANCH  16  21
ATOM     18  C   UNL     1       9.300  12.899  19.779  0.00  0.00    +0.000 A 
ATOM     19  C   UNL     1       9.263  12.696  18.391  0.00  0.00    +0.000 A 
ATOM     20  C   UNL     1       9.080  11.419  17.855  0.00  0.00    +0.000 A 
ATOM     21  C   UNL     1       8.976  10.313  18.696  0.00  0.00    +0.000 A 
ATOM     22  C   UNL     1       9.090  10.513  20.079  0.00  0.00    +0.000 A 
ATOM     23  C   UNL     1       9.268  11.789  20.633  0.00  0.00    +0.000 A 
BRANCH  18  25
ATOM     24  C   UNL     1       8.125  14.814  20.503  0.00  0.00    +0.000 C 
ATOM     25  O   UNL     1       9.380  14.162  20.303  0.00  0.00    +0.000 OA
ENDBRANCH  18  25
BRANCH  23  26
ATOM     26  O   UNL     1       9.360  11.738  21.998  0.00  0.00    +0.000 OA
ATOM     27  C   UNL     1       8.176  11.787  22.776  0.00  0.00    +0.000 C 
ENDBRANCH  23  26
ENDBRANCH  16  21
ENDBRANCH   1  17
TORSDOF 6
ENDMDL
MODEL 9
REMARK VINA RESULT:      -8.4      0.950      2.221
REMARK  Name = 
REMARK  8 active torsions:
REMARK  status: ('A' for Active; 'I' for Inactive)
REMARK    1  A    between atoms: C_1  and  O_2
REMARK    2  A    between atoms: O_2  and  C_3
REMARK    3  A    between atoms: C_6  and  C_7
REMARK    4  A    between atoms: C_8  and  C_9
REMARK    5  A    between atoms: C_9  and  C_11
REMARK    6  A    between atoms: C_14  and  N_15
REMARK    7  A    between atoms: C_25  and  O_26
REMARK    8  A    between atoms: O_26  and  C_27
REMARK                            x       y       z     vdW  Elec       q    Type
REMARK                         _______ _______ _______ _____ _____    ______ ____
ROOT
ATOM      1  C   UNL     1       7.421   6.922  17.266  0.00  0.00    +0.000 C 
ATOM      2  O   UNL     1       7.889   6.661  16.165  0.00  0.00    +0.000 OA
ENDROOT
BRANCH   1   3
ATOM      3  C   UNL     1       6.184   6.254  17.750  0.00  0.00    +0.000 A 
ATOM      4  C   UNL     1       6.247   5.453  18.890  0.00  0.00    +0.000 A 
ATOM      5  C   UNL     1       5.090   4.828  19.378  0.00  0.00    +0.000 A 
ATOM      6  C   UNL     1       3.850   4.982  18.734  0.00  0.00    +0.000 A 
ATOM      7  C   UNL     1       3.809   5.795  17.592  0.00  0.00    +0.000 A 
ATOM      8  C   UNL     1       4.955   6.436  17.112  0.00  0.00    +0.000 A 
BRANCH   6   9
ATOM      9  N   UNL     1       2.672   4.352  19.227  0.00  0.00    +0.000 N 
ATOM     10  C   UNL     1       1.851   4.851  20.197  0.00  0.00    +0.000 C 
ATOM     11  O   UNL     1       1.883   5.899  20.819  0.00  0.00    +0.000 OA
ATOM     12  C   UNL     1       0.759   3.891  20.385  0.00  0.00    +0.000 C 
ATOM     13  C   UNL     1       0.955   2.876  19.548  0.00  0.00    +0.000 C 
ATOM     14  C   UNL     1       2.182   3.151  18.793  0.00  0.00    +0.000 C 
ATOM     15  O   UNL     1       2.606   2.351  17.977  0.00  0.00    +0.000 OA
ENDBRANCH   6   9
ENDBRANCH   1   3
BRANCH   1  17
ATOM     16  C   UNL     1       8.402   9.128  17.702  0.00  0.00    +0.000 C 
ATOM     17  C   UNL     1       8.029   7.929  18.170  0.00  0.00    +0.000 C 
BRANCH  16  21
ATOM     18  C   UNL     1      10.111  12.249  20.094  0.00  0.00    +0.000 A 
ATOM     19  C   UNL     1      10.367  12.164  18.716  0.00  0.00    +0.000 A 
ATOM     20  C   UNL     1       9.815  11.138  17.944  0.00  0.00    +0.000 A 
ATOM     21  C   UNL     1       9.034  10.151  18.543  0.00  0.00    +0.000 A 
ATOM     22  C   UNL     1       8.846  10.201  19.931  0.00  0.00    +0.000 A 
ATOM     23  C   UNL     1       9.388  11.226  20.719  0.00  0.00    +0.000 A 
BRANCH  18  25
ATOM     24  C   UNL     1       9.825  14.517  20.680  0.00  0.00    +0.000 C 
ATOM     25  O   UNL     1      10.572  13.309  20.829  0.00  0.00    +0.000 OA
ENDBRANCH  18  25
BRANCH  23  26
ATOM     26  O   UNL     1       9.079  11.061  22.042  0.00  0.00    +0.000 OA
ATOM     27  C   UNL     1       8.033  11.830  22.613  0.00  0.00    +0.000 C 
ENDBRANCH  23  26
ENDBRANCH  16  21
ENDBRANCH   1  17
TORSDOF 6
ENDMDL
