MODEL 1
REMARK VINA RESULT:      -7.6      0.000      0.000
REMARK  Name = 
REMARK  8 active torsions:
REMARK  status: ('A' for Active; 'I' for Inactive)
REMARK    1  A    between atoms: C_1  and  O_2
REMARK    2  A    between atoms: O_2  and  C_3
REMARK    3  A    between atoms: C_6  and  C_7
REMARK    4  A    between atoms: C_7  and  C_8
REMARK    5  A    between atoms: C_13  and  C_14
REMARK    6  A    between atoms: C_14  and  C_15
REMARK    7  A    between atoms: C_22  and  O_23
REMARK    8  A    between atoms: O_23  and  C_24
REMARK                            x       y       z     vdW  Elec       q    Type
REMARK                         _______ _______ _______ _____ _____    ______ ____
ROOT
ATOM      1  C   UNL     1       4.260   5.346  17.457  0.00  0.00    +0.000 C 
ATOM      2  C   UNL     1       4.816   4.721  16.184  0.00  0.00    +0.000 C 
ATOM      3  O   UNL     1       6.184   4.352  16.428  0.00  0.00    +0.000 OA
ATOM      4  C   UNL     1       6.523   4.610  17.716  0.00  0.00    +0.000 C 
ATOM      5  O   UNL     1       7.660   4.440  18.153  0.00  0.00    +0.000 OA
ATOM      6  C   UNL     1       5.346   5.056  18.518  0.00  0.00    +0.000 C 
ENDROOT
BRANCH   1   7
ATOM      7  C   UNL     1       3.956   6.864  17.312  0.00  0.00    +0.000 C 
BRANCH   7  11
ATOM      8  C   UNL     1       1.158   8.739  20.124  0.00  0.00    +0.000 A 
ATOM      9  C   UNL     1       1.691   7.454  20.373  0.00  0.00    +0.000 A 
ATOM     10  C   UNL     1       2.602   6.838  19.495  0.00  0.00    +0.000 A 
ATOM     11  C   UNL     1       2.976   7.470  18.305  0.00  0.00    +0.000 A 
ATOM     12  C   UNL     1       2.345   8.678  18.014  0.00  0.00    +0.000 A 
ATOM     13  C   UNL     1       1.458   9.337  18.892  0.00  0.00    +0.000 A 
BRANCH   8  15
ATOM     14  C   UNL     1       0.887   9.237  22.421  0.00  0.00    +0.000 C 
ATOM     15  O   UNL     1       0.384   9.364  21.075  0.00  0.00    +0.000 OA
ENDBRANCH   8  15
BRANCH  13  16
ATOM     16  O   UNL     1       1.092  10.500  18.293  0.00  0.00    +0.000 OA
ATOM     17  C   UNL     1       1.484  11.791  18.687  0.00  0.00    +0.000 C 
ENDBRANCH  13  16
ENDBRANCH   7  11
ENDBRANCH   1   7
BRANCH   6  18
ATOM     18  C   UNL     1       5.029   3.924  19.529  0.00  0.00    +0.000 C 
BRANCH  18  19
ATOM     19  C   UNL     1       3.631   3.375  19.369  0.00  0.00    +0.000 A 
ATOM     20  C   UNL     1       3.305   2.520  18.308  0.00  0.00    +0.000 A 
ATOM     21  C   UNL     1       1.978   2.158  18.071  0.00  0.00    +0.000 A 
ATOM     22  C   UNL     1       0.970   2.607  18.921  0.00  0.00    +0.000 A 
ATOM     23  C   UNL     1       1.293   3.397  20.024  0.00  0.00    +0.000 A 
ATOM     24  C   UNL     1       2.616   3.783  20.244  0.00  0.00    +0.000 A 
ENDBRANCH  18  19
ENDBRANCH   6  18
TORSDOF 6
ENDMDL
MODEL 2
REMARK VINA RESULT:      -7.6      2.582      5.924
REMARK  Name = 
REMARK  8 active torsions:
REMARK  status: ('A' for Active; 'I' for Inactive)
REMARK    1  A    between atoms: C_1  and  O_2
REMARK    2  A    between atoms: O_2  and  C_3
REMARK    3  A    between atoms: C_6  and  C_7
REMARK    4  A    between atoms: C_7  and  C_8
REMARK    5  A    between atoms: C_13  and  C_14
REMARK    6  A    between atoms: C_14  and  C_15
REMARK    7  A    between atoms: C_22  and  O_23
REMARK    8  A    between atoms: O_23  and  C_24
REMARK                            x       y       z     vdW  Elec       q    Type
REMARK                         _______ _______ _______ _____ _____    ______ ____
ROOT
ATOM      1  C   UNL     1       2.782   3.457  18.947  0.00  0.00    +0.000 C 
ATOM      2  C   UNL     1       1.845   2.283  18.700  0.00  0.00    +0.000 C 
ATOM      3  O   UNL     1       1.308   1.865  19.966  0.00  0.00    +0.000 OA
ATOM      4  C   UNL     1       1.746   2.679  20.959  0.00  0.00    +0.000 C 
ATOM      5  O   UNL     1       1.477   2.489  22.145  0.00  0.00    +0.000 OA
ATOM      6  C   UNL     1       2.524   3.835  20.423  0.00  0.00    +0.000 C 
ENDROOT
BRANCH   1   7
ATOM      7  C   UNL     1       4.274   3.120  18.668  0.00  0.00    +0.000 C 
BRANCH   7  11
ATOM      8  C   UNL     1       6.868   6.355  17.234  0.00  0.00    +0.000 A 
ATOM      9  C   UNL     1       6.657   6.147  18.616  0.00  0.00    +0.000 A 
ATOM     10  C   UNL     1       5.843   5.107  19.101  0.00  0.00    +0.000 A 
ATOM     11  C   UNL     1       5.168   4.263  18.214  0.00  0.00    +0.000 A 
ATOM     12  C   UNL     1       5.286   4.560  16.857  0.00  0.00    +0.000 A 
ATOM     13  C   UNL     1       6.125   5.571  16.341  0.00  0.00    +0.000 A 
BRANCH   8  15
ATOM     14  C   UNL     1       7.881   8.451  17.654  0.00  0.00    +0.000 C 
ATOM     15  O   UNL     1       7.783   7.289  16.805  0.00  0.00    +0.000 OA
ENDBRANCH   8  15
BRANCH  13  16
ATOM     16  O   UNL     1       6.018   5.525  14.987  0.00  0.00    +0.000 OA
ATOM     17  C   UNL     1       6.721   4.660  14.131  0.00  0.00    +0.000 C 
ENDBRANCH  13  16
ENDBRANCH   7  11
ENDBRANCH   1   7
BRANCH   6  18
ATOM     18  C   UNL     1       1.672   5.107  20.664  0.00  0.00    +0.000 C 
BRANCH  18  19
ATOM     19  C   UNL     1       2.034   6.237  19.729  0.00  0.00    +0.000 A 
ATOM     20  C   UNL     1       1.973   7.573  20.149  0.00  0.00    +0.000 A 
ATOM     21  C   UNL     1       2.142   8.612  19.232  0.00  0.00    +0.000 A 
ATOM     22  C   UNL     1       2.422   8.327  17.898  0.00  0.00    +0.000 A 
ATOM     23  C   UNL     1       2.559   7.002  17.486  0.00  0.00    +0.000 A 
ATOM     24  C   UNL     1       2.362   5.962  18.395  0.00  0.00    +0.000 A 
ENDBRANCH  18  19
ENDBRANCH   6  18
TORSDOF 6
ENDMDL
MODEL 3
REMARK VINA RESULT:      -7.6      0.421      1.068
REMARK  Name = 
REMARK  8 active torsions:
REMARK  status: ('A' for Active; 'I' for Inactive)
REMARK    1  A    between atoms: C_1  and  O_2
REMARK    2  A    between atoms: O_2  and  C_3
REMARK    3  A    between atoms: C_6  and  C_7
REMARK    4  A    between atoms: C_7  and  C_8
REMARK    5  A    between atoms: C_13  and  C_14
REMARK    6  A    between atoms: C_14  and  C_15
REMARK    7  A    between atoms: C_22  and  O_23
REMARK    8  A    between atoms: O_23  and  C_24
REMARK                            x       y       z     vdW  Elec       q    Type
REMARK                         _______ _______ _______ _____ _____    ______ ____
ROOT
ATOM      1  C   UNL     1       4.214   5.488  17.449  0.00  0.00    +0.000 C 
ATOM      2  C   UNL     1       4.777   4.882  16.170  0.00  0.00    +0.000 C 
ATOM      3  O   UNL     1       6.122   4.450  16.433  0.00  0.00    +0.000 OA
ATOM      4  C   UNL     1       6.439   4.652  17.737  0.00  0.00    +0.000 C 
ATOM      5  O   UNL     1       7.557   4.421  18.194  0.00  0.00    +0.000 OA
ATOM      6  C   UNL     1       5.261   5.120  18.525  0.00  0.00    +0.000 C 
ENDROOT
BRANCH   1   7
ATOM      7  C   UNL     1       3.975   7.021  17.348  0.00  0.00    +0.000 C 
BRANCH   7  11
ATOM      8  C   UNL     1       1.095   8.898  20.076  0.00  0.00    +0.000 A 
ATOM      9  C   UNL     1       1.645   7.626  20.356  0.00  0.00    +0.000 A 
ATOM     10  C   UNL     1       2.581   7.010  19.506  0.00  0.00    +0.000 A 
ATOM     11  C   UNL     1       2.968   7.627  18.312  0.00  0.00    +0.000 A 
ATOM     12  C   UNL     1       2.323   8.821  17.989  0.00  0.00    +0.000 A 
ATOM     13  C   UNL     1       1.409   9.480  18.839  0.00  0.00    +0.000 A 
BRANCH   8  15
ATOM     14  C   UNL     1      -0.426   8.626  21.866  0.00  0.00    +0.000 C 
ATOM     15  O   UNL     1       0.295   9.527  21.001  0.00  0.00    +0.000 OA
ENDBRANCH   8  15
BRANCH  13  16
ATOM     16  O   UNL     1       1.037  10.627  18.214  0.00  0.00    +0.000 OA
ATOM     17  C   UNL     1       1.043  11.914  18.777  0.00  0.00    +0.000 C 
ENDBRANCH  13  16
ENDBRANCH   7  11
ENDBRANCH   1   7
BRANCH   6  18
ATOM     18  C   UNL     1       4.873   3.969  19.490  0.00  0.00    +0.000 C 
BRANCH  18  19
ATOM     19  C   UNL     1       3.405   3.619  19.420  0.00  0.00    +0.000 A 
ATOM     20  C   UNL     1       2.510   4.052  20.407  0.00  0.00    +0.000 A 
ATOM     21  C   UNL     1       1.196   3.582  20.426  0.00  0.00    +0.000 A 
ATOM     22  C   UNL     1       0.750   2.714  19.432  0.00  0.00    +0.000 A 
ATOM     23  C   UNL     1       1.612   2.338  18.403  0.00  0.00    +0.000 A 
ATOM     24  C   UNL     1       2.934   2.784  18.399  0.00  0.00    +0.000 A 
ENDBRANCH  18  19
ENDBRANCH   6  18
TORSDOF 6
ENDMDL
MODEL 4
REMARK VINA RESULT:      -7.5      2.495      4.870
REMARK  Name = 
REMARK  8 active torsions:
REMARK  status: ('A' for Active; 'I' for Inactive)
REMARK    1  A    between atoms: C_1  and  O_2
REMARK    2  A    between atoms: O_2  and  C_3
REMARK    3  A    between atoms: C_6  and  C_7
REMARK    4  A    between atoms: C_7  and  C_8
REMARK    5  A    between atoms: C_13  and  C_14
REMARK    6  A    between atoms: C_14  and  C_15
REMARK    7  A    between atoms: C_22  and  O_23
REMARK    8  A    between atoms: O_23  and  C_24
REMARK                            x       y       z     vdW  Elec       q    Type
REMARK                         _______ _______ _______ _____ _____    ______ ____
ROOT
ATOM      1  C   UNL     1       6.264   6.847  16.985  0.00  0.00    +0.000 C 
ATOM      2  C   UNL     1       7.305   7.847  17.469  0.00  0.00    +0.000 C 
ATOM      3  O   UNL     1       7.998   7.266  18.586  0.00  0.00    +0.000 OA
ATOM      4  C   UNL     1       7.560   6.002  18.812  0.00  0.00    +0.000 C 
ATOM      5  O   UNL     1       7.955   5.318  19.754  0.00  0.00    +0.000 OA
ATOM      6  C   UNL     1       6.608   5.551  17.754  0.00  0.00    +0.000 C 
ENDROOT
BRANCH   1   7
ATOM      7  C   UNL     1       4.802   7.317  17.230  0.00  0.00    +0.000 C 
BRANCH   7  11
ATOM      8  C   UNL     1       2.066   4.479  19.158  0.00  0.00    +0.000 A 
ATOM      9  C   UNL     1       2.729   4.151  17.954  0.00  0.00    +0.000 A 
ATOM     10  C   UNL     1       3.623   5.037  17.325  0.00  0.00    +0.000 A 
ATOM     11  C   UNL     1       3.849   6.310  17.856  0.00  0.00    +0.000 A 
ATOM     12  C   UNL     1       3.093   6.665  18.972  0.00  0.00    +0.000 A 
ATOM     13  C   UNL     1       2.219   5.785  19.645  0.00  0.00    +0.000 A 
BRANCH   8  15
ATOM     14  C   UNL     1       0.859   2.454  18.975  0.00  0.00    +0.000 C 
ATOM     15  O   UNL     1       1.313   3.534  19.816  0.00  0.00    +0.000 OA
ENDBRANCH   8  15
BRANCH  13  16
ATOM     16  O   UNL     1       1.708   6.463  20.706  0.00  0.00    +0.000 OA
ATOM     17  C   UNL     1       1.569   7.858  20.805  0.00  0.00    +0.000 C 
ENDBRANCH  13  16
ENDBRANCH   7  11
ENDBRANCH   1   7
BRANCH   6  18
ATOM     18  C   UNL     1       7.325   4.444  16.940  0.00  0.00    +0.000 C 
BRANCH  18  19
ATOM     19  C   UNL     1       6.946   4.457  15.477  0.00  0.00    +0.000 A 
ATOM     20  C   UNL     1       5.787   3.813  15.024  0.00  0.00    +0.000 A 
ATOM     21  C   UNL     1       5.538   3.684  13.656  0.00  0.00    +0.000 A 
ATOM     22  C   UNL     1       6.418   4.240  12.730  0.00  0.00    +0.000 A 
ATOM     23  C   UNL     1       7.534   4.948  13.174  0.00  0.00    +0.000 A 
ATOM     24  C   UNL     1       7.800   5.052  14.540  0.00  0.00    +0.000 A 
ENDBRANCH  18  19
ENDBRANCH   6  18
TORSDOF 6
ENDMDL
MODEL 5
REMARK VINA RESULT:      -7.4      1.633      4.089
REMARK  Name = 
REMARK  8 active torsions:
REMARK  status: ('A' for Active; 'I' for Inactive)
REMARK    1  A    between atoms: C_1  and  O_2
REMARK    2  A    between atoms: O_2  and  C_3
REMARK    3  A    between atoms: C_6  and  C_7
REMARK    4  A    between atoms: C_7  and  C_8
REMARK    5  A    between atoms: C_13  and  C_14
REMARK    6  A    between atoms: C_14  and  C_15
REMARK    7  A    between atoms: C_22  and  O_23
REMARK    8  A    between atoms: O_23  and  C_24
REMARK                            x       y       z     vdW  Elec       q    Type
REMARK                         _______ _______ _______ _____ _____    ______ ____
ROOT
ATOM      1  C   UNL     1       3.672   4.890  19.262  0.00  0.00    +0.000 C 
ATOM      2  C   UNL     1       4.320   3.797  20.103  0.00  0.00    +0.000 C 
ATOM      3  O   UNL     1       4.059   2.533  19.472  0.00  0.00    +0.000 OA
ATOM      4  C   UNL     1       3.388   2.713  18.307  0.00  0.00    +0.000 C 
ATOM      5  O   UNL     1       2.993   1.777  17.613  0.00  0.00    +0.000 OA
ATOM      6  C   UNL     1       3.253   4.160  17.966  0.00  0.00    +0.000 C 
ENDROOT
BRANCH   1   7
ATOM      7  C   UNL     1       2.475   5.582  19.972  0.00  0.00    +0.000 C 
BRANCH   7  11
ATOM      8  C   UNL     1       1.413   9.681  18.822  0.00  0.00    +0.000 A 
ATOM      9  C   UNL     1       2.110   8.830  17.933  0.00  0.00    +0.000 A 
ATOM     10  C   UNL     1       2.447   7.507  18.272  0.00  0.00    +0.000 A 
ATOM     11  C   UNL     1       2.141   7.001  19.539  0.00  0.00    +0.000 A 
ATOM     12  C   UNL     1       1.568   7.891  20.446  0.00  0.00    +0.000 A 
ATOM     13  C   UNL     1       1.184   9.210  20.122  0.00  0.00    +0.000 A 
BRANCH   8  15
ATOM     14  C   UNL     1       1.961  11.962  18.521  0.00  0.00    +0.000 C 
ATOM     15  O   UNL     1       0.976  10.916  18.401  0.00  0.00    +0.000 OA
ENDBRANCH   8  15
BRANCH  13  16
ATOM     16  O   UNL     1       0.618   9.746  21.235  0.00  0.00    +0.000 OA
ATOM     17  C   UNL     1       0.775   9.276  22.550  0.00  0.00    +0.000 C 
ENDBRANCH  13  16
ENDBRANCH   7  11
ENDBRANCH   1   7
BRANCH   6  18
ATOM     18  C   UNL     1       4.139   4.417  16.719  0.00  0.00    +0.000 C 
BRANCH  18  19
ATOM     19  C   UNL     1       5.399   5.184  17.048  0.00  0.00    +0.000 A 
ATOM     20  C   UNL     1       6.516   4.540  17.596  0.00  0.00    +0.000 A 
ATOM     21  C   UNL     1       7.607   5.282  18.054  0.00  0.00    +0.000 A 
ATOM     22  C   UNL     1       7.612   6.669  17.925  0.00  0.00    +0.000 A 
ATOM     23  C   UNL     1       6.537   7.312  17.313  0.00  0.00    +0.000 A 
ATOM     24  C   UNL     1       5.434   6.574  16.881  0.00  0.00    +0.000 A 
ENDBRANCH  18  19
ENDBRANCH   6  18
TORSDOF 6
ENDMDL
MODEL 6
REMARK VINA RESULT:      -7.4      1.753      4.152
REMARK  Name = 
REMARK  8 active torsions:
REMARK  status: ('A' for Active; 'I' for Inactive)
REMARK    1  A    between atoms: C_1  and  O_2
REMARK    2  A    between atoms: O_2  and  C_3
REMARK    3  A    between atoms: C_6  and  C_7
REMARK    4  A    between atoms: C_7  and  C_8
REMARK    5  A    between atoms: C_13  and  C_14
REMARK    6  A    between atoms: C_14  and  C_15
REMARK    7  A    between atoms: C_22  and  O_23
REMARK    8  A    between atoms: O_23  and  C_24
REMARK                            x       y       z     vdW  Elec       q    Type
REMARK                         _______ _______ _______ _____ _____    ______ ____
ROOT
ATOM      1  C   UNL     1       3.525   4.441  19.395  0.00  0.00    +0.000 C 
ATOM      2  C   UNL     1       3.901   3.106  20.024  0.00  0.00    +0.000 C 
ATOM      3  O   UNL     1       3.449   2.057  19.152  0.00  0.00    +0.000 OA
ATOM      4  C   UNL     1       2.900   2.579  18.026  0.00  0.00    +0.000 C 
ATOM      5  O   UNL     1       2.382   1.884  17.153  0.00  0.00    +0.000 OA
ATOM      6  C   UNL     1       3.061   4.062  17.971  0.00  0.00    +0.000 C 
ENDROOT
BRANCH   1   7
ATOM      7  C   UNL     1       2.435   5.210  20.193  0.00  0.00    +0.000 C 
BRANCH   7  11
ATOM      8  C   UNL     1       1.444   9.317  19.007  0.00  0.00    +0.000 A 
ATOM      9  C   UNL     1       2.004   8.405  18.083  0.00  0.00    +0.000 A 
ATOM     10  C   UNL     1       2.315   7.078  18.435  0.00  0.00    +0.000 A 
ATOM     11  C   UNL     1       2.122   6.629  19.744  0.00  0.00    +0.000 A 
ATOM     12  C   UNL     1       1.689   7.575  20.673  0.00  0.00    +0.000 A 
ATOM     13  C   UNL     1       1.333   8.900  20.341  0.00  0.00    +0.000 A 
BRANCH   8  15
ATOM     14  C   UNL     1      -0.411  10.691  18.492  0.00  0.00    +0.000 C 
ATOM     15  O   UNL     1       1.022  10.557  18.587  0.00  0.00    +0.000 OA
ENDBRANCH   8  15
BRANCH  13  16
ATOM     16  O   UNL     1       0.912   9.499  21.486  0.00  0.00    +0.000 OA
ATOM     17  C   UNL     1      -0.311   9.267  22.138  0.00  0.00    +0.000 C 
ENDBRANCH  13  16
ENDBRANCH   7  11
ENDBRANCH   1   7
BRANCH   6  18
ATOM     18  C   UNL     1       4.058   4.367  16.823  0.00  0.00    +0.000 C 
BRANCH  18  19
ATOM     19  C   UNL     1       5.250   5.173  17.285  0.00  0.00    +0.000 A 
ATOM     20  C   UNL     1       5.309   6.558  17.084  0.00  0.00    +0.000 A 
ATOM     21  C   UNL     1       6.483   7.264  17.357  0.00  0.00    +0.000 A 
ATOM     22  C   UNL     1       7.590   6.601  17.880  0.00  0.00    +0.000 A 
ATOM     23  C   UNL     1       7.515   5.236  18.155  0.00  0.00    +0.000 A 
ATOM     24  C   UNL     1       6.353   4.524  17.854  0.00  0.00    +0.000 A 
ENDBRANCH  18  19
ENDBRANCH   6  18
TORSDOF 6
ENDMDL
MODEL 7
REMARK VINA RESULT:      -7.3      2.558      6.350
REMARK  Name = 
REMARK  8 active torsions:
REMARK  status: ('A' for Active; 'I' for Inactive)
REMARK    1  A    between atoms: C_1  and  O_2
REMARK    2  A    between atoms: O_2  and  C_3
REMARK    3  A    between atoms: C_6  and  C_7
REMARK    4  A    between atoms: C_7  and  C_8
REMARK    5  A    between atoms: C_13  and  C_14
REMARK    6  A    between atoms: C_14  and  C_15
REMARK    7  A    between atoms: C_22  and  O_23
REMARK    8  A    between atoms: O_23  and  C_24
REMARK                            x       y       z     vdW  Elec       q    Type
REMARK                         _______ _______ _______ _____ _____    ______ ____
ROOT
ATOM      1  C   UNL     1       3.201   3.734  19.125  0.00  0.00    +0.000 C 
ATOM      2  C   UNL     1       2.628   2.326  19.038  0.00  0.00    +0.000 C 
ATOM      3  O   UNL     1       2.127   1.965  20.336  0.00  0.00    +0.000 OA
ATOM      4  C   UNL     1       2.258   3.003  21.200  0.00  0.00    +0.000 C 
ATOM      5  O   UNL     1       1.959   2.921  22.391  0.00  0.00    +0.000 OA
ATOM      6  C   UNL     1       2.741   4.236  20.512  0.00  0.00    +0.000 C 
ENDROOT
BRANCH   1   7
ATOM      7  C   UNL     1       4.746   3.779  18.955  0.00  0.00    +0.000 C 
BRANCH   7  11
ATOM      8  C   UNL     1       6.320   5.192  15.110  0.00  0.00    +0.000 A 
ATOM      9  C   UNL     1       5.405   4.115  15.174  0.00  0.00    +0.000 A 
ATOM     10  C   UNL     1       4.874   3.655  16.393  0.00  0.00    +0.000 A 
ATOM     11  C   UNL     1       5.279   4.226  17.603  0.00  0.00    +0.000 A 
ATOM     12  C   UNL     1       6.275   5.199  17.532  0.00  0.00    +0.000 A 
ATOM     13  C   UNL     1       6.797   5.707  16.323  0.00  0.00    +0.000 A 
BRANCH   8  15
ATOM     14  C   UNL     1       7.770   4.973  13.255  0.00  0.00    +0.000 C 
ATOM     15  O   UNL     1       6.703   5.704  13.892  0.00  0.00    +0.000 OA
ENDBRANCH   8  15
BRANCH  13  16
ATOM     16  O   UNL     1       7.699   6.670  16.651  0.00  0.00    +0.000 OA
ATOM     17  C   UNL     1       7.660   7.483  17.796  0.00  0.00    +0.000 C 
ENDBRANCH  13  16
ENDBRANCH   7  11
ENDBRANCH   1   7
BRANCH   6  18
ATOM     18  C   UNL     1       1.568   5.250  20.518  0.00  0.00    +0.000 C 
BRANCH  18  19
ATOM     19  C   UNL     1       1.907   6.538  19.806  0.00  0.00    +0.000 A 
ATOM     20  C   UNL     1       1.571   7.781  20.360  0.00  0.00    +0.000 A 
ATOM     21  C   UNL     1       1.733   8.953  19.619  0.00  0.00    +0.000 A 
ATOM     22  C   UNL     1       2.277   8.900  18.338  0.00  0.00    +0.000 A 
ATOM     23  C   UNL     1       2.684   7.677  17.808  0.00  0.00    +0.000 A 
ATOM     24  C   UNL     1       2.495   6.501  18.536  0.00  0.00    +0.000 A 
ENDBRANCH  18  19
ENDBRANCH   6  18
TORSDOF 6
ENDMDL
MODEL 8
REMARK VINA RESULT:      -7.3      1.055      1.349
REMARK  Name = 
REMARK  8 active torsions:
REMARK  status: ('A' for Active; 'I' for Inactive)
REMARK    1  A    between atoms: C_1  and  O_2
REMARK    2  A    between atoms: O_2  and  C_3
REMARK    3  A    between atoms: C_6  and  C_7
REMARK    4  A    between atoms: C_7  and  C_8
REMARK    5  A    between atoms: C_13  and  C_14
REMARK    6  A    between atoms: C_14  and  C_15
REMARK    7  A    between atoms: C_22  and  O_23
REMARK    8  A    between atoms: O_23  and  C_24
REMARK                            x       y       z     vdW  Elec       q    Type
REMARK                         _______ _______ _______ _____ _____    ______ ____
ROOT
ATOM      1  C   UNL     1       4.662   5.684  16.479  0.00  0.00    +0.000 C 
ATOM      2  C   UNL     1       6.085   5.545  15.955  0.00  0.00    +0.000 C 
ATOM      3  O   UNL     1       6.877   4.911  16.973  0.00  0.00    +0.000 OA
ATOM      4  C   UNL     1       6.104   4.578  18.038  0.00  0.00    +0.000 C 
ATOM      5  O   UNL     1       6.563   4.081  19.065  0.00  0.00    +0.000 OA
ATOM      6  C   UNL     1       4.658   4.836  17.771  0.00  0.00    +0.000 C 
ENDROOT
BRANCH   1   7
ATOM      7  C   UNL     1       4.242   7.159  16.731  0.00  0.00    +0.000 C 
BRANCH   7  11
ATOM      8  C   UNL     1       1.464   8.038  20.012  0.00  0.00    +0.000 A 
ATOM      9  C   UNL     1       2.255   6.866  20.019  0.00  0.00    +0.000 A 
ATOM     10  C   UNL     1       3.164   6.571  18.987  0.00  0.00    +0.000 A 
ATOM     11  C   UNL     1       3.280   7.416  17.880  0.00  0.00    +0.000 A 
ATOM     12  C   UNL     1       2.403   8.500  17.828  0.00  0.00    +0.000 A 
ATOM     13  C   UNL     1       1.510   8.843  18.864  0.00  0.00    +0.000 A 
BRANCH   8  15
ATOM     14  C   UNL     1       1.337   9.262  22.032  0.00  0.00    +0.000 C 
ATOM     15  O   UNL     1       0.695   8.362  21.106  0.00  0.00    +0.000 OA
ENDBRANCH   8  15
BRANCH  13  16
ATOM     16  O   UNL     1       0.868   9.977  18.480  0.00  0.00    +0.000 OA
ATOM     17  C   UNL     1      -0.489  10.271  18.697  0.00  0.00    +0.000 C 
ENDBRANCH  13  16
ENDBRANCH   7  11
ENDBRANCH   1   7
BRANCH   6  18
ATOM     18  C   UNL     1       3.960   3.454  17.681  0.00  0.00    +0.000 C 
BRANCH  18  19
ATOM     19  C   UNL     1       3.003   3.210  18.824  0.00  0.00    +0.000 A 
ATOM     20  C   UNL     1       1.618   3.332  18.648  0.00  0.00    +0.000 A 
ATOM     21  C   UNL     1       0.757   3.273  19.745  0.00  0.00    +0.000 A 
ATOM     22  C   UNL     1       1.266   3.044  21.021  0.00  0.00    +0.000 A 
ATOM     23  C   UNL     1       2.634   2.846  21.196  0.00  0.00    +0.000 A 
ATOM     24  C   UNL     1       3.500   2.934  20.104  0.00  0.00    +0.000 A 
ENDBRANCH  18  19
ENDBRANCH   6  18
TORSDOF 6
ENDMDL
MODEL 9
REMARK VINA RESULT:      -7.3      2.365      4.579
REMARK  Name = 
REMARK  8 active torsions:
REMARK  status: ('A' for Active; 'I' for Inactive)
REMARK    1  A    between atoms: C_1  and  O_2
REMARK    2  A    between atoms: O_2  and  C_3
REMARK    3  A    between atoms: C_6  and  C_7
REMARK    4  A    between atoms: C_7  and  C_8
REMARK    5  A    between atoms: C_13  and  C_14
REMARK    6  A    between atoms: C_14  and  C_15
REMARK    7  A    between atoms: C_22  and  O_23
REMARK    8  A    between atoms: O_23  and  C_24
REMARK                            x       y       z     vdW  Elec       q    Type
REMARK                         _______ _______ _______ _____ _____    ______ ____
ROOT
ATOM      1  C   UNL     1       6.134   6.680  17.135  0.00  0.00    +0.000 C 
ATOM      2  C   UNL     1       7.223   7.693  17.461  0.00  0.00    +0.000 C 
ATOM      3  O   UNL     1       7.931   7.232  18.623  0.00  0.00    +0.000 OA
ATOM      4  C   UNL     1       7.459   6.022  19.018  0.00  0.00    +0.000 C 
ATOM      5  O   UNL     1       7.860   5.447  20.028  0.00  0.00    +0.000 OA
ATOM      6  C   UNL     1       6.459   5.478  18.052  0.00  0.00    +0.000 C 
ENDROOT
BRANCH   1   7
ATOM      7  C   UNL     1       4.697   7.230  17.359  0.00  0.00    +0.000 C 
BRANCH   7  11
ATOM      8  C   UNL     1       1.812   4.587  19.346  0.00  0.00    +0.000 A 
ATOM      9  C   UNL     1       2.448   4.202  18.143  0.00  0.00    +0.000 A 
ATOM     10  C   UNL     1       3.388   5.024  17.496  0.00  0.00    +0.000 A 
ATOM     11  C   UNL     1       3.691   6.290  18.005  0.00  0.00    +0.000 A 
ATOM     12  C   UNL     1       2.963   6.706  19.120  0.00  0.00    +0.000 A 
ATOM     13  C   UNL     1       2.044   5.889  19.812  0.00  0.00    +0.000 A 
BRANCH   8  15
ATOM     14  C   UNL     1       1.634   3.100  21.177  0.00  0.00    +0.000 C 
ATOM     15  O   UNL     1       1.010   3.697  20.022  0.00  0.00    +0.000 OA
ENDBRANCH   8  15
BRANCH  13  16
ATOM     16  O   UNL     1       1.579   6.613  20.864  0.00  0.00    +0.000 OA
ATOM     17  C   UNL     1       1.431   8.010  20.904  0.00  0.00    +0.000 C 
ENDBRANCH  13  16
ENDBRANCH   7  11
ENDBRANCH   1   7
BRANCH   6  18
ATOM     18  C   UNL     1       7.113   4.252  17.365  0.00  0.00    +0.000 C 
BRANCH  18  19
ATOM     19  C   UNL     1       6.867   4.218  15.874  0.00  0.00    +0.000 A 
ATOM     20  C   UNL     1       7.698   4.914  14.987  0.00  0.00    +0.000 A 
ATOM     21  C   UNL     1       7.363   5.018  13.636  0.00  0.00    +0.000 A 
ATOM     22  C   UNL     1       6.220   4.387  13.150  0.00  0.00    +0.000 A 
ATOM     23  C   UNL     1       5.427   3.630  14.010  0.00  0.00    +0.000 A 
ATOM     24  C   UNL     1       5.746   3.550  15.367  0.00  0.00    +0.000 A 
ENDBRANCH  18  19
ENDBRANCH   6  18
TORSDOF 6
ENDMDL
