MODEL 1
REMARK VINA RESULT:      -7.1      0.000      0.000
REMARK  Name = 
REMARK  14 active torsions:
REMARK  status: ('A' for Active; 'I' for Inactive)
REMARK    1  A    between atoms: C_2  and  O_3
REMARK    2  A    between atoms: C_2  and  C_4
REMARK    3  A    between atoms: C_4  and  C_5
REMARK    4  A    between atoms: C_5  and  C_6
REMARK    5  A    between atoms: C_6  and  C_7
REMARK    6  A    between atoms: C_7  and  C_8
REMARK    7  A    between atoms: C_8  and  C_9
REMARK    8  A    between atoms: C_9  and  C_10
REMARK    9  A    between atoms: C_10  and  O_11
REMARK   10  A    between atoms: O_11  and  C_12
REMARK   11  A    between atoms: C_15  and  N_16
REMARK   12  A    between atoms: C_17  and  C_19
REMARK   13  A    between atoms: C_20  and  O_21
REMARK   14  A    between atoms: N_23  and  C_24
REMARK                            x       y       z     vdW  Elec       q    Type
REMARK                         _______ _______ _______ _____ _____    ______ ____
ROOT
ATOM      1  N   UNL     1       1.697   8.778  18.525  0.00  0.00    +0.000 N 
ATOM      2  C   UNL     1       1.220   8.860  19.819  0.00  0.00    +0.000 C 
ATOM      3  O   UNL     1       1.471   8.097  20.752  0.00  0.00    +0.000 OA
ATOM      4  H   UNL     1       1.481   9.547  17.887  0.00  0.00    +0.000 HD
ENDROOT
BRANCH   1   8
ATOM      5  C   UNL     1       4.303   5.735  17.180  0.00  0.00    +0.000 A 
ATOM      6  C   UNL     1       3.003   5.439  17.587  0.00  0.00    +0.000 A 
ATOM      7  C   UNL     1       2.138   6.440  18.003  0.00  0.00    +0.000 A 
ATOM      8  C   UNL     1       2.550   7.766  18.044  0.00  0.00    +0.000 A 
ATOM      9  C   UNL     1       3.840   8.088  17.604  0.00  0.00    +0.000 A 
ATOM     10  C   UNL     1       4.718   7.070  17.183  0.00  0.00    +0.000 A 
BRANCH   5  11
ATOM     11  O   UNL     1       5.209   4.785  16.767  0.00  0.00    +0.000 OA
BRANCH  11  12
ATOM     12  C   UNL     1       5.052   3.521  17.426  0.00  0.00    +0.000 C 
BRANCH  12  13
ATOM     13  C   UNL     1       5.210   3.640  18.931  0.00  0.00    +0.000 C 
BRANCH  13  14
ATOM     14  C   UNL     1       4.357   2.566  19.613  0.00  0.00    +0.000 C 
BRANCH  14  15
ATOM     15  C   UNL     1       3.415   1.898  18.621  0.00  0.00    +0.000 C 
BRANCH  15  16
ATOM     16  C   UNL     1       2.001   1.763  19.187  0.00  0.00    +0.000 C 
BRANCH  16  17
ATOM     17  C   UNL     1       1.252   3.089  19.069  0.00  0.00    +0.000 C 
BRANCH  17  18
ATOM     18  C   UNL     1       0.716   3.560  20.417  0.00  0.00    +0.000 C 
BRANCH  18  20
ATOM     19  O   UNL     1       2.242   3.194  22.277  0.00  0.00    +0.000 OA
ATOM     20  C   UNL     1       1.835   3.907  21.369  0.00  0.00    +0.000 C 
BRANCH  20  21
ATOM     21  O   UNL     1       2.356   5.133  21.099  0.00  0.00    +0.000 OA
ATOM     22  H   UNL     1       3.106   5.133  20.468  0.00  0.00    +0.000 HD
ENDBRANCH  20  21
ENDBRANCH  18  20
ENDBRANCH  17  18
ENDBRANCH  16  17
ENDBRANCH  15  16
ENDBRANCH  14  15
ENDBRANCH  13  14
ENDBRANCH  12  13
ENDBRANCH  11  12
ENDBRANCH   5  11
ENDBRANCH   1   8
BRANCH   2  23
ATOM     23  C   UNL     1       0.354  10.006  20.097  0.00  0.00    +0.000 C 
ATOM     24  C   UNL     1      -0.396  10.649  19.196  0.00  0.00    +0.000 C 
ATOM     25  C   UNL     1      -1.213  11.744  19.788  0.00  0.00    +0.000 C 
ATOM     26  N   UNL     1      -0.814  11.680  21.176  0.00  0.00    +0.000 N 
ATOM     27  C   UNL     1       0.103  10.655  21.387  0.00  0.00    +0.000 C 
ATOM     28  O   UNL     1       0.643  10.264  22.416  0.00  0.00    +0.000 OA
BRANCH  26  29
ATOM     29  C   UNL     1      -1.340  12.543  22.172  0.00  0.00    +0.000 A 
ATOM     30  C   UNL     1      -0.637  13.680  22.591  0.00  0.00    +0.000 A 
ATOM     31  C   UNL     1      -1.137  14.516  23.592  0.00  0.00    +0.000 A 
ATOM     32  C   UNL     1      -2.356  14.224  24.188  0.00  0.00    +0.000 A 
ATOM     33 CL   UNL     1      -2.965  15.240  25.432  0.00  0.00    +0.000 Cl
ATOM     34  C   UNL     1      -3.083  13.110  23.779  0.00  0.00    +0.000 A 
ATOM     35  C   UNL     1      -2.580  12.277  22.771  0.00  0.00    +0.000 A 
ENDBRANCH  26  29
BRANCH  24  36
ATOM     36  O   UNL     1      -0.485  10.379  17.853  0.00  0.00    +0.000 OA
ATOM     37  H   UNL     1      -1.437  10.406  17.603  0.00  0.00    +0.000 HD
ENDBRANCH  24  36
ENDBRANCH   2  23
TORSDOF 14
ENDMDL
MODEL 2
REMARK VINA RESULT:      -7.1      2.033      2.921
REMARK  Name = 
REMARK  14 active torsions:
REMARK  status: ('A' for Active; 'I' for Inactive)
REMARK    1  A    between atoms: C_2  and  O_3
REMARK    2  A    between atoms: C_2  and  C_4
REMARK    3  A    between atoms: C_4  and  C_5
REMARK    4  A    between atoms: C_5  and  C_6
REMARK    5  A    between atoms: C_6  and  C_7
REMARK    6  A    between atoms: C_7  and  C_8
REMARK    7  A    between atoms: C_8  and  C_9
REMARK    8  A    between atoms: C_9  and  C_10
REMARK    9  A    between atoms: C_10  and  O_11
REMARK   10  A    between atoms: O_11  and  C_12
REMARK   11  A    between atoms: C_15  and  N_16
REMARK   12  A    between atoms: C_17  and  C_19
REMARK   13  A    between atoms: C_20  and  O_21
REMARK   14  A    between atoms: N_23  and  C_24
REMARK                            x       y       z     vdW  Elec       q    Type
REMARK                         _______ _______ _______ _____ _____    ______ ____
ROOT
ATOM      1  N   UNL     1       0.394   9.264  20.416  0.00  0.00    +0.000 N 
ATOM      2  C   UNL     1       0.428  10.638  20.565  0.00  0.00    +0.000 C 
ATOM      3  O   UNL     1       1.227  11.420  20.049  0.00  0.00    +0.000 OA
ATOM      4  H   UNL     1      -0.394   8.760  20.827  0.00  0.00    +0.000 HD
ENDROOT
BRANCH   1   8
ATOM      5  C   UNL     1       3.218   7.081  18.152  0.00  0.00    +0.000 A 
ATOM      6  C   UNL     1       2.833   6.656  19.424  0.00  0.00    +0.000 A 
ATOM      7  C   UNL     1       1.886   7.357  20.156  0.00  0.00    +0.000 A 
ATOM      8  C   UNL     1       1.308   8.515  19.651  0.00  0.00    +0.000 A 
ATOM      9  C   UNL     1       1.654   8.937  18.362  0.00  0.00    +0.000 A 
ATOM     10  C   UNL     1       2.617   8.226  17.619  0.00  0.00    +0.000 A 
BRANCH   5  11
ATOM     11  O   UNL     1       4.157   6.435  17.382  0.00  0.00    +0.000 OA
BRANCH  11  12
ATOM     12  C   UNL     1       5.218   5.848  18.148  0.00  0.00    +0.000 C 
BRANCH  12  13
ATOM     13  C   UNL     1       5.671   4.520  17.567  0.00  0.00    +0.000 C 
BRANCH  13  14
ATOM     14  C   UNL     1       4.465   3.803  16.950  0.00  0.00    +0.000 C 
BRANCH  14  15
ATOM     15  C   UNL     1       3.775   2.909  17.971  0.00  0.00    +0.000 C 
BRANCH  15  16
ATOM     16  C   UNL     1       2.419   2.418  17.466  0.00  0.00    +0.000 C 
BRANCH  16  17
ATOM     17  C   UNL     1       1.410   2.372  18.613  0.00  0.00    +0.000 C 
BRANCH  17  18
ATOM     18  C   UNL     1       2.099   2.339  19.974  0.00  0.00    +0.000 C 
BRANCH  18  20
ATOM     19  O   UNL     1       2.250   3.909  21.826  0.00  0.00    +0.000 OA
ATOM     20  C   UNL     1       1.644   3.479  20.853  0.00  0.00    +0.000 C 
BRANCH  20  21
ATOM     21  O   UNL     1       0.457   3.989  20.433  0.00  0.00    +0.000 OA
ATOM     22  H   UNL     1      -0.179   3.326  20.090  0.00  0.00    +0.000 HD
ENDBRANCH  20  21
ENDBRANCH  18  20
ENDBRANCH  17  18
ENDBRANCH  16  17
ENDBRANCH  15  16
ENDBRANCH  14  15
ENDBRANCH  13  14
ENDBRANCH  12  13
ENDBRANCH  11  12
ENDBRANCH   5  11
ENDBRANCH   1   8
BRANCH   2  23
ATOM     23  C   UNL     1      -0.631  11.205  21.400  0.00  0.00    +0.000 C 
ATOM     24  C   UNL     1      -0.799  10.970  22.706  0.00  0.00    +0.000 C 
ATOM     25  C   UNL     1      -1.934  11.732  23.295  0.00  0.00    +0.000 C 
ATOM     26  N   UNL     1      -2.440  12.434  22.138  0.00  0.00    +0.000 N 
ATOM     27  C   UNL     1      -1.681  12.148  21.007  0.00  0.00    +0.000 C 
ATOM     28  O   UNL     1      -1.769  12.568  19.858  0.00  0.00    +0.000 OA
BRANCH  26  29
ATOM     29  C   UNL     1      -3.546  13.321  22.195  0.00  0.00    +0.000 A 
ATOM     30  C   UNL     1      -4.862  12.841  22.163  0.00  0.00    +0.000 A 
ATOM     31  C   UNL     1      -5.954  13.713  22.188  0.00  0.00    +0.000 A 
ATOM     32  C   UNL     1      -5.741  15.083  22.248  0.00  0.00    +0.000 A 
ATOM     33 CL   UNL     1      -7.082  16.157  22.261  0.00  0.00    +0.000 Cl
ATOM     34  C   UNL     1      -4.444  15.585  22.297  0.00  0.00    +0.000 A 
ATOM     35  C   UNL     1      -3.352  14.708  22.277  0.00  0.00    +0.000 A 
ENDBRANCH  26  29
BRANCH  24  36
ATOM     36  O   UNL     1      -0.039  10.151  23.501  0.00  0.00    +0.000 OA
ATOM     37  H   UNL     1       0.404  10.714  24.178  0.00  0.00    +0.000 HD
ENDBRANCH  24  36
ENDBRANCH   2  23
TORSDOF 14
ENDMDL
MODEL 3
REMARK VINA RESULT:      -7.0      1.956      2.507
REMARK  Name = 
REMARK  14 active torsions:
REMARK  status: ('A' for Active; 'I' for Inactive)
REMARK    1  A    between atoms: C_2  and  O_3
REMARK    2  A    between atoms: C_2  and  C_4
REMARK    3  A    between atoms: C_4  and  C_5
REMARK    4  A    between atoms: C_5  and  C_6
REMARK    5  A    between atoms: C_6  and  C_7
REMARK    6  A    between atoms: C_7  and  C_8
REMARK    7  A    between atoms: C_8  and  C_9
REMARK    8  A    between atoms: C_9  and  C_10
REMARK    9  A    between atoms: C_10  and  O_11
REMARK   10  A    between atoms: O_11  and  C_12
REMARK   11  A    between atoms: C_15  and  N_16
REMARK   12  A    between atoms: C_17  and  C_19
REMARK   13  A    between atoms: C_20  and  O_21
REMARK   14  A    between atoms: N_23  and  C_24
REMARK                            x       y       z     vdW  Elec       q    Type
REMARK                         _______ _______ _______ _____ _____    ______ ____
ROOT
ATOM      1  N   UNL     1       0.897   9.104  19.934  0.00  0.00    +0.000 N 
ATOM      2  C   UNL     1       0.932   9.480  21.264  0.00  0.00    +0.000 C 
ATOM      3  O   UNL     1       1.785   9.178  22.098  0.00  0.00    +0.000 OA
ATOM      4  H   UNL     1       0.178   9.520  19.339  0.00  0.00    +0.000 HD
ENDROOT
BRANCH   1   8
ATOM      5  C   UNL     1       3.819   6.664  18.098  0.00  0.00    +0.000 A 
ATOM      6  C   UNL     1       3.251   6.308  19.320  0.00  0.00    +0.000 A 
ATOM      7  C   UNL     1       2.272   7.094  19.910  0.00  0.00    +0.000 A 
ATOM      8  C   UNL     1       1.845   8.270  19.309  0.00  0.00    +0.000 A 
ATOM      9  C   UNL     1       2.376   8.626  18.063  0.00  0.00    +0.000 A 
ATOM     10  C   UNL     1       3.371   7.828  17.465  0.00  0.00    +0.000 A 
BRANCH   5  11
ATOM     11  O   UNL     1       4.800   5.932  17.468  0.00  0.00    +0.000 OA
BRANCH  11  12
ATOM     12  C   UNL     1       4.288   5.004  16.502  0.00  0.00    +0.000 C 
BRANCH  12  13
ATOM     13  C   UNL     1       4.713   3.578  16.803  0.00  0.00    +0.000 C 
BRANCH  13  14
ATOM     14  C   UNL     1       4.118   3.148  18.148  0.00  0.00    +0.000 C 
BRANCH  14  15
ATOM     15  C   UNL     1       3.409   1.805  18.033  0.00  0.00    +0.000 C 
BRANCH  15  16
ATOM     16  C   UNL     1       2.056   1.818  18.743  0.00  0.00    +0.000 C 
BRANCH  16  17
ATOM     17  C   UNL     1       1.582   3.255  18.958  0.00  0.00    +0.000 C 
BRANCH  17  18
ATOM     18  C   UNL     1       0.753   3.394  20.231  0.00  0.00    +0.000 C 
BRANCH  18  20
ATOM     19  O   UNL     1       1.352   2.272  22.305  0.00  0.00    +0.000 OA
ATOM     20  C   UNL     1       1.582   3.132  21.465  0.00  0.00    +0.000 C 
BRANCH  20  21
ATOM     21  O   UNL     1       2.642   3.979  21.541  0.00  0.00    +0.000 OA
ATOM     22  H   UNL     1       3.290   3.768  22.246  0.00  0.00    +0.000 HD
ENDBRANCH  20  21
ENDBRANCH  18  20
ENDBRANCH  17  18
ENDBRANCH  16  17
ENDBRANCH  15  16
ENDBRANCH  14  15
ENDBRANCH  13  14
ENDBRANCH  12  13
ENDBRANCH  11  12
ENDBRANCH   5  11
ENDBRANCH   1   8
BRANCH   2  23
ATOM     23  C   UNL     1      -0.153  10.363  21.694  0.00  0.00    +0.000 C 
ATOM     24  C   UNL     1      -0.662  10.421  22.929  0.00  0.00    +0.000 C 
ATOM     25  C   UNL     1      -1.723  11.454  23.077  0.00  0.00    +0.000 C 
ATOM     26  N   UNL     1      -1.795  11.985  21.734  0.00  0.00    +0.000 N 
ATOM     27  C   UNL     1      -0.870  11.364  20.900  0.00  0.00    +0.000 C 
ATOM     28  O   UNL     1      -0.603  11.556  19.719  0.00  0.00    +0.000 OA
BRANCH  26  29
ATOM     29  C   UNL     1      -2.680  13.030  21.362  0.00  0.00    +0.000 A 
ATOM     30  C   UNL     1      -2.326  14.374  21.535  0.00  0.00    +0.000 A 
ATOM     31  C   UNL     1      -3.206  15.406  21.198  0.00  0.00    +0.000 A 
ATOM     32  C   UNL     1      -4.457  15.103  20.678  0.00  0.00    +0.000 A 
ATOM     33 CL   UNL     1      -5.547  16.369  20.280  0.00  0.00    +0.000 Cl
ATOM     34  C   UNL     1      -4.827  13.776  20.481  0.00  0.00    +0.000 A 
ATOM     35  C   UNL     1      -3.940  12.745  20.815  0.00  0.00    +0.000 A 
ENDBRANCH  26  29
BRANCH  24  36
ATOM     36  O   UNL     1      -0.289   9.665  24.012  0.00  0.00    +0.000 OA
ATOM     37  H   UNL     1      -1.002   9.734  24.688  0.00  0.00    +0.000 HD
ENDBRANCH  24  36
ENDBRANCH   2  23
TORSDOF 14
ENDMDL
MODEL 4
REMARK VINA RESULT:      -7.0      2.582      3.449
REMARK  Name = 
REMARK  14 active torsions:
REMARK  status: ('A' for Active; 'I' for Inactive)
REMARK    1  A    between atoms: C_2  and  O_3
REMARK    2  A    between atoms: C_2  and  C_4
REMARK    3  A    between atoms: C_4  and  C_5
REMARK    4  A    between atoms: C_5  and  C_6
REMARK    5  A    between atoms: C_6  and  C_7
REMARK    6  A    between atoms: C_7  and  C_8
REMARK    7  A    between atoms: C_8  and  C_9
REMARK    8  A    between atoms: C_9  and  C_10
REMARK    9  A    between atoms: C_10  and  O_11
REMARK   10  A    between atoms: O_11  and  C_12
REMARK   11  A    between atoms: C_15  and  N_16
REMARK   12  A    between atoms: C_17  and  C_19
REMARK   13  A    between atoms: C_20  and  O_21
REMARK   14  A    between atoms: N_23  and  C_24
REMARK                            x       y       z     vdW  Elec       q    Type
REMARK                         _______ _______ _______ _____ _____    ______ ____
ROOT
ATOM      1  N   UNL     1       1.327   8.576  19.091  0.00  0.00    +0.000 N 
ATOM      2  C   UNL     1       1.276   9.907  18.722  0.00  0.00    +0.000 C 
ATOM      3  O   UNL     1       2.110  10.527  18.063  0.00  0.00    +0.000 OA
ATOM      4  H   UNL     1       0.507   8.176  19.551  0.00  0.00    +0.000 HD
ENDROOT
BRANCH   1   8
ATOM      5  C   UNL     1       4.569   6.007  18.222  0.00  0.00    +0.000 A 
ATOM      6  C   UNL     1       3.763   5.794  19.339  0.00  0.00    +0.000 A 
ATOM      7  C   UNL     1       2.682   6.619  19.610  0.00  0.00    +0.000 A 
ATOM      8  C   UNL     1       2.384   7.697  18.786  0.00  0.00    +0.000 A 
ATOM      9  C   UNL     1       3.160   7.906  17.638  0.00  0.00    +0.000 A 
ATOM     10  C   UNL     1       4.258   7.068  17.365  0.00  0.00    +0.000 A 
BRANCH   5  11
ATOM     11  O   UNL     1       5.659   5.230  17.906  0.00  0.00    +0.000 OA
BRANCH  11  12
ATOM     12  C   UNL     1       5.322   3.869  17.602  0.00  0.00    +0.000 C 
BRANCH  12  13
ATOM     13  C   UNL     1       4.307   3.772  16.478  0.00  0.00    +0.000 C 
BRANCH  13  14
ATOM     14  C   UNL     1       2.993   3.211  17.032  0.00  0.00    +0.000 C 
BRANCH  14  15
ATOM     15  C   UNL     1       3.230   1.929  17.818  0.00  0.00    +0.000 C 
BRANCH  15  16
ATOM     16  C   UNL     1       2.655   2.019  19.232  0.00  0.00    +0.000 C 
BRANCH  16  17
ATOM     17  C   UNL     1       1.190   2.448  19.183  0.00  0.00    +0.000 C 
BRANCH  17  18
ATOM     18  C   UNL     1       0.858   3.460  20.275  0.00  0.00    +0.000 C 
BRANCH  18  20
ATOM     19  O   UNL     1       1.270   2.135  22.274  0.00  0.00    +0.000 OA
ATOM     20  C   UNL     1       1.532   3.109  21.580  0.00  0.00    +0.000 C 
BRANCH  20  21
ATOM     21  O   UNL     1       2.488   4.017  21.907  0.00  0.00    +0.000 OA
ATOM     22  H   UNL     1       2.188   4.950  21.908  0.00  0.00    +0.000 HD
ENDBRANCH  20  21
ENDBRANCH  18  20
ENDBRANCH  17  18
ENDBRANCH  16  17
ENDBRANCH  15  16
ENDBRANCH  14  15
ENDBRANCH  13  14
ENDBRANCH  12  13
ENDBRANCH  11  12
ENDBRANCH   5  11
ENDBRANCH   1   8
BRANCH   2  23
ATOM     23  C   UNL     1       0.072  10.627  19.141  0.00  0.00    +0.000 C 
ATOM     24  C   UNL     1      -0.033  11.395  20.230  0.00  0.00    +0.000 C 
ATOM     25  C   UNL     1      -1.367  12.041  20.364  0.00  0.00    +0.000 C 
ATOM     26  N   UNL     1      -2.056  11.518  19.206  0.00  0.00    +0.000 N 
ATOM     27  C   UNL     1      -1.224  10.688  18.461  0.00  0.00    +0.000 C 
ATOM     28  O   UNL     1      -1.424  10.092  17.408  0.00  0.00    +0.000 OA
BRANCH  26  29
ATOM     29  C   UNL     1      -3.395  11.860  18.883  0.00  0.00    +0.000 A 
ATOM     30  C   UNL     1      -3.941  11.546  17.632  0.00  0.00    +0.000 A 
ATOM     31  C   UNL     1      -5.249  11.907  17.299  0.00  0.00    +0.000 A 
ATOM     32  C   UNL     1      -6.031  12.589  18.221  0.00  0.00    +0.000 A 
ATOM     33 CL   UNL     1      -7.634  13.050  17.807  0.00  0.00    +0.000 Cl
ATOM     34  C   UNL     1      -5.519  12.899  19.477  0.00  0.00    +0.000 A 
ATOM     35  C   UNL     1      -4.209  12.531  19.808  0.00  0.00    +0.000 A 
ENDBRANCH  26  29
BRANCH  24  36
ATOM     36  O   UNL     1       0.942  11.639  21.165  0.00  0.00    +0.000 OA
ATOM     37  H   UNL     1       1.708  11.055  20.960  0.00  0.00    +0.000 HD
ENDBRANCH  24  36
ENDBRANCH   2  23
TORSDOF 14
ENDMDL
MODEL 5
REMARK VINA RESULT:      -7.0      1.180      1.529
REMARK  Name = 
REMARK  14 active torsions:
REMARK  status: ('A' for Active; 'I' for Inactive)
REMARK    1  A    between atoms: C_2  and  O_3
REMARK    2  A    between atoms: C_2  and  C_4
REMARK    3  A    between atoms: C_4  and  C_5
REMARK    4  A    between atoms: C_5  and  C_6
REMARK    5  A    between atoms: C_6  and  C_7
REMARK    6  A    between atoms: C_7  and  C_8
REMARK    7  A    between atoms: C_8  and  C_9
REMARK    8  A    between atoms: C_9  and  C_10
REMARK    9  A    between atoms: C_10  and  O_11
REMARK   10  A    between atoms: O_11  and  C_12
REMARK   11  A    between atoms: C_15  and  N_16
REMARK   12  A    between atoms: C_17  and  C_19
REMARK   13  A    between atoms: C_20  and  O_21
REMARK   14  A    between atoms: N_23  and  C_24
REMARK                            x       y       z     vdW  Elec       q    Type
REMARK                         _______ _______ _______ _____ _____    ______ ____
ROOT
ATOM      1  N   UNL     1       1.499   8.854  19.207  0.00  0.00    +0.000 N 
ATOM      2  C   UNL     1       1.209  10.017  18.518  0.00  0.00    +0.000 C 
ATOM      3  O   UNL     1       1.714  10.398  17.462  0.00  0.00    +0.000 OA
ATOM      4  H   UNL     1       0.920   8.624  20.018  0.00  0.00    +0.000 HD
ENDROOT
BRANCH   1   8
ATOM      5  C   UNL     1       4.316   5.947  17.995  0.00  0.00    +0.000 A 
ATOM      6  C   UNL     1       4.057   7.068  17.208  0.00  0.00    +0.000 A 
ATOM      7  C   UNL     1       3.153   8.036  17.618  0.00  0.00    +0.000 A 
ATOM      8  C   UNL     1       2.464   7.906  18.817  0.00  0.00    +0.000 A 
ATOM      9  C   UNL     1       2.738   6.806  19.639  0.00  0.00    +0.000 A 
ATOM     10  C   UNL     1       3.655   5.823  19.221  0.00  0.00    +0.000 A 
BRANCH   5  11
ATOM     11  O   UNL     1       5.194   4.948  17.639  0.00  0.00    +0.000 OA
BRANCH  11  12
ATOM     12  C   UNL     1       4.546   3.719  17.284  0.00  0.00    +0.000 C 
BRANCH  12  13
ATOM     13  C   UNL     1       4.423   2.778  18.470  0.00  0.00    +0.000 C 
BRANCH  13  14
ATOM     14  C   UNL     1       3.443   1.654  18.121  0.00  0.00    +0.000 C 
BRANCH  14  15
ATOM     15  C   UNL     1       2.028   2.190  17.953  0.00  0.00    +0.000 C 
BRANCH  15  16
ATOM     16  C   UNL     1       1.205   2.021  19.230  0.00  0.00    +0.000 C 
BRANCH  16  17
ATOM     17  C   UNL     1       0.648   3.369  19.686  0.00  0.00    +0.000 C 
BRANCH  17  18
ATOM     18  C   UNL     1       1.394   3.908  20.903  0.00  0.00    +0.000 C 
BRANCH  18  20
ATOM     19  O   UNL     1       2.996   2.365  21.891  0.00  0.00    +0.000 OA
ATOM     20  C   UNL     1       1.851   2.792  21.813  0.00  0.00    +0.000 C 
BRANCH  20  21
ATOM     21  O   UNL     1       0.824   2.302  22.554  0.00  0.00    +0.000 OA
ATOM     22  H   UNL     1       1.038   2.132  23.495  0.00  0.00    +0.000 HD
ENDBRANCH  20  21
ENDBRANCH  18  20
ENDBRANCH  17  18
ENDBRANCH  16  17
ENDBRANCH  15  16
ENDBRANCH  14  15
ENDBRANCH  13  14
ENDBRANCH  12  13
ENDBRANCH  11  12
ENDBRANCH   5  11
ENDBRANCH   1   8
BRANCH   2  23
ATOM     23  C   UNL     1       0.159  10.850  19.105  0.00  0.00    +0.000 C 
ATOM     24  C   UNL     1      -0.963  11.235  18.488  0.00  0.00    +0.000 C 
ATOM     25  C   UNL     1      -1.866  12.034  19.360  0.00  0.00    +0.000 C 
ATOM     26  N   UNL     1      -1.100  12.096  20.585  0.00  0.00    +0.000 N 
ATOM     27  C   UNL     1       0.096  11.395  20.464  0.00  0.00    +0.000 C 
ATOM     28  O   UNL     1       0.987  11.187  21.280  0.00  0.00    +0.000 OA
BRANCH  26  29
ATOM     29  C   UNL     1      -1.559  12.763  21.750  0.00  0.00    +0.000 A 
ATOM     30  C   UNL     1      -0.891  13.888  22.252  0.00  0.00    +0.000 A 
ATOM     31  C   UNL     1      -1.322  14.529  23.416  0.00  0.00    +0.000 A 
ATOM     32  C   UNL     1      -2.433  14.051  24.095  0.00  0.00    +0.000 A 
ATOM     33 CL   UNL     1      -2.954  14.827  25.537  0.00  0.00    +0.000 Cl
ATOM     34  C   UNL     1      -3.125  12.944  23.610  0.00  0.00    +0.000 A 
ATOM     35  C   UNL     1      -2.693  12.308  22.440  0.00  0.00    +0.000 A 
ENDBRANCH  26  29
BRANCH  24  36
ATOM     36  O   UNL     1      -1.335  10.948  17.198  0.00  0.00    +0.000 OA
ATOM     37  H   UNL     1      -0.583  11.185  16.608  0.00  0.00    +0.000 HD
ENDBRANCH  24  36
ENDBRANCH   2  23
TORSDOF 14
ENDMDL
MODEL 6
REMARK VINA RESULT:      -7.0      4.469     10.846
REMARK  Name = 
REMARK  14 active torsions:
REMARK  status: ('A' for Active; 'I' for Inactive)
REMARK    1  A    between atoms: C_2  and  O_3
REMARK    2  A    between atoms: C_2  and  C_4
REMARK    3  A    between atoms: C_4  and  C_5
REMARK    4  A    between atoms: C_5  and  C_6
REMARK    5  A    between atoms: C_6  and  C_7
REMARK    6  A    between atoms: C_7  and  C_8
REMARK    7  A    between atoms: C_8  and  C_9
REMARK    8  A    between atoms: C_9  and  C_10
REMARK    9  A    between atoms: C_10  and  O_11
REMARK   10  A    between atoms: O_11  and  C_12
REMARK   11  A    between atoms: C_15  and  N_16
REMARK   12  A    between atoms: C_17  and  C_19
REMARK   13  A    between atoms: C_20  and  O_21
REMARK   14  A    between atoms: N_23  and  C_24
REMARK                            x       y       z     vdW  Elec       q    Type
REMARK                         _______ _______ _______ _____ _____    ______ ____
ROOT
ATOM      1  N   UNL     1       2.049   7.722  20.114  0.00  0.00    +0.000 N 
ATOM      2  C   UNL     1       1.969   6.347  20.238  0.00  0.00    +0.000 C 
ATOM      3  O   UNL     1       1.147   5.709  20.895  0.00  0.00    +0.000 OA
ATOM      4  H   UNL     1       2.725   8.102  19.448  0.00  0.00    +0.000 HD
ENDROOT
BRANCH   1   8
ATOM      5  C   UNL     1      -0.427  10.543  22.058  0.00  0.00    +0.000 A 
ATOM      6  C   UNL     1      -0.410  10.439  20.667  0.00  0.00    +0.000 A 
ATOM      7  C   UNL     1       0.381   9.495  20.030  0.00  0.00    +0.000 A 
ATOM      8  C   UNL     1       1.196   8.639  20.759  0.00  0.00    +0.000 A 
ATOM      9  C   UNL     1       1.165   8.702  22.157  0.00  0.00    +0.000 A 
ATOM     10  C   UNL     1       0.363   9.662  22.804  0.00  0.00    +0.000 A 
BRANCH   5  11
ATOM     11  O   UNL     1      -1.182  11.464  22.746  0.00  0.00    +0.000 OA
BRANCH  11  12
ATOM     12  C   UNL     1      -0.696  12.808  22.624  0.00  0.00    +0.000 C 
BRANCH  12  13
ATOM     13  C   UNL     1      -1.595  13.804  23.334  0.00  0.00    +0.000 C 
BRANCH  13  14
ATOM     14  C   UNL     1      -3.032  13.271  23.338  0.00  0.00    +0.000 C 
BRANCH  14  15
ATOM     15  C   UNL     1      -3.805  13.764  22.123  0.00  0.00    +0.000 C 
BRANCH  15  16
ATOM     16  C   UNL     1      -4.707  12.673  21.547  0.00  0.00    +0.000 C 
BRANCH  16  17
ATOM     17  C   UNL     1      -6.167  13.124  21.567  0.00  0.00    +0.000 C 
BRANCH  17  18
ATOM     18  C   UNL     1      -6.589  13.618  22.947  0.00  0.00    +0.000 C 
BRANCH  18  20
ATOM     19  O   UNL     1      -7.606  11.575  23.791  0.00  0.00    +0.000 OA
ATOM     20  C   UNL     1      -6.782  12.472  23.911  0.00  0.00    +0.000 C 
BRANCH  20  21
ATOM     21  O   UNL     1      -5.917  12.549  24.955  0.00  0.00    +0.000 OA
ATOM     22  H   UNL     1      -5.020  12.194  24.776  0.00  0.00    +0.000 HD
ENDBRANCH  20  21
ENDBRANCH  18  20
ENDBRANCH  17  18
ENDBRANCH  16  17
ENDBRANCH  15  16
ENDBRANCH  14  15
ENDBRANCH  13  14
ENDBRANCH  12  13
ENDBRANCH  11  12
ENDBRANCH   5  11
ENDBRANCH   1   8
BRANCH   2  23
ATOM     23  C   UNL     1       2.954   5.590  19.466  0.00  0.00    +0.000 C 
ATOM     24  C   UNL     1       3.384   4.357  19.754  0.00  0.00    +0.000 C 
ATOM     25  C   UNL     1       4.351   3.825  18.755  0.00  0.00    +0.000 C 
ATOM     26  N   UNL     1       4.459   4.940  17.841  0.00  0.00    +0.000 N 
ATOM     27  C   UNL     1       3.636   5.991  18.233  0.00  0.00    +0.000 C 
ATOM     28  O   UNL     1       3.424   7.079  17.708  0.00  0.00    +0.000 OA
BRANCH  26  29
ATOM     29  C   UNL     1       5.279   4.913  16.683  0.00  0.00    +0.000 A 
ATOM     30  C   UNL     1       6.564   5.473  16.693  0.00  0.00    +0.000 A 
ATOM     31  C   UNL     1       7.364   5.475  15.547  0.00  0.00    +0.000 A 
ATOM     32  C   UNL     1       6.886   4.913  14.372  0.00  0.00    +0.000 A 
ATOM     33 CL   UNL     1       7.860   4.932  12.957  0.00  0.00    +0.000 Cl
ATOM     34  C   UNL     1       5.619   4.337  14.339  0.00  0.00    +0.000 A 
ATOM     35  C   UNL     1       4.823   4.331  15.491  0.00  0.00    +0.000 A 
ENDBRANCH  26  29
BRANCH  24  36
ATOM     36  O   UNL     1       3.009   3.580  20.822  0.00  0.00    +0.000 OA
ATOM     37  H   UNL     1       3.822   3.352  21.329  0.00  0.00    +0.000 HD
ENDBRANCH  24  36
ENDBRANCH   2  23
TORSDOF 14
ENDMDL
MODEL 7
REMARK VINA RESULT:      -6.9      3.638      5.491
REMARK  Name = 
REMARK  14 active torsions:
REMARK  status: ('A' for Active; 'I' for Inactive)
REMARK    1  A    between atoms: C_2  and  O_3
REMARK    2  A    between atoms: C_2  and  C_4
REMARK    3  A    between atoms: C_4  and  C_5
REMARK    4  A    between atoms: C_5  and  C_6
REMARK    5  A    between atoms: C_6  and  C_7
REMARK    6  A    between atoms: C_7  and  C_8
REMARK    7  A    between atoms: C_8  and  C_9
REMARK    8  A    between atoms: C_9  and  C_10
REMARK    9  A    between atoms: C_10  and  O_11
REMARK   10  A    between atoms: O_11  and  C_12
REMARK   11  A    between atoms: C_15  and  N_16
REMARK   12  A    between atoms: C_17  and  C_19
REMARK   13  A    between atoms: C_20  and  O_21
REMARK   14  A    between atoms: N_23  and  C_24
REMARK                            x       y       z     vdW  Elec       q    Type
REMARK                         _______ _______ _______ _____ _____    ______ ____
ROOT
ATOM      1  N   UNL     1       0.951   9.062  19.911  0.00  0.00    +0.000 N 
ATOM      2  C   UNL     1       1.000   9.381  21.255  0.00  0.00    +0.000 C 
ATOM      3  O   UNL     1       1.858   9.037  22.068  0.00  0.00    +0.000 OA
ATOM      4  H   UNL     1       0.230   9.509  19.342  0.00  0.00    +0.000 HD
ENDROOT
BRANCH   1   8
ATOM      5  C   UNL     1       3.673   6.565  17.858  0.00  0.00    +0.000 A 
ATOM      6  C   UNL     1       3.351   7.831  17.370  0.00  0.00    +0.000 A 
ATOM      7  C   UNL     1       2.479   8.662  18.057  0.00  0.00    +0.000 A 
ATOM      8  C   UNL     1       1.885   8.248  19.243  0.00  0.00    +0.000 A 
ATOM      9  C   UNL     1       2.225   6.995  19.768  0.00  0.00    +0.000 A 
ATOM     10  C   UNL     1       3.109   6.151  19.068  0.00  0.00    +0.000 A 
BRANCH   5  11
ATOM     11  O   UNL     1       4.522   5.692  17.217  0.00  0.00    +0.000 OA
BRANCH  11  12
ATOM     12  C   UNL     1       5.438   6.339  16.322  0.00  0.00    +0.000 C 
BRANCH  12  13
ATOM     13  C   UNL     1       6.872   5.908  16.567  0.00  0.00    +0.000 C 
BRANCH  13  14
ATOM     14  C   UNL     1       7.406   6.620  17.814  0.00  0.00    +0.000 C 
BRANCH  14  15
ATOM     15  C   UNL     1       7.553   8.116  17.573  0.00  0.00    +0.000 C 
BRANCH  15  16
ATOM     16  C   UNL     1       8.651   8.724  18.446  0.00  0.00    +0.000 C 
BRANCH  16  17
ATOM     17  C   UNL     1       8.647  10.246  18.322  0.00  0.00    +0.000 C 
BRANCH  17  18
ATOM     18  C   UNL     1       9.970  10.856  18.774  0.00  0.00    +0.000 C 
BRANCH  18  20
ATOM     19  O   UNL     1       8.985  11.092  20.987  0.00  0.00    +0.000 OA
ATOM     20  C   UNL     1       9.908  11.311  20.213  0.00  0.00    +0.000 C 
BRANCH  20  21
ATOM     21  O   UNL     1      11.020  12.008  20.562  0.00  0.00    +0.000 OA
ATOM     22  H   UNL     1      10.896  12.979  20.626  0.00  0.00    +0.000 HD
ENDBRANCH  20  21
ENDBRANCH  18  20
ENDBRANCH  17  18
ENDBRANCH  16  17
ENDBRANCH  15  16
ENDBRANCH  14  15
ENDBRANCH  13  14
ENDBRANCH  12  13
ENDBRANCH  11  12
ENDBRANCH   5  11
ENDBRANCH   1   8
BRANCH   2  23
ATOM     23  C   UNL     1      -0.073  10.253  21.733  0.00  0.00    +0.000 C 
ATOM     24  C   UNL     1      -0.549  10.285  22.982  0.00  0.00    +0.000 C 
ATOM     25  C   UNL     1      -1.606  11.315  23.179  0.00  0.00    +0.000 C 
ATOM     26  N   UNL     1      -1.713  11.873  21.851  0.00  0.00    +0.000 N 
ATOM     27  C   UNL     1      -0.811  11.271  20.980  0.00  0.00    +0.000 C 
ATOM     28  O   UNL     1      -0.575  11.488  19.796  0.00  0.00    +0.000 OA
BRANCH  26  29
ATOM     29  C   UNL     1      -2.608  12.925  21.524  0.00  0.00    +0.000 A 
ATOM     30  C   UNL     1      -3.733  12.696  20.721  0.00  0.00    +0.000 A 
ATOM     31  C   UNL     1      -4.600  13.735  20.372  0.00  0.00    +0.000 A 
ATOM     32  C   UNL     1      -4.351  15.022  20.828  0.00  0.00    +0.000 A 
ATOM     33 CL   UNL     1      -5.406  16.304  20.385  0.00  0.00    +0.000 Cl
ATOM     34  C   UNL     1      -3.250  15.274  21.640  0.00  0.00    +0.000 A 
ATOM     35  C   UNL     1      -2.386  14.229  21.992  0.00  0.00    +0.000 A 
ENDBRANCH  26  29
BRANCH  24  36
ATOM     36  O   UNL     1      -0.147   9.507  24.039  0.00  0.00    +0.000 OA
ATOM     37  H   UNL     1      -0.504   9.911  24.863  0.00  0.00    +0.000 HD
ENDBRANCH  24  36
ENDBRANCH   2  23
TORSDOF 14
ENDMDL
MODEL 8
REMARK VINA RESULT:      -6.9      1.993      3.651
REMARK  Name = 
REMARK  14 active torsions:
REMARK  status: ('A' for Active; 'I' for Inactive)
REMARK    1  A    between atoms: C_2  and  O_3
REMARK    2  A    between atoms: C_2  and  C_4
REMARK    3  A    between atoms: C_4  and  C_5
REMARK    4  A    between atoms: C_5  and  C_6
REMARK    5  A    between atoms: C_6  and  C_7
REMARK    6  A    between atoms: C_7  and  C_8
REMARK    7  A    between atoms: C_8  and  C_9
REMARK    8  A    between atoms: C_9  and  C_10
REMARK    9  A    between atoms: C_10  and  O_11
REMARK   10  A    between atoms: O_11  and  C_12
REMARK   11  A    between atoms: C_15  and  N_16
REMARK   12  A    between atoms: C_17  and  C_19
REMARK   13  A    between atoms: C_20  and  O_21
REMARK   14  A    between atoms: N_23  and  C_24
REMARK                            x       y       z     vdW  Elec       q    Type
REMARK                         _______ _______ _______ _____ _____    ______ ____
ROOT
ATOM      1  N   UNL     1       1.093   8.485  20.267  0.00  0.00    +0.000 N 
ATOM      2  C   UNL     1       1.106   9.303  21.381  0.00  0.00    +0.000 C 
ATOM      3  O   UNL     1       1.789   9.163  22.396  0.00  0.00    +0.000 OA
ATOM      4  H   UNL     1       0.547   8.789  19.459  0.00  0.00    +0.000 HD
ENDROOT
BRANCH   1   8
ATOM      5  C   UNL     1       3.326   4.934  19.753  0.00  0.00    +0.000 A 
ATOM      6  C   UNL     1       3.651   6.094  19.052  0.00  0.00    +0.000 A 
ATOM      7  C   UNL     1       2.936   7.268  19.240  0.00  0.00    +0.000 A 
ATOM      8  C   UNL     1       1.862   7.314  20.119  0.00  0.00    +0.000 A 
ATOM      9  C   UNL     1       1.543   6.170  20.860  0.00  0.00    +0.000 A 
ATOM     10  C   UNL     1       2.269   4.978  20.667  0.00  0.00    +0.000 A 
BRANCH   5  11
ATOM     11  O   UNL     1       3.991   3.738  19.603  0.00  0.00    +0.000 OA
BRANCH  11  12
ATOM     12  C   UNL     1       3.475   2.928  18.537  0.00  0.00    +0.000 C 
BRANCH  12  13
ATOM     13  C   UNL     1       3.474   3.667  17.211  0.00  0.00    +0.000 C 
BRANCH  13  14
ATOM     14  C   UNL     1       4.893   3.667  16.634  0.00  0.00    +0.000 C 
BRANCH  14  15
ATOM     15  C   UNL     1       5.080   4.799  15.633  0.00  0.00    +0.000 C 
BRANCH  15  16
ATOM     16  C   UNL     1       6.424   5.502  15.820  0.00  0.00    +0.000 C 
BRANCH  16  17
ATOM     17  C   UNL     1       6.312   6.588  16.889  0.00  0.00    +0.000 C 
BRANCH  17  18
ATOM     18  C   UNL     1       7.499   6.567  17.847  0.00  0.00    +0.000 C 
BRANCH  18  20
ATOM     19  O   UNL     1       7.038   5.382  19.921  0.00  0.00    +0.000 OA
ATOM     20  C   UNL     1       7.448   5.372  18.768  0.00  0.00    +0.000 C 
BRANCH  20  21
ATOM     21  O   UNL     1       7.921   4.254  18.159  0.00  0.00    +0.000 OA
ATOM     22  H   UNL     1       7.393   3.947  17.391  0.00  0.00    +0.000 HD
ENDBRANCH  20  21
ENDBRANCH  18  20
ENDBRANCH  17  18
ENDBRANCH  16  17
ENDBRANCH  15  16
ENDBRANCH  14  15
ENDBRANCH  13  14
ENDBRANCH  12  13
ENDBRANCH  11  12
ENDBRANCH   5  11
ENDBRANCH   1   8
BRANCH   2  23
ATOM     23  C   UNL     1       0.232  10.474  21.310  0.00  0.00    +0.000 C 
ATOM     24  C   UNL     1       0.263  11.409  20.354  0.00  0.00    +0.000 C 
ATOM     25  C   UNL     1      -0.784  12.453  20.521  0.00  0.00    +0.000 C 
ATOM     26  N   UNL     1      -1.428  12.019  21.740  0.00  0.00    +0.000 N 
ATOM     27  C   UNL     1      -0.853  10.846  22.221  0.00  0.00    +0.000 C 
ATOM     28  O   UNL     1      -1.137  10.157  23.195  0.00  0.00    +0.000 OA
BRANCH  26  29
ATOM     29  C   UNL     1      -2.526  12.705  22.321  0.00  0.00    +0.000 A 
ATOM     30  C   UNL     1      -3.130  12.242  23.498  0.00  0.00    +0.000 A 
ATOM     31  C   UNL     1      -4.230  12.897  24.057  0.00  0.00    +0.000 A 
ATOM     32  C   UNL     1      -4.742  14.031  23.442  0.00  0.00    +0.000 A 
ATOM     33 CL   UNL     1      -6.106  14.828  24.117  0.00  0.00    +0.000 Cl
ATOM     34  C   UNL     1      -4.152  14.522  22.280  0.00  0.00    +0.000 A 
ATOM     35  C   UNL     1      -3.045  13.865  21.727  0.00  0.00    +0.000 A 
ENDBRANCH  26  29
BRANCH  24  36
ATOM     36  O   UNL     1       1.119  11.464  19.282  0.00  0.00    +0.000 OA
ATOM     37  H   UNL     1       0.703  10.970  18.539  0.00  0.00    +0.000 HD
ENDBRANCH  24  36
ENDBRANCH   2  23
TORSDOF 14
ENDMDL
MODEL 9
REMARK VINA RESULT:      -6.9      2.987      4.574
REMARK  Name = 
REMARK  14 active torsions:
REMARK  status: ('A' for Active; 'I' for Inactive)
REMARK    1  A    between atoms: C_2  and  O_3
REMARK    2  A    between atoms: C_2  and  C_4
REMARK    3  A    between atoms: C_4  and  C_5
REMARK    4  A    between atoms: C_5  and  C_6
REMARK    5  A    between atoms: C_6  and  C_7
REMARK    6  A    between atoms: C_7  and  C_8
REMARK    7  A    between atoms: C_8  and  C_9
REMARK    8  A    between atoms: C_9  and  C_10
REMARK    9  A    between atoms: C_10  and  O_11
REMARK   10  A    between atoms: O_11  and  C_12
REMARK   11  A    between atoms: C_15  and  N_16
REMARK   12  A    between atoms: C_17  and  C_19
REMARK   13  A    between atoms: C_20  and  O_21
REMARK   14  A    between atoms: N_23  and  C_24
REMARK                            x       y       z     vdW  Elec       q    Type
REMARK                         _______ _______ _______ _____ _____    ______ ____
ROOT
ATOM      1  N   UNL     1       1.569   8.465  20.473  0.00  0.00    +0.000 N 
ATOM      2  C   UNL     1       0.417   8.930  21.078  0.00  0.00    +0.000 C 
ATOM      3  O   UNL     1      -0.461   8.256  21.618  0.00  0.00    +0.000 OA
ATOM      4  H   UNL     1       2.254   9.156  20.159  0.00  0.00    +0.000 HD
ENDROOT
BRANCH   1   8
ATOM      5  C   UNL     1       2.570   4.385  20.013  0.00  0.00    +0.000 A 
ATOM      6  C   UNL     1       3.436   5.390  19.585  0.00  0.00    +0.000 A 
ATOM      7  C   UNL     1       3.122   6.729  19.761  0.00  0.00    +0.000 A 
ATOM      8  C   UNL     1       1.922   7.108  20.350  0.00  0.00    +0.000 A 
ATOM      9  C   UNL     1       1.056   6.113  20.820  0.00  0.00    +0.000 A 
ATOM     10  C   UNL     1       1.376   4.754  20.641  0.00  0.00    +0.000 A 
BRANCH   5  11
ATOM     11  O   UNL     1       2.822   3.041  19.859  0.00  0.00    +0.000 OA
BRANCH  11  12
ATOM     12  C   UNL     1       2.440   2.532  18.574  0.00  0.00    +0.000 C 
BRANCH  12  13
ATOM     13  C   UNL     1       3.640   2.317  17.668  0.00  0.00    +0.000 C 
BRANCH  13  14
ATOM     14  C   UNL     1       3.782   3.518  16.728  0.00  0.00    +0.000 C 
BRANCH  14  15
ATOM     15  C   UNL     1       5.232   3.975  16.635  0.00  0.00    +0.000 C 
BRANCH  15  16
ATOM     16  C   UNL     1       5.336   5.489  16.457  0.00  0.00    +0.000 C 
BRANCH  16  17
ATOM     17  C   UNL     1       6.775   5.953  16.680  0.00  0.00    +0.000 C 
BRANCH  17  18
ATOM     18  C   UNL     1       7.504   5.073  17.691  0.00  0.00    +0.000 C 
BRANCH  18  20
ATOM     19  O   UNL     1       7.094   5.362  20.072  0.00  0.00    +0.000 OA
ATOM     20  C   UNL     1       7.618   5.750  19.036  0.00  0.00    +0.000 C 
BRANCH  20  21
ATOM     21  O   UNL     1       8.388   6.867  18.967  0.00  0.00    +0.000 OA
ATOM     22  H   UNL     1       9.284   6.776  19.355  0.00  0.00    +0.000 HD
ENDBRANCH  20  21
ENDBRANCH  18  20
ENDBRANCH  17  18
ENDBRANCH  16  17
ENDBRANCH  15  16
ENDBRANCH  14  15
ENDBRANCH  13  14
ENDBRANCH  12  13
ENDBRANCH  11  12
ENDBRANCH   5  11
ENDBRANCH   1   8
BRANCH   2  23
ATOM     23  C   UNL     1       0.262  10.385  21.099  0.00  0.00    +0.000 C 
ATOM     24  C   UNL     1      -0.257  11.096  22.106  0.00  0.00    +0.000 C 
ATOM     25  C   UNL     1      -0.234  12.563  21.859  0.00  0.00    +0.000 C 
ATOM     26  N   UNL     1       0.349  12.622  20.538  0.00  0.00    +0.000 N 
ATOM     27  C   UNL     1       0.661  11.349  20.071  0.00  0.00    +0.000 C 
ATOM     28  O   UNL     1       1.193  10.988  19.027  0.00  0.00    +0.000 OA
BRANCH  26  29
ATOM     29  C   UNL     1       0.592  13.841  19.854  0.00  0.00    +0.000 A 
ATOM     30  C   UNL     1       1.896  14.317  19.662  0.00  0.00    +0.000 A 
ATOM     31  C   UNL     1       2.139  15.532  19.014  0.00  0.00    +0.000 A 
ATOM     32  C   UNL     1       1.073  16.289  18.549  0.00  0.00    +0.000 A 
ATOM     33 CL   UNL     1       1.368  17.791  17.770  0.00  0.00    +0.000 Cl
ATOM     34  C   UNL     1      -0.232  15.832  18.713  0.00  0.00    +0.000 A 
ATOM     35  C   UNL     1      -0.470  14.611  19.357  0.00  0.00    +0.000 A 
ENDBRANCH  26  29
BRANCH  24  36
ATOM     36  O   UNL     1      -0.758  10.609  23.288  0.00  0.00    +0.000 OA
ATOM     37  H   UNL     1      -1.738  10.705  23.262  0.00  0.00    +0.000 HD
ENDBRANCH  24  36
ENDBRANCH   2  23
TORSDOF 14
ENDMDL
