MODEL 1
REMARK VINA RESULT:      -8.5      0.000      0.000
REMARK  Name = 
REMARK  7 active torsions:
REMARK  status: ('A' for Active; 'I' for Inactive)
REMARK    1  A    between atoms: C_1  and  N_2
REMARK    2  A    between atoms: C_3  and  S_4
REMARK    3  A    between atoms: S_4  and  C_5
REMARK    4  A    between atoms: C_5  and  C_6
REMARK    5  A    between atoms: C_9  and  C_11
REMARK    6  A    between atoms: C_15  and  N_16
REMARK    7  A    between atoms: C_22  and  C_23
REMARK                            x       y       z     vdW  Elec       q    Type
REMARK                         _______ _______ _______ _____ _____    ______ ____
ROOT
ATOM      1  C   UNL     1       5.159   3.437  18.932  0.00  0.00    +0.000 C 
ENDROOT
BRANCH   1   2
ATOM      2  C   UNL     1       5.969   4.495  18.208  0.00  0.00    +0.000 C 
ATOM      3  O   UNL     1       6.457   5.434  18.833  0.00  0.00    +0.000 OA
ATOM      4  N   UNL     1       6.102   4.280  16.845  0.00  0.00    +0.000 N 
ATOM      5  C   UNL     1       6.822   5.128  16.021  0.00  0.00    +0.000 C 
ATOM      6  O   UNL     1       7.394   6.148  16.382  0.00  0.00    +0.000 OA
ATOM      7  H   UNL     1       5.772   3.398  16.473  0.00  0.00    +0.000 HD
BRANCH   5   8
ATOM      8  C   UNL     1       6.931   4.768  14.580  0.00  0.00    +0.000 A 
ATOM      9  C   UNL     1       7.865   5.494  13.818  0.00  0.00    +0.000 A 
ATOM     10  C   UNL     1       7.970   5.308  12.439  0.00  0.00    +0.000 A 
ATOM     11  C   UNL     1       7.134   4.400  11.798  0.00  0.00    +0.000 A 
ATOM     12  C   UNL     1       6.202   3.672  12.554  0.00  0.00    +0.000 A 
ATOM     13  C   UNL     1       6.094   3.844  13.946  0.00  0.00    +0.000 A 
BRANCH  12  14
ATOM     14  N   UNL     1       5.298   2.743  11.859  0.00  0.00    +0.000 N 
ATOM     15  O   UNL     1       5.748   1.643  11.515  0.00  0.00    +0.000 OA
ATOM     16  O   UNL     1       4.136   3.125  11.659  0.00  0.00    +0.000 OA
ENDBRANCH  12  14
ENDBRANCH   5   8
ENDBRANCH   1   2
BRANCH   1  17
ATOM     17  S   UNL     1       3.459   3.420  18.306  0.00  0.00    +0.000 S 
BRANCH  17  20
ATOM     18  C   UNL     1       1.523   4.999  20.359  0.00  0.00    +0.000 C 
ATOM     19  N   UNL     1       2.316   5.673  19.364  0.00  0.00    +0.000 N 
ATOM     20  C   UNL     1       3.047   5.095  18.363  0.00  0.00    +0.000 A 
ATOM     21  N   UNL     1       3.380   5.996  17.473  0.00  0.00    +0.000 NA
ATOM     22  N   UNL     1       2.944   7.214  17.943  0.00  0.00    +0.000 NA
ATOM     23  C   UNL     1       2.346   7.039  19.113  0.00  0.00    +0.000 A 
BRANCH  23  24
ATOM     24  C   UNL     1       1.746   8.110  19.929  0.00  0.00    +0.000 A 
ATOM     25  C   UNL     1       1.300   9.288  19.304  0.00  0.00    +0.000 A 
ATOM     26  C   UNL     1       0.687  10.308  20.040  0.00  0.00    +0.000 A 
ATOM     27  C   UNL     1       0.512  10.158  21.409  0.00  0.00    +0.000 A 
ATOM     28  F   UNL     1      -0.093  11.122  22.114  0.00  0.00    +0.000 F 
ATOM     29  C   UNL     1       0.975   9.025  22.060  0.00  0.00    +0.000 A 
ATOM     30  C   UNL     1       1.614   8.020  21.325  0.00  0.00    +0.000 A 
ENDBRANCH  23  24
ENDBRANCH  17  20
ENDBRANCH   1  17
TORSDOF 6
ENDMDL
MODEL 2
REMARK VINA RESULT:      -8.5      2.590      4.085
REMARK  Name = 
REMARK  7 active torsions:
REMARK  status: ('A' for Active; 'I' for Inactive)
REMARK    1  A    between atoms: C_1  and  N_2
REMARK    2  A    between atoms: C_3  and  S_4
REMARK    3  A    between atoms: S_4  and  C_5
REMARK    4  A    between atoms: C_5  and  C_6
REMARK    5  A    between atoms: C_9  and  C_11
REMARK    6  A    between atoms: C_15  and  N_16
REMARK    7  A    between atoms: C_22  and  C_23
REMARK                            x       y       z     vdW  Elec       q    Type
REMARK                         _______ _______ _______ _____ _____    ______ ____
ROOT
ATOM      1  C   UNL     1       1.052   4.823  20.332  0.00  0.00    +0.000 C 
ENDROOT
BRANCH   1   2
ATOM      2  C   UNL     1       1.604   3.840  19.319  0.00  0.00    +0.000 C 
ATOM      3  O   UNL     1       0.928   2.878  18.960  0.00  0.00    +0.000 OA
ATOM      4  N   UNL     1       2.876   4.145  18.859  0.00  0.00    +0.000 N 
ATOM      5  C   UNL     1       3.537   3.374  17.918  0.00  0.00    +0.000 C 
ATOM      6  O   UNL     1       3.098   2.352  17.408  0.00  0.00    +0.000 OA
ATOM      7  H   UNL     1       3.271   5.039  19.127  0.00  0.00    +0.000 HD
BRANCH   5   8
ATOM      8  C   UNL     1       4.881   3.830  17.469  0.00  0.00    +0.000 A 
ATOM      9  C   UNL     1       5.747   4.316  18.466  0.00  0.00    +0.000 A 
ATOM     10  C   UNL     1       6.987   4.865  18.138  0.00  0.00    +0.000 A 
ATOM     11  C   UNL     1       7.377   4.947  16.805  0.00  0.00    +0.000 A 
ATOM     12  C   UNL     1       6.517   4.464  15.807  0.00  0.00    +0.000 A 
ATOM     13  C   UNL     1       5.268   3.898  16.127  0.00  0.00    +0.000 A 
BRANCH  12  14
ATOM     14  N   UNL     1       6.924   4.590  14.400  0.00  0.00    +0.000 N 
ATOM     15  O   UNL     1       6.424   3.813  13.578  0.00  0.00    +0.000 OA
ATOM     16  O   UNL     1       7.749   5.473  14.126  0.00  0.00    +0.000 OA
ENDBRANCH  12  14
ENDBRANCH   5   8
ENDBRANCH   1   2
BRANCH   1  17
ATOM     17  S   UNL     1       2.320   6.039  20.774  0.00  0.00    +0.000 S 
BRANCH  17  20
ATOM     18  C   UNL     1       0.601   8.749  21.175  0.00  0.00    +0.000 C 
ATOM     19  N   UNL     1       1.357   8.477  19.980  0.00  0.00    +0.000 N 
ATOM     20  C   UNL     1       1.991   7.311  19.654  0.00  0.00    +0.000 A 
ATOM     21  N   UNL     1       2.305   7.311  18.382  0.00  0.00    +0.000 NA
ATOM     22  N   UNL     1       1.959   8.543  17.877  0.00  0.00    +0.000 NA
ATOM     23  C   UNL     1       1.433   9.278  18.848  0.00  0.00    +0.000 A 
BRANCH  23  24
ATOM     24  C   UNL     1       0.939  10.659  18.696  0.00  0.00    +0.000 A 
ATOM     25  C   UNL     1      -0.436  10.884  18.506  0.00  0.00    +0.000 A 
ATOM     26  C   UNL     1      -0.947  12.183  18.400  0.00  0.00    +0.000 A 
ATOM     27  C   UNL     1      -0.086  13.269  18.486  0.00  0.00    +0.000 A 
ATOM     28  F   UNL     1      -0.573  14.513  18.406  0.00  0.00    +0.000 F 
ATOM     29  C   UNL     1       1.279  13.078  18.634  0.00  0.00    +0.000 A 
ATOM     30  C   UNL     1       1.789  11.777  18.710  0.00  0.00    +0.000 A 
ENDBRANCH  23  24
ENDBRANCH  17  20
ENDBRANCH   1  17
TORSDOF 6
ENDMDL
MODEL 3
REMARK VINA RESULT:      -8.5      7.074      9.120
REMARK  Name = 
REMARK  7 active torsions:
REMARK  status: ('A' for Active; 'I' for Inactive)
REMARK    1  A    between atoms: C_1  and  N_2
REMARK    2  A    between atoms: C_3  and  S_4
REMARK    3  A    between atoms: S_4  and  C_5
REMARK    4  A    between atoms: C_5  and  C_6
REMARK    5  A    between atoms: C_9  and  C_11
REMARK    6  A    between atoms: C_15  and  N_16
REMARK    7  A    between atoms: C_22  and  C_23
REMARK                            x       y       z     vdW  Elec       q    Type
REMARK                         _______ _______ _______ _____ _____    ______ ____
ROOT
ATOM      1  C   UNL     1       7.831   9.266  17.689  0.00  0.00    +0.000 C 
ENDROOT
BRANCH   1   2
ATOM      2  C   UNL     1       8.777  10.122  18.508  0.00  0.00    +0.000 C 
ATOM      3  O   UNL     1       9.403   9.629  19.444  0.00  0.00    +0.000 OA
ATOM      4  N   UNL     1       8.861  11.442  18.090  0.00  0.00    +0.000 N 
ATOM      5  C   UNL     1       9.687  12.369  18.703  0.00  0.00    +0.000 C 
ATOM      6  O   UNL     1      10.404  12.147  19.669  0.00  0.00    +0.000 OA
ATOM      7  H   UNL     1       8.402  11.691  17.223  0.00  0.00    +0.000 HD
BRANCH   5   8
ATOM      8  C   UNL     1       9.725  13.745  18.136  0.00  0.00    +0.000 A 
ATOM      9  C   UNL     1      10.856  14.077  17.366  0.00  0.00    +0.000 A 
ATOM     10  C   UNL     1      11.040  15.371  16.879  0.00  0.00    +0.000 A 
ATOM     11  C   UNL     1      10.102  16.358  17.162  0.00  0.00    +0.000 A 
ATOM     12  C   UNL     1       8.973  16.032  17.929  0.00  0.00    +0.000 A 
ATOM     13  C   UNL     1       8.771  14.727  18.418  0.00  0.00    +0.000 A 
BRANCH  12  14
ATOM     14  N   UNL     1       8.007  17.092  18.255  0.00  0.00    +0.000 N 
ATOM     15  O   UNL     1       8.404  18.264  18.243  0.00  0.00    +0.000 OA
ATOM     16  O   UNL     1       6.850  16.741  18.524  0.00  0.00    +0.000 OA
ENDBRANCH  12  14
ENDBRANCH   5   8
ENDBRANCH   1   2
BRANCH   1  17
ATOM     17  S   UNL     1       8.087   7.513  18.074  0.00  0.00    +0.000 S 
BRANCH  17  20
ATOM     18  C   UNL     1       6.259   5.136  19.284  0.00  0.00    +0.000 C 
ATOM     19  N   UNL     1       5.885   5.886  18.113  0.00  0.00    +0.000 N 
ATOM     20  C   UNL     1       6.647   6.802  17.443  0.00  0.00    +0.000 A 
ATOM     21  N   UNL     1       6.122   7.050  16.269  0.00  0.00    +0.000 NA
ATOM     22  N   UNL     1       4.934   6.358  16.199  0.00  0.00    +0.000 NA
ATOM     23  C   UNL     1       4.753   5.692  17.331  0.00  0.00    +0.000 A 
BRANCH  23  24
ATOM     24  C   UNL     1       3.594   4.832  17.635  0.00  0.00    +0.000 A 
ATOM     25  C   UNL     1       3.592   3.496  17.199  0.00  0.00    +0.000 A 
ATOM     26  C   UNL     1       2.529   2.638  17.505  0.00  0.00    +0.000 A 
ATOM     27  C   UNL     1       1.459   3.111  18.253  0.00  0.00    +0.000 A 
ATOM     28  F   UNL     1       0.450   2.288  18.567  0.00  0.00    +0.000 F 
ATOM     29  C   UNL     1       1.415   4.433  18.665  0.00  0.00    +0.000 A 
ATOM     30  C   UNL     1       2.466   5.295  18.332  0.00  0.00    +0.000 A 
ENDBRANCH  23  24
ENDBRANCH  17  20
ENDBRANCH   1  17
TORSDOF 6
ENDMDL
MODEL 4
REMARK VINA RESULT:      -8.4      2.603      4.060
REMARK  Name = 
REMARK  7 active torsions:
REMARK  status: ('A' for Active; 'I' for Inactive)
REMARK    1  A    between atoms: C_1  and  N_2
REMARK    2  A    between atoms: C_3  and  S_4
REMARK    3  A    between atoms: S_4  and  C_5
REMARK    4  A    between atoms: C_5  and  C_6
REMARK    5  A    between atoms: C_9  and  C_11
REMARK    6  A    between atoms: C_15  and  N_16
REMARK    7  A    between atoms: C_22  and  C_23
REMARK                            x       y       z     vdW  Elec       q    Type
REMARK                         _______ _______ _______ _____ _____    ______ ____
ROOT
ATOM      1  C   UNL     1       1.112   4.854  20.270  0.00  0.00    +0.000 C 
ENDROOT
BRANCH   1   2
ATOM      2  C   UNL     1       1.662   3.854  19.272  0.00  0.00    +0.000 C 
ATOM      3  O   UNL     1       0.989   2.881  18.939  0.00  0.00    +0.000 OA
ATOM      4  N   UNL     1       2.929   4.157  18.797  0.00  0.00    +0.000 N 
ATOM      5  C   UNL     1       3.587   3.370  17.866  0.00  0.00    +0.000 C 
ATOM      6  O   UNL     1       3.150   2.336  17.381  0.00  0.00    +0.000 OA
ATOM      7  H   UNL     1       3.322   5.057  19.043  0.00  0.00    +0.000 HD
BRANCH   5   8
ATOM      8  C   UNL     1       4.925   3.823  17.398  0.00  0.00    +0.000 A 
ATOM      9  C   UNL     1       5.797   4.330  18.379  0.00  0.00    +0.000 A 
ATOM     10  C   UNL     1       7.032   4.879  18.031  0.00  0.00    +0.000 A 
ATOM     11  C   UNL     1       7.411   4.939  16.693  0.00  0.00    +0.000 A 
ATOM     12  C   UNL     1       6.544   4.435  15.711  0.00  0.00    +0.000 A 
ATOM     13  C   UNL     1       5.301   3.870  16.051  0.00  0.00    +0.000 A 
BRANCH  12  14
ATOM     14  N   UNL     1       6.938   4.538  14.299  0.00  0.00    +0.000 N 
ATOM     15  O   UNL     1       7.785   5.387  13.992  0.00  0.00    +0.000 OA
ATOM     16  O   UNL     1       6.392   3.765  13.499  0.00  0.00    +0.000 OA
ENDBRANCH  12  14
ENDBRANCH   5   8
ENDBRANCH   1   2
BRANCH   1  17
ATOM     17  S   UNL     1       2.382   6.078  20.687  0.00  0.00    +0.000 S 
BRANCH  17  20
ATOM     18  C   UNL     1       0.626   8.743  21.207  0.00  0.00    +0.000 C 
ATOM     19  N   UNL     1       1.347   8.515  19.983  0.00  0.00    +0.000 N 
ATOM     20  C   UNL     1       1.994   7.369  19.609  0.00  0.00    +0.000 A 
ATOM     21  N   UNL     1       2.267   7.405  18.328  0.00  0.00    +0.000 NA
ATOM     22  N   UNL     1       1.882   8.641  17.864  0.00  0.00    +0.000 NA
ATOM     23  C   UNL     1       1.372   9.343  18.868  0.00  0.00    +0.000 A 
BRANCH  23  24
ATOM     24  C   UNL     1       0.847  10.717  18.764  0.00  0.00    +0.000 A 
ATOM     25  C   UNL     1       1.736  11.803  18.843  0.00  0.00    +0.000 A 
ATOM     26  C   UNL     1       1.280  13.120  18.707  0.00  0.00    +0.000 A 
ATOM     27  C   UNL     1      -0.070  13.360  18.487  0.00  0.00    +0.000 A 
ATOM     28  F   UNL     1      -0.507  14.616  18.335  0.00  0.00    +0.000 F 
ATOM     29  C   UNL     1      -0.975  12.312  18.442  0.00  0.00    +0.000 A 
ATOM     30  C   UNL     1      -0.520  10.999  18.609  0.00  0.00    +0.000 A 
ENDBRANCH  23  24
ENDBRANCH  17  20
ENDBRANCH   1  17
TORSDOF 6
ENDMDL
MODEL 5
REMARK VINA RESULT:      -8.4      0.754      1.544
REMARK  Name = 
REMARK  7 active torsions:
REMARK  status: ('A' for Active; 'I' for Inactive)
REMARK    1  A    between atoms: C_1  and  N_2
REMARK    2  A    between atoms: C_3  and  S_4
REMARK    3  A    between atoms: S_4  and  C_5
REMARK    4  A    between atoms: C_5  and  C_6
REMARK    5  A    between atoms: C_9  and  C_11
REMARK    6  A    between atoms: C_15  and  N_16
REMARK    7  A    between atoms: C_22  and  C_23
REMARK                            x       y       z     vdW  Elec       q    Type
REMARK                         _______ _______ _______ _____ _____    ______ ____
ROOT
ATOM      1  C   UNL     1       4.808   3.526  18.734  0.00  0.00    +0.000 C 
ENDROOT
BRANCH   1   2
ATOM      2  C   UNL     1       5.775   4.485  18.069  0.00  0.00    +0.000 C 
ATOM      3  O   UNL     1       6.346   5.346  18.735  0.00  0.00    +0.000 OA
ATOM      4  N   UNL     1       5.944   4.277  16.709  0.00  0.00    +0.000 N 
ATOM      5  C   UNL     1       6.801   5.042  15.936  0.00  0.00    +0.000 C 
ATOM      6  O   UNL     1       7.477   5.976  16.344  0.00  0.00    +0.000 OA
ATOM      7  H   UNL     1       5.524   3.449  16.304  0.00  0.00    +0.000 HD
BRANCH   5   8
ATOM      8  C   UNL     1       6.932   4.693  14.494  0.00  0.00    +0.000 A 
ATOM      9  C   UNL     1       7.866   5.435  13.749  0.00  0.00    +0.000 A 
ATOM     10  C   UNL     1       7.991   5.260  12.370  0.00  0.00    +0.000 A 
ATOM     11  C   UNL     1       7.173   4.347  11.712  0.00  0.00    +0.000 A 
ATOM     12  C   UNL     1       6.239   3.605  12.451  0.00  0.00    +0.000 A 
ATOM     13  C   UNL     1       6.112   3.765  13.843  0.00  0.00    +0.000 A 
BRANCH  12  14
ATOM     14  N   UNL     1       5.354   2.671  11.739  0.00  0.00    +0.000 N 
ATOM     15  O   UNL     1       5.802   1.556  11.445  0.00  0.00    +0.000 OA
ATOM     16  O   UNL     1       4.209   3.065  11.474  0.00  0.00    +0.000 OA
ENDBRANCH  12  14
ENDBRANCH   5   8
ENDBRANCH   1   2
BRANCH   1  17
ATOM     17  S   UNL     1       3.130   3.801  18.107  0.00  0.00    +0.000 S 
BRANCH  17  20
ATOM     18  C   UNL     1       3.098   7.029  17.924  0.00  0.00    +0.000 C 
ATOM     19  N   UNL     1       2.446   6.305  18.983  0.00  0.00    +0.000 N 
ATOM     20  C   UNL     1       2.522   4.962  19.231  0.00  0.00    +0.000 A 
ATOM     21  N   UNL     1       2.069   4.701  20.432  0.00  0.00    +0.000 NA
ATOM     22  N   UNL     1       1.592   5.881  20.953  0.00  0.00    +0.000 NA
ATOM     23  C   UNL     1       1.766   6.850  20.064  0.00  0.00    +0.000 A 
BRANCH  23  24
ATOM     24  C   UNL     1       1.382   8.260  20.258  0.00  0.00    +0.000 A 
ATOM     25  C   UNL     1       1.106   8.729  21.555  0.00  0.00    +0.000 A 
ATOM     26  C   UNL     1       0.780  10.071  21.783  0.00  0.00    +0.000 A 
ATOM     27  C   UNL     1       0.729  10.957  20.715  0.00  0.00    +0.000 A 
ATOM     28  F   UNL     1       0.439  12.246  20.931  0.00  0.00    +0.000 F 
ATOM     29  C   UNL     1       0.960  10.517  19.421  0.00  0.00    +0.000 A 
ATOM     30  C   UNL     1       1.256   9.168  19.194  0.00  0.00    +0.000 A 
ENDBRANCH  23  24
ENDBRANCH  17  20
ENDBRANCH   1  17
TORSDOF 6
ENDMDL
MODEL 6
REMARK VINA RESULT:      -8.3      2.847      4.560
REMARK  Name = 
REMARK  7 active torsions:
REMARK  status: ('A' for Active; 'I' for Inactive)
REMARK    1  A    between atoms: C_1  and  N_2
REMARK    2  A    between atoms: C_3  and  S_4
REMARK    3  A    between atoms: S_4  and  C_5
REMARK    4  A    between atoms: C_5  and  C_6
REMARK    5  A    between atoms: C_9  and  C_11
REMARK    6  A    between atoms: C_15  and  N_16
REMARK    7  A    between atoms: C_22  and  C_23
REMARK                            x       y       z     vdW  Elec       q    Type
REMARK                         _______ _______ _______ _____ _____    ______ ____
ROOT
ATOM      1  C   UNL     1       1.217   4.835  20.293  0.00  0.00    +0.000 C 
ENDROOT
BRANCH   1   2
ATOM      2  C   UNL     1       1.593   4.076  19.036  0.00  0.00    +0.000 C 
ATOM      3  O   UNL     1       0.843   3.211  18.589  0.00  0.00    +0.000 OA
ATOM      4  N   UNL     1       2.802   4.462  18.475  0.00  0.00    +0.000 N 
ATOM      5  C   UNL     1       3.302   3.895  17.315  0.00  0.00    +0.000 C 
ATOM      6  O   UNL     1       2.764   3.001  16.676  0.00  0.00    +0.000 OA
ATOM      7  H   UNL     1       3.259   5.279  18.859  0.00  0.00    +0.000 HD
BRANCH   5   8
ATOM      8  C   UNL     1       4.588   4.424  16.783  0.00  0.00    +0.000 A 
ATOM      9  C   UNL     1       5.112   3.782  15.647  0.00  0.00    +0.000 A 
ATOM     10  C   UNL     1       6.362   4.130  15.134  0.00  0.00    +0.000 A 
ATOM     11  C   UNL     1       7.114   5.121  15.757  0.00  0.00    +0.000 A 
ATOM     12  C   UNL     1       6.595   5.765  16.892  0.00  0.00    +0.000 A 
ATOM     13  C   UNL     1       5.331   5.429  17.411  0.00  0.00    +0.000 A 
BRANCH  12  14
ATOM     14  N   UNL     1       7.415   6.784  17.564  0.00  0.00    +0.000 N 
ATOM     15  O   UNL     1       7.516   7.895  17.030  0.00  0.00    +0.000 OA
ATOM     16  O   UNL     1       7.960   6.461  18.629  0.00  0.00    +0.000 OA
ENDBRANCH  12  14
ENDBRANCH   5   8
ENDBRANCH   1   2
BRANCH   1  17
ATOM     17  S   UNL     1       2.491   6.063  20.683  0.00  0.00    +0.000 S 
BRANCH  17  20
ATOM     18  C   UNL     1       0.663   8.685  21.176  0.00  0.00    +0.000 C 
ATOM     19  N   UNL     1       1.408   8.474  19.962  0.00  0.00    +0.000 N 
ATOM     20  C   UNL     1       2.087   7.344  19.598  0.00  0.00    +0.000 A 
ATOM     21  N   UNL     1       2.378   7.386  18.322  0.00  0.00    +0.000 NA
ATOM     22  N   UNL     1       1.970   8.613  17.851  0.00  0.00    +0.000 NA
ATOM     23  C   UNL     1       1.429   9.302  18.847  0.00  0.00    +0.000 A 
BRANCH  23  24
ATOM     24  C   UNL     1       0.873  10.663  18.735  0.00  0.00    +0.000 A 
ATOM     25  C   UNL     1       1.738  11.769  18.787  0.00  0.00    +0.000 A 
ATOM     26  C   UNL     1       1.251  13.074  18.642  0.00  0.00    +0.000 A 
ATOM     27  C   UNL     1      -0.107  13.282  18.441  0.00  0.00    +0.000 A 
ATOM     28  F   UNL     1      -0.573  14.526  18.281  0.00  0.00    +0.000 F 
ATOM     29  C   UNL     1      -0.990  12.214  18.423  0.00  0.00    +0.000 A 
ATOM     30  C   UNL     1      -0.503  10.914  18.599  0.00  0.00    +0.000 A 
ENDBRANCH  23  24
ENDBRANCH  17  20
ENDBRANCH   1  17
TORSDOF 6
ENDMDL
MODEL 7
REMARK VINA RESULT:      -8.2      1.793      2.607
REMARK  Name = 
REMARK  7 active torsions:
REMARK  status: ('A' for Active; 'I' for Inactive)
REMARK    1  A    between atoms: C_1  and  N_2
REMARK    2  A    between atoms: C_3  and  S_4
REMARK    3  A    between atoms: S_4  and  C_5
REMARK    4  A    between atoms: C_5  and  C_6
REMARK    5  A    between atoms: C_9  and  C_11
REMARK    6  A    between atoms: C_15  and  N_16
REMARK    7  A    between atoms: C_22  and  C_23
REMARK                            x       y       z     vdW  Elec       q    Type
REMARK                         _______ _______ _______ _____ _____    ______ ____
ROOT
ATOM      1  C   UNL     1       3.239   5.447  17.968  0.00  0.00    +0.000 C 
ENDROOT
BRANCH   1   2
ATOM      2  C   UNL     1       4.727   5.266  17.740  0.00  0.00    +0.000 C 
ATOM      3  O   UNL     1       5.507   5.320  18.689  0.00  0.00    +0.000 OA
ATOM      4  N   UNL     1       5.080   5.030  16.420  0.00  0.00    +0.000 N 
ATOM      5  C   UNL     1       6.389   4.822  16.022  0.00  0.00    +0.000 C 
ATOM      6  O   UNL     1       7.364   4.840  16.761  0.00  0.00    +0.000 OA
ATOM      7  H   UNL     1       4.333   4.872  15.754  0.00  0.00    +0.000 HD
BRANCH   5   8
ATOM      8  C   UNL     1       6.638   4.533  14.583  0.00  0.00    +0.000 A 
ATOM      9  C   UNL     1       7.604   5.327  13.938  0.00  0.00    +0.000 A 
ATOM     10  C   UNL     1       7.837   5.209  12.568  0.00  0.00    +0.000 A 
ATOM     11  C   UNL     1       7.098   4.301  11.816  0.00  0.00    +0.000 A 
ATOM     12  C   UNL     1       6.133   3.507  12.454  0.00  0.00    +0.000 A 
ATOM     13  C   UNL     1       5.897   3.610  13.838  0.00  0.00    +0.000 A 
BRANCH  12  14
ATOM     14  N   UNL     1       5.332   2.579  11.643  0.00  0.00    +0.000 N 
ATOM     15  O   UNL     1       4.185   2.922  11.328  0.00  0.00    +0.000 OA
ATOM     16  O   UNL     1       5.858   1.502  11.326  0.00  0.00    +0.000 OA
ENDBRANCH  12  14
ENDBRANCH   5   8
ENDBRANCH   1   2
BRANCH   1  17
ATOM     17  S   UNL     1       2.952   6.396  19.485  0.00  0.00    +0.000 S 
BRANCH  17  20
ATOM     18  C   UNL     1       0.918   8.482  20.888  0.00  0.00    +0.000 C 
ATOM     19  N   UNL     1       1.516   8.726  19.601  0.00  0.00    +0.000 N 
ATOM     20  C   UNL     1       2.266   7.853  18.862  0.00  0.00    +0.000 A 
ATOM     21  N   UNL     1       2.379   8.288  17.632  0.00  0.00    +0.000 NA
ATOM     22  N   UNL     1       1.776   9.523  17.580  0.00  0.00    +0.000 NA
ATOM     23  C   UNL     1       1.295   9.823  18.779  0.00  0.00    +0.000 A 
BRANCH  23  24
ATOM     24  C   UNL     1       0.578  11.065  19.121  0.00  0.00    +0.000 A 
ATOM     25  C   UNL     1      -0.808  11.021  19.353  0.00  0.00    +0.000 A 
ATOM     26  C   UNL     1      -1.516  12.171  19.721  0.00  0.00    +0.000 A 
ATOM     27  C   UNL     1      -0.841  13.377  19.862  0.00  0.00    +0.000 A 
ATOM     28  F   UNL     1      -1.510  14.475  20.235  0.00  0.00    +0.000 F 
ATOM     29  C   UNL     1       0.518  13.460  19.603  0.00  0.00    +0.000 A 
ATOM     30  C   UNL     1       1.216  12.314  19.207  0.00  0.00    +0.000 A 
ENDBRANCH  23  24
ENDBRANCH  17  20
ENDBRANCH   1  17
TORSDOF 6
ENDMDL
MODEL 8
REMARK VINA RESULT:      -8.1      8.226     11.493
REMARK  Name = 
REMARK  7 active torsions:
REMARK  status: ('A' for Active; 'I' for Inactive)
REMARK    1  A    between atoms: C_1  and  N_2
REMARK    2  A    between atoms: C_3  and  S_4
REMARK    3  A    between atoms: S_4  and  C_5
REMARK    4  A    between atoms: C_5  and  C_6
REMARK    5  A    between atoms: C_9  and  C_11
REMARK    6  A    between atoms: C_15  and  N_16
REMARK    7  A    between atoms: C_22  and  C_23
REMARK                            x       y       z     vdW  Elec       q    Type
REMARK                         _______ _______ _______ _____ _____    ______ ____
ROOT
ATOM      1  C   UNL     1      -5.121  12.664  24.398  0.00  0.00    +0.000 C 
ENDROOT
BRANCH   1   2
ATOM      2  C   UNL     1      -3.671  13.067  24.217  0.00  0.00    +0.000 C 
ATOM      3  O   UNL     1      -3.244  14.091  24.746  0.00  0.00    +0.000 OA
ATOM      4  N   UNL     1      -2.924  12.188  23.447  0.00  0.00    +0.000 N 
ATOM      5  C   UNL     1      -1.578  12.379  23.187  0.00  0.00    +0.000 C 
ATOM      6  O   UNL     1      -0.910  13.327  23.579  0.00  0.00    +0.000 OA
ATOM      7  H   UNL     1      -3.355  11.311  23.183  0.00  0.00    +0.000 HD
BRANCH   5   8
ATOM      8  C   UNL     1      -0.873  11.342  22.385  0.00  0.00    +0.000 A 
ATOM      9  C   UNL     1      -0.568  10.136  23.043  0.00  0.00    +0.000 A 
ATOM     10  C   UNL     1       0.184   9.142  22.415  0.00  0.00    +0.000 A 
ATOM     11  C   UNL     1       0.652   9.344  21.121  0.00  0.00    +0.000 A 
ATOM     12  C   UNL     1       0.352  10.545  20.460  0.00  0.00    +0.000 A 
ATOM     13  C   UNL     1      -0.414  11.550  21.080  0.00  0.00    +0.000 A 
BRANCH  12  14
ATOM     14  N   UNL     1       0.885  10.762  19.107  0.00  0.00    +0.000 N 
ATOM     15  O   UNL     1       0.782   9.842  18.287  0.00  0.00    +0.000 OA
ATOM     16  O   UNL     1       1.410  11.860  18.874  0.00  0.00    +0.000 OA
ENDBRANCH  12  14
ENDBRANCH   5   8
ENDBRANCH   1   2
BRANCH   1  17
ATOM     17  S   UNL     1      -6.180  13.649  23.306  0.00  0.00    +0.000 S 
BRANCH  17  20
ATOM     18  C   UNL     1      -4.389  14.152  20.661  0.00  0.00    +0.000 C 
ATOM     19  N   UNL     1      -5.209  12.981  20.834  0.00  0.00    +0.000 N 
ATOM     20  C   UNL     1      -6.107  12.744  21.838  0.00  0.00    +0.000 A 
ATOM     21  N   UNL     1      -6.886  11.741  21.516  0.00  0.00    +0.000 NA
ATOM     22  N   UNL     1      -6.432  11.240  20.318  0.00  0.00    +0.000 NA
ATOM     23  C   UNL     1      -5.383  11.949  19.920  0.00  0.00    +0.000 A 
BRANCH  23  24
ATOM     24  C   UNL     1      -4.622  11.716  18.679  0.00  0.00    +0.000 A 
ATOM     25  C   UNL     1      -3.236  11.490  18.751  0.00  0.00    +0.000 A 
ATOM     26  C   UNL     1      -2.488  11.224  17.598  0.00  0.00    +0.000 A 
ATOM     27  C   UNL     1      -3.121  11.179  16.363  0.00  0.00    +0.000 A 
ATOM     28  F   UNL     1      -2.413  10.903  15.261  0.00  0.00    +0.000 F 
ATOM     29  C   UNL     1      -4.479  11.435  16.256  0.00  0.00    +0.000 A 
ATOM     30  C   UNL     1      -5.218  11.730  17.407  0.00  0.00    +0.000 A 
ENDBRANCH  23  24
ENDBRANCH  17  20
ENDBRANCH   1  17
TORSDOF 6
ENDMDL
MODEL 9
REMARK VINA RESULT:      -8.1      1.672      2.504
REMARK  Name = 
REMARK  7 active torsions:
REMARK  status: ('A' for Active; 'I' for Inactive)
REMARK    1  A    between atoms: C_1  and  N_2
REMARK    2  A    between atoms: C_3  and  S_4
REMARK    3  A    between atoms: S_4  and  C_5
REMARK    4  A    between atoms: C_5  and  C_6
REMARK    5  A    between atoms: C_9  and  C_11
REMARK    6  A    between atoms: C_15  and  N_16
REMARK    7  A    between atoms: C_22  and  C_23
REMARK                            x       y       z     vdW  Elec       q    Type
REMARK                         _______ _______ _______ _____ _____    ______ ____
ROOT
ATOM      1  C   UNL     1       3.369   5.593  18.055  0.00  0.00    +0.000 C 
ENDROOT
BRANCH   1   2
ATOM      2  C   UNL     1       4.844   5.345  17.808  0.00  0.00    +0.000 C 
ATOM      3  O   UNL     1       5.636   5.349  18.747  0.00  0.00    +0.000 OA
ATOM      4  N   UNL     1       5.170   5.109  16.480  0.00  0.00    +0.000 N 
ATOM      5  C   UNL     1       6.463   4.844  16.064  0.00  0.00    +0.000 C 
ATOM      6  O   UNL     1       7.446   4.806  16.791  0.00  0.00    +0.000 OA
ATOM      7  H   UNL     1       4.409   4.995  15.822  0.00  0.00    +0.000 HD
BRANCH   5   8
ATOM      8  C   UNL     1       6.682   4.561  14.619  0.00  0.00    +0.000 A 
ATOM      9  C   UNL     1       7.652   5.342  13.964  0.00  0.00    +0.000 A 
ATOM     10  C   UNL     1       7.858   5.230  12.588  0.00  0.00    +0.000 A 
ATOM     11  C   UNL     1       7.089   4.342  11.843  0.00  0.00    +0.000 A 
ATOM     12  C   UNL     1       6.120   3.561  12.491  0.00  0.00    +0.000 A 
ATOM     13  C   UNL     1       5.911   3.658  13.880  0.00  0.00    +0.000 A 
BRANCH  12  14
ATOM     14  N   UNL     1       5.288   2.654  11.688  0.00  0.00    +0.000 N 
ATOM     15  O   UNL     1       4.147   3.026  11.387  0.00  0.00    +0.000 OA
ATOM     16  O   UNL     1       5.785   1.567  11.362  0.00  0.00    +0.000 OA
ENDBRANCH  12  14
ENDBRANCH   5   8
ENDBRANCH   1   2
BRANCH   1  17
ATOM     17  S   UNL     1       2.960   7.322  17.694  0.00  0.00    +0.000 S 
BRANCH  17  20
ATOM     18  C   UNL     1       1.629  10.165  18.470  0.00  0.00    +0.000 C 
ATOM     19  N   UNL     1       1.522   9.001  19.311  0.00  0.00    +0.000 N 
ATOM     20  C   UNL     1       2.165   7.805  19.147  0.00  0.00    +0.000 A 
ATOM     21  N   UNL     1       2.081   7.097  20.246  0.00  0.00    +0.000 NA
ATOM     22  N   UNL     1       1.283   7.796  21.122  0.00  0.00    +0.000 NA
ATOM     23  C   UNL     1       0.895   8.927  20.548  0.00  0.00    +0.000 A 
BRANCH  23  24
ATOM     24  C   UNL     1       0.031   9.944  21.174  0.00  0.00    +0.000 A 
ATOM     25  C   UNL     1      -0.489  10.987  20.387  0.00  0.00    +0.000 A 
ATOM     26  C   UNL     1      -1.347  11.947  20.937  0.00  0.00    +0.000 A 
ATOM     27  C   UNL     1      -1.694  11.870  22.279  0.00  0.00    +0.000 A 
ATOM     28  F   UNL     1      -2.531  12.774  22.804  0.00  0.00    +0.000 F 
ATOM     29  C   UNL     1      -1.167  10.876  23.089  0.00  0.00    +0.000 A 
ATOM     30  C   UNL     1      -0.286   9.936  22.542  0.00  0.00    +0.000 A 
ENDBRANCH  23  24
ENDBRANCH  17  20
ENDBRANCH   1  17
TORSDOF 6
ENDMDL
