MODEL 1
REMARK VINA RESULT:      -7.3      0.000      0.000
REMARK  Name = 
REMARK  10 active torsions:
REMARK  status: ('A' for Active; 'I' for Inactive)
REMARK    1  A    between atoms: C_1  and  C_2
REMARK    2  A    between atoms: C_2  and  N_3
REMARK    3  A    between atoms: N_3  and  C_4
REMARK    4  A    between atoms: N_3  and  C_6
REMARK    5  A    between atoms: C_4  and  C_5
REMARK    6  A    between atoms: C_6  and  C_7
REMARK    7  A    between atoms: C_7  and  O_8
REMARK    8  A    between atoms: O_8  and  C_9
REMARK    9  A    between atoms: C_12  and  C_13
REMARK   10  A    between atoms: C_13  and  C_14
REMARK                            x       y       z     vdW  Elec       q    Type
REMARK                         _______ _______ _______ _____ _____    ______ ____
ROOT
ATOM      1  C   UNL     1       6.114   4.943  15.971  0.00  0.00    +0.000 A 
ATOM      2  C   UNL     1       5.358   3.944  16.579  0.00  0.00    +0.000 A 
ATOM      3  C   UNL     1       4.224   4.250  17.322  0.00  0.00    +0.000 A 
ATOM      4  C   UNL     1       3.808   5.570  17.466  0.00  0.00    +0.000 A 
ATOM      5  C   UNL     1       4.563   6.587  16.860  0.00  0.00    +0.000 A 
ATOM      6  C   UNL     1       5.707   6.275  16.108  0.00  0.00    +0.000 A 
ENDROOT
BRANCH   1   7
ATOM      7  O   UNL     1       7.256   4.702  15.228  0.00  0.00    +0.000 OA
BRANCH   7   8
ATOM      8  C   UNL     1       7.011   4.705  13.811  0.00  0.00    +0.000 C 
BRANCH   8   9
ATOM      9  C   UNL     1       5.802   3.864  13.409  0.00  0.00    +0.000 C 
BRANCH   9  10
ATOM     10  N   UNL     1       5.794   3.490  11.970  0.00  0.00    +0.000 NA
BRANCH  10  12
ATOM     11  C   UNL     1       6.780   1.388  10.951  0.00  0.00    +0.000 C 
ATOM     12  C   UNL     1       7.009   2.710  11.677  0.00  0.00    +0.000 C 
ENDBRANCH  10  12
BRANCH  10  13
ATOM     13  C   UNL     1       4.551   2.848  11.509  0.00  0.00    +0.000 C 
ATOM     14  C   UNL     1       3.645   3.699  10.622  0.00  0.00    +0.000 C 
ENDBRANCH  10  13
ENDBRANCH   9  10
ENDBRANCH   8   9
ENDBRANCH   7   8
ENDBRANCH   1   7
BRANCH   4  15
ATOM     15  C   UNL     1       2.551   5.844  18.253  0.00  0.00    +0.000 C 
BRANCH  15  16
ATOM     16  C   UNL     1       2.146   4.767  19.233  0.00  0.00    +0.000 A 
ATOM     17  C   UNL     1       2.625   4.799  20.549  0.00  0.00    +0.000 A 
ATOM     18  C   UNL     1       2.185   3.864  21.485  0.00  0.00    +0.000 A 
ATOM     19  C   UNL     1       1.271   2.878  21.116  0.00  0.00    +0.000 A 
ATOM     20  C   UNL     1       0.814   2.814  19.802  0.00  0.00    +0.000 A 
ATOM     21  C   UNL     1       1.256   3.748  18.861  0.00  0.00    +0.000 A 
ENDBRANCH  15  16
ENDBRANCH   4  15
TORSDOF 8
ENDMDL
MODEL 2
REMARK VINA RESULT:      -7.1      0.822      1.327
REMARK  Name = 
REMARK  10 active torsions:
REMARK  status: ('A' for Active; 'I' for Inactive)
REMARK    1  A    between atoms: C_1  and  C_2
REMARK    2  A    between atoms: C_2  and  N_3
REMARK    3  A    between atoms: N_3  and  C_4
REMARK    4  A    between atoms: N_3  and  C_6
REMARK    5  A    between atoms: C_4  and  C_5
REMARK    6  A    between atoms: C_6  and  C_7
REMARK    7  A    between atoms: C_7  and  O_8
REMARK    8  A    between atoms: O_8  and  C_9
REMARK    9  A    between atoms: C_12  and  C_13
REMARK   10  A    between atoms: C_13  and  C_14
REMARK                            x       y       z     vdW  Elec       q    Type
REMARK                         _______ _______ _______ _____ _____    ______ ____
ROOT
ATOM      1  C   UNL     1       5.792   5.433  15.711  0.00  0.00    +0.000 A 
ATOM      2  C   UNL     1       5.753   4.428  16.674  0.00  0.00    +0.000 A 
ATOM      3  C   UNL     1       5.041   4.591  17.857  0.00  0.00    +0.000 A 
ATOM      4  C   UNL     1       4.336   5.765  18.102  0.00  0.00    +0.000 A 
ATOM      5  C   UNL     1       4.369   6.787  17.139  0.00  0.00    +0.000 A 
ATOM      6  C   UNL     1       5.087   6.618  15.944  0.00  0.00    +0.000 A 
ENDROOT
BRANCH   1   7
ATOM      7  O   UNL     1       6.490   5.333  14.520  0.00  0.00    +0.000 OA
BRANCH   7   8
ATOM      8  C   UNL     1       6.327   4.053  13.884  0.00  0.00    +0.000 C 
BRANCH   8   9
ATOM      9  C   UNL     1       7.045   3.955  12.540  0.00  0.00    +0.000 C 
BRANCH   9  10
ATOM     10  N   UNL     1       6.290   3.178  11.522  0.00  0.00    +0.000 NA
BRANCH  10  12
ATOM     11  C   UNL     1       6.259   0.668  11.167  0.00  0.00    +0.000 C 
ATOM     12  C   UNL     1       7.059   1.967  11.186  0.00  0.00    +0.000 C 
ENDBRANCH  10  12
BRANCH  10  13
ATOM     13  C   UNL     1       4.884   2.911  11.871  0.00  0.00    +0.000 C 
ATOM     14  C   UNL     1       3.839   3.408  10.876  0.00  0.00    +0.000 C 
ENDBRANCH  10  13
ENDBRANCH   9  10
ENDBRANCH   8   9
ENDBRANCH   7   8
ENDBRANCH   1   7
BRANCH   4  15
ATOM     15  C   UNL     1       3.551   5.877  19.384  0.00  0.00    +0.000 C 
BRANCH  15  16
ATOM     16  C   UNL     1       2.534   4.785  19.625  0.00  0.00    +0.000 A 
ATOM     17  C   UNL     1       1.824   4.238  18.549  0.00  0.00    +0.000 A 
ATOM     18  C   UNL     1       0.952   3.168  18.747  0.00  0.00    +0.000 A 
ATOM     19  C   UNL     1       0.770   2.639  20.024  0.00  0.00    +0.000 A 
ATOM     20  C   UNL     1       1.445   3.195  21.108  0.00  0.00    +0.000 A 
ATOM     21  C   UNL     1       2.317   4.270  20.913  0.00  0.00    +0.000 A 
ENDBRANCH  15  16
ENDBRANCH   4  15
TORSDOF 8
ENDMDL
MODEL 3
REMARK VINA RESULT:      -7.1      0.659      2.105
REMARK  Name = 
REMARK  10 active torsions:
REMARK  status: ('A' for Active; 'I' for Inactive)
REMARK    1  A    between atoms: C_1  and  C_2
REMARK    2  A    between atoms: C_2  and  N_3
REMARK    3  A    between atoms: N_3  and  C_4
REMARK    4  A    between atoms: N_3  and  C_6
REMARK    5  A    between atoms: C_4  and  C_5
REMARK    6  A    between atoms: C_6  and  C_7
REMARK    7  A    between atoms: C_7  and  O_8
REMARK    8  A    between atoms: O_8  and  C_9
REMARK    9  A    between atoms: C_12  and  C_13
REMARK   10  A    between atoms: C_13  and  C_14
REMARK                            x       y       z     vdW  Elec       q    Type
REMARK                         _______ _______ _______ _____ _____    ______ ____
ROOT
ATOM      1  C   UNL     1       5.833   4.412  15.571  0.00  0.00    +0.000 A 
ATOM      2  C   UNL     1       5.535   5.769  15.681  0.00  0.00    +0.000 A 
ATOM      3  C   UNL     1       4.552   6.222  16.554  0.00  0.00    +0.000 A 
ATOM      4  C   UNL     1       3.847   5.326  17.351  0.00  0.00    +0.000 A 
ATOM      5  C   UNL     1       4.136   3.956  17.247  0.00  0.00    +0.000 A 
ATOM      6  C   UNL     1       5.131   3.501  16.367  0.00  0.00    +0.000 A 
ENDROOT
BRANCH   1   7
ATOM      7  O   UNL     1       6.792   3.901  14.715  0.00  0.00    +0.000 OA
BRANCH   7   8
ATOM      8  C   UNL     1       6.996   4.721  13.551  0.00  0.00    +0.000 C 
BRANCH   8   9
ATOM      9  C   UNL     1       6.876   3.945  12.242  0.00  0.00    +0.000 C 
BRANCH   9  10
ATOM     10  N   UNL     1       5.663   3.087  12.172  0.00  0.00    +0.000 NA
BRANCH  10  12
ATOM     11  C   UNL     1       3.487   3.033  10.874  0.00  0.00    +0.000 C 
ATOM     12  C   UNL     1       4.571   3.861  11.556  0.00  0.00    +0.000 C 
ENDBRANCH  10  12
BRANCH  10  13
ATOM     13  C   UNL     1       5.880   1.768  11.552  0.00  0.00    +0.000 C 
ATOM     14  C   UNL     1       7.208   1.577  10.827  0.00  0.00    +0.000 C 
ENDBRANCH  10  13
ENDBRANCH   9  10
ENDBRANCH   8   9
ENDBRANCH   7   8
ENDBRANCH   1   7
BRANCH   4  15
ATOM     15  C   UNL     1       2.816   5.873  18.305  0.00  0.00    +0.000 C 
BRANCH  15  16
ATOM     16  C   UNL     1       2.231   4.873  19.278  0.00  0.00    +0.000 A 
ATOM     17  C   UNL     1       1.267   3.956  18.844  0.00  0.00    +0.000 A 
ATOM     18  C   UNL     1       0.789   2.970  19.708  0.00  0.00    +0.000 A 
ATOM     19  C   UNL     1       1.260   2.897  21.018  0.00  0.00    +0.000 A 
ATOM     20  C   UNL     1       2.195   3.826  21.471  0.00  0.00    +0.000 A 
ATOM     21  C   UNL     1       2.673   4.816  20.609  0.00  0.00    +0.000 A 
ENDBRANCH  15  16
ENDBRANCH   4  15
TORSDOF 8
ENDMDL
MODEL 4
REMARK VINA RESULT:      -7.1      4.130      6.483
REMARK  Name = 
REMARK  10 active torsions:
REMARK  status: ('A' for Active; 'I' for Inactive)
REMARK    1  A    between atoms: C_1  and  C_2
REMARK    2  A    between atoms: C_2  and  N_3
REMARK    3  A    between atoms: N_3  and  C_4
REMARK    4  A    between atoms: N_3  and  C_6
REMARK    5  A    between atoms: C_4  and  C_5
REMARK    6  A    between atoms: C_6  and  C_7
REMARK    7  A    between atoms: C_7  and  O_8
REMARK    8  A    between atoms: O_8  and  C_9
REMARK    9  A    between atoms: C_12  and  C_13
REMARK   10  A    between atoms: C_13  and  C_14
REMARK                            x       y       z     vdW  Elec       q    Type
REMARK                         _______ _______ _______ _____ _____    ______ ____
ROOT
ATOM      1  C   UNL     1       6.732   6.435  16.896  0.00  0.00    +0.000 A 
ATOM      2  C   UNL     1       5.521   6.792  17.484  0.00  0.00    +0.000 A 
ATOM      3  C   UNL     1       4.461   5.894  17.552  0.00  0.00    +0.000 A 
ATOM      4  C   UNL     1       4.592   4.606  17.042  0.00  0.00    +0.000 A 
ATOM      5  C   UNL     1       5.808   4.236  16.444  0.00  0.00    +0.000 A 
ATOM      6  C   UNL     1       6.877   5.144  16.379  0.00  0.00    +0.000 A 
ENDROOT
BRANCH   1   7
ATOM      7  O   UNL     1       7.818   7.287  16.791  0.00  0.00    +0.000 OA
BRANCH   7   8
ATOM      8  C   UNL     1       8.015   8.088  17.969  0.00  0.00    +0.000 C 
BRANCH   8   9
ATOM      9  C   UNL     1       7.981   9.588  17.687  0.00  0.00    +0.000 C 
BRANCH   9  10
ATOM     10  N   UNL     1       9.136  10.324  18.265  0.00  0.00    +0.000 NA
BRANCH  10  12
ATOM     11  C   UNL     1      10.226  12.465  17.456  0.00  0.00    +0.000 C 
ATOM     12  C   UNL     1       8.976  11.759  17.972  0.00  0.00    +0.000 C 
ENDBRANCH  10  12
BRANCH  10  13
ATOM     13  C   UNL     1       9.401  10.034  19.685  0.00  0.00    +0.000 C 
ATOM     14  C   UNL     1       9.310  11.220  20.641  0.00  0.00    +0.000 C 
ENDBRANCH  10  13
ENDBRANCH   9  10
ENDBRANCH   8   9
ENDBRANCH   7   8
ENDBRANCH   1   7
BRANCH   4  15
ATOM     15  C   UNL     1       3.425   3.661  17.173  0.00  0.00    +0.000 C 
BRANCH  15  16
ATOM     16  C   UNL     1       2.822   3.554  18.555  0.00  0.00    +0.000 A 
ATOM     17  C   UNL     1       1.519   4.010  18.788  0.00  0.00    +0.000 A 
ATOM     18  C   UNL     1       0.919   3.832  20.035  0.00  0.00    +0.000 A 
ATOM     19  C   UNL     1       1.619   3.209  21.067  0.00  0.00    +0.000 A 
ATOM     20  C   UNL     1       2.929   2.782  20.858  0.00  0.00    +0.000 A 
ATOM     21  C   UNL     1       3.532   2.961  19.610  0.00  0.00    +0.000 A 
ENDBRANCH  15  16
ENDBRANCH   4  15
TORSDOF 8
ENDMDL
MODEL 5
REMARK VINA RESULT:      -7.0      4.221      6.506
REMARK  Name = 
REMARK  10 active torsions:
REMARK  status: ('A' for Active; 'I' for Inactive)
REMARK    1  A    between atoms: C_1  and  C_2
REMARK    2  A    between atoms: C_2  and  N_3
REMARK    3  A    between atoms: N_3  and  C_4
REMARK    4  A    between atoms: N_3  and  C_6
REMARK    5  A    between atoms: C_4  and  C_5
REMARK    6  A    between atoms: C_6  and  C_7
REMARK    7  A    between atoms: C_7  and  O_8
REMARK    8  A    between atoms: O_8  and  C_9
REMARK    9  A    between atoms: C_12  and  C_13
REMARK   10  A    between atoms: C_13  and  C_14
REMARK                            x       y       z     vdW  Elec       q    Type
REMARK                         _______ _______ _______ _____ _____    ______ ____
ROOT
ATOM      1  C   UNL     1       6.829   6.448  16.904  0.00  0.00    +0.000 A 
ATOM      2  C   UNL     1       6.957   5.099  16.580  0.00  0.00    +0.000 A 
ATOM      3  C   UNL     1       5.888   4.220  16.717  0.00  0.00    +0.000 A 
ATOM      4  C   UNL     1       4.654   4.673  17.172  0.00  0.00    +0.000 A 
ATOM      5  C   UNL     1       4.513   6.031  17.504  0.00  0.00    +0.000 A 
ATOM      6  C   UNL     1       5.593   6.917  17.363  0.00  0.00    +0.000 A 
ENDROOT
BRANCH   1   7
ATOM      7  O   UNL     1       7.857   7.367  16.798  0.00  0.00    +0.000 OA
BRANCH   7   8
ATOM      8  C   UNL     1       8.121   8.054  18.034  0.00  0.00    +0.000 C 
BRANCH   8   9
ATOM      9  C   UNL     1       8.071   9.573  17.900  0.00  0.00    +0.000 C 
BRANCH   9  10
ATOM     10  N   UNL     1       9.187  10.266  18.596  0.00  0.00    +0.000 NA
BRANCH  10  12
ATOM     11  C   UNL     1      10.800  11.932  17.572  0.00  0.00    +0.000 C 
ATOM     12  C   UNL     1       9.372  11.595  17.987  0.00  0.00    +0.000 C 
ENDBRANCH  10  12
BRANCH  10  13
ATOM     13  C   UNL     1       9.070  10.296  20.064  0.00  0.00    +0.000 C 
ATOM     14  C   UNL     1       9.769  11.455  20.769  0.00  0.00    +0.000 C 
ENDBRANCH  10  13
ENDBRANCH   9  10
ENDBRANCH   8   9
ENDBRANCH   7   8
ENDBRANCH   1   7
BRANCH   4  15
ATOM     15  C   UNL     1       3.519   3.686  17.269  0.00  0.00    +0.000 C 
BRANCH  15  16
ATOM     16  C   UNL     1       2.839   3.605  18.617  0.00  0.00    +0.000 A 
ATOM     17  C   UNL     1       1.534   4.087  18.774  0.00  0.00    +0.000 A 
ATOM     18  C   UNL     1       0.864   3.933  19.988  0.00  0.00    +0.000 A 
ATOM     19  C   UNL     1       1.493   3.306  21.062  0.00  0.00    +0.000 A 
ATOM     20  C   UNL     1       2.804   2.852  20.929  0.00  0.00    +0.000 A 
ATOM     21  C   UNL     1       3.478   3.008  19.715  0.00  0.00    +0.000 A 
ENDBRANCH  15  16
ENDBRANCH   4  15
TORSDOF 8
ENDMDL
MODEL 6
REMARK VINA RESULT:      -7.0      4.670      6.910
REMARK  Name = 
REMARK  10 active torsions:
REMARK  status: ('A' for Active; 'I' for Inactive)
REMARK    1  A    between atoms: C_1  and  C_2
REMARK    2  A    between atoms: C_2  and  N_3
REMARK    3  A    between atoms: N_3  and  C_4
REMARK    4  A    between atoms: N_3  and  C_6
REMARK    5  A    between atoms: C_4  and  C_5
REMARK    6  A    between atoms: C_6  and  C_7
REMARK    7  A    between atoms: C_7  and  O_8
REMARK    8  A    between atoms: O_8  and  C_9
REMARK    9  A    between atoms: C_12  and  C_13
REMARK   10  A    between atoms: C_13  and  C_14
REMARK                            x       y       z     vdW  Elec       q    Type
REMARK                         _______ _______ _______ _____ _____    ______ ____
ROOT
ATOM      1  C   UNL     1       7.272   6.717  18.227  0.00  0.00    +0.000 A 
ATOM      2  C   UNL     1       6.927   5.568  18.934  0.00  0.00    +0.000 A 
ATOM      3  C   UNL     1       5.759   4.869  18.648  0.00  0.00    +0.000 A 
ATOM      4  C   UNL     1       4.910   5.297  17.633  0.00  0.00    +0.000 A 
ATOM      5  C   UNL     1       5.245   6.457  16.914  0.00  0.00    +0.000 A 
ATOM      6  C   UNL     1       6.426   7.159  17.204  0.00  0.00    +0.000 A 
ENDROOT
BRANCH   1   7
ATOM      7  O   UNL     1       8.413   7.460  18.472  0.00  0.00    +0.000 OA
BRANCH   7   8
ATOM      8  C   UNL     1       8.273   8.840  18.093  0.00  0.00    +0.000 C 
BRANCH   8   9
ATOM      9  C   UNL     1       8.953   9.802  19.064  0.00  0.00    +0.000 C 
BRANCH   9  10
ATOM     10  N   UNL     1       9.732  10.872  18.388  0.00  0.00    +0.000 NA
BRANCH  10  12
ATOM     11  C   UNL     1       9.435  13.252  17.566  0.00  0.00    +0.000 C 
ATOM     12  C   UNL     1       8.799  11.911  17.918  0.00  0.00    +0.000 C 
ENDBRANCH  10  12
BRANCH  10  13
ATOM     13  C   UNL     1      10.861  11.400  19.174  0.00  0.00    +0.000 C 
ATOM     14  C   UNL     1      10.543  11.823  20.606  0.00  0.00    +0.000 C 
ENDBRANCH  10  13
ENDBRANCH   9  10
ENDBRANCH   8   9
ENDBRANCH   7   8
ENDBRANCH   1   7
BRANCH   4  15
ATOM     15  C   UNL     1       3.675   4.484  17.340  0.00  0.00    +0.000 C 
BRANCH  15  16
ATOM     16  C   UNL     1       2.780   4.205  18.526  0.00  0.00    +0.000 A 
ATOM     17  C   UNL     1       2.464   2.885  18.871  0.00  0.00    +0.000 A 
ATOM     18  C   UNL     1       1.717   2.612  20.017  0.00  0.00    +0.000 A 
ATOM     19  C   UNL     1       1.266   3.655  20.825  0.00  0.00    +0.000 A 
ATOM     20  C   UNL     1       1.545   4.975  20.474  0.00  0.00    +0.000 A 
ATOM     21  C   UNL     1       2.291   5.250  19.324  0.00  0.00    +0.000 A 
ENDBRANCH  15  16
ENDBRANCH   4  15
TORSDOF 8
ENDMDL
MODEL 7
REMARK VINA RESULT:      -7.0      4.754      6.959
REMARK  Name = 
REMARK  10 active torsions:
REMARK  status: ('A' for Active; 'I' for Inactive)
REMARK    1  A    between atoms: C_1  and  C_2
REMARK    2  A    between atoms: C_2  and  N_3
REMARK    3  A    between atoms: N_3  and  C_4
REMARK    4  A    between atoms: N_3  and  C_6
REMARK    5  A    between atoms: C_4  and  C_5
REMARK    6  A    between atoms: C_6  and  C_7
REMARK    7  A    between atoms: C_7  and  O_8
REMARK    8  A    between atoms: O_8  and  C_9
REMARK    9  A    between atoms: C_12  and  C_13
REMARK   10  A    between atoms: C_13  and  C_14
REMARK                            x       y       z     vdW  Elec       q    Type
REMARK                         _______ _______ _______ _____ _____    ______ ____
ROOT
ATOM      1  C   UNL     1       6.951   7.154  17.473  0.00  0.00    +0.000 A 
ATOM      2  C   UNL     1       7.390   6.101  18.273  0.00  0.00    +0.000 A 
ATOM      3  C   UNL     1       6.613   4.964  18.458  0.00  0.00    +0.000 A 
ATOM      4  C   UNL     1       5.376   4.844  17.834  0.00  0.00    +0.000 A 
ATOM      5  C   UNL     1       4.921   5.899  17.026  0.00  0.00    +0.000 A 
ATOM      6  C   UNL     1       5.709   7.046  16.839  0.00  0.00    +0.000 A 
ENDROOT
BRANCH   1   7
ATOM      7  O   UNL     1       7.675   8.313  17.259  0.00  0.00    +0.000 OA
BRANCH   7   8
ATOM      8  C   UNL     1       8.502   8.670  18.380  0.00  0.00    +0.000 C 
BRANCH   8   9
ATOM      9  C   UNL     1       8.830  10.160  18.434  0.00  0.00    +0.000 C 
BRANCH   9  10
ATOM     10  N   UNL     1       9.788  10.515  19.515  0.00  0.00    +0.000 NA
BRANCH  10  12
ATOM     11  C   UNL     1      10.541  11.987  17.594  0.00  0.00    +0.000 C 
ATOM     12  C   UNL     1      10.859  11.349  18.942  0.00  0.00    +0.000 C 
ENDBRANCH  10  12
BRANCH  10  13
ATOM     13  C   UNL     1       9.168  11.091  20.721  0.00  0.00    +0.000 C 
ATOM     14  C   UNL     1       9.857  12.318  21.309  0.00  0.00    +0.000 C 
ENDBRANCH  10  13
ENDBRANCH   9  10
ENDBRANCH   8   9
ENDBRANCH   7   8
ENDBRANCH   1   7
BRANCH   4  15
ATOM     15  C   UNL     1       4.588   3.575  18.040  0.00  0.00    +0.000 C 
BRANCH  15  16
ATOM     16  C   UNL     1       3.345   3.709  18.890  0.00  0.00    +0.000 A 
ATOM     17  C   UNL     1       3.303   4.648  19.928  0.00  0.00    +0.000 A 
ATOM     18  C   UNL     1       2.132   4.845  20.658  0.00  0.00    +0.000 A 
ATOM     19  C   UNL     1       0.991   4.098  20.368  0.00  0.00    +0.000 A 
ATOM     20  C   UNL     1       1.029   3.137  19.360  0.00  0.00    +0.000 A 
ATOM     21  C   UNL     1       2.203   2.935  18.630  0.00  0.00    +0.000 A 
ENDBRANCH  15  16
ENDBRANCH   4  15
TORSDOF 8
ENDMDL
MODEL 8
REMARK VINA RESULT:      -7.0      6.053      8.720
REMARK  Name = 
REMARK  10 active torsions:
REMARK  status: ('A' for Active; 'I' for Inactive)
REMARK    1  A    between atoms: C_1  and  C_2
REMARK    2  A    between atoms: C_2  and  N_3
REMARK    3  A    between atoms: N_3  and  C_4
REMARK    4  A    between atoms: N_3  and  C_6
REMARK    5  A    between atoms: C_4  and  C_5
REMARK    6  A    between atoms: C_6  and  C_7
REMARK    7  A    between atoms: C_7  and  O_8
REMARK    8  A    between atoms: O_8  and  C_9
REMARK    9  A    between atoms: C_12  and  C_13
REMARK   10  A    between atoms: C_13  and  C_14
REMARK                            x       y       z     vdW  Elec       q    Type
REMARK                         _______ _______ _______ _____ _____    ______ ____
ROOT
ATOM      1  C   UNL     1       0.495  10.069  19.416  0.00  0.00    +0.000 A 
ATOM      2  C   UNL     1       1.132   9.610  18.265  0.00  0.00    +0.000 A 
ATOM      3  C   UNL     1       1.926   8.469  18.288  0.00  0.00    +0.000 A 
ATOM      4  C   UNL     1       2.091   7.746  19.465  0.00  0.00    +0.000 A 
ATOM      5  C   UNL     1       1.456   8.200  20.632  0.00  0.00    +0.000 A 
ATOM      6  C   UNL     1       0.653   9.352  20.606  0.00  0.00    +0.000 A 
ENDROOT
BRANCH   1   7
ATOM      7  O   UNL     1      -0.298  11.202  19.458  0.00  0.00    +0.000 OA
BRANCH   7   8
ATOM      8  C   UNL     1      -0.953  11.471  18.205  0.00  0.00    +0.000 C 
BRANCH   8   9
ATOM      9  C   UNL     1      -2.454  11.708  18.352  0.00  0.00    +0.000 C 
BRANCH   9  10
ATOM     10  N   UNL     1      -3.221  11.426  17.110  0.00  0.00    +0.000 NA
BRANCH  10  12
ATOM     11  C   UNL     1      -2.898  10.090  14.980  0.00  0.00    +0.000 C 
ATOM     12  C   UNL     1      -2.678  10.207  16.485  0.00  0.00    +0.000 C 
ENDBRANCH  10  12
BRANCH  10  13
ATOM     13  C   UNL     1      -4.684  11.403  17.283  0.00  0.00    +0.000 C 
ATOM     14  C   UNL     1      -5.197  11.665  18.696  0.00  0.00    +0.000 C 
ENDBRANCH  10  13
ENDBRANCH   9  10
ENDBRANCH   8   9
ENDBRANCH   7   8
ENDBRANCH   1   7
BRANCH   4  15
ATOM     15  C   UNL     1       2.934   6.496  19.427  0.00  0.00    +0.000 C 
BRANCH  15  16
ATOM     16  C   UNL     1       2.167   5.193  19.394  0.00  0.00    +0.000 A 
ATOM     17  C   UNL     1       1.909   4.563  18.171  0.00  0.00    +0.000 A 
ATOM     18  C   UNL     1       1.285   3.316  18.135  0.00  0.00    +0.000 A 
ATOM     19  C   UNL     1       0.901   2.690  19.320  0.00  0.00    +0.000 A 
ATOM     20  C   UNL     1       1.121   3.322  20.542  0.00  0.00    +0.000 A 
ATOM     21  C   UNL     1       1.743   4.573  20.580  0.00  0.00    +0.000 A 
ENDBRANCH  15  16
ENDBRANCH   4  15
TORSDOF 8
ENDMDL
MODEL 9
REMARK VINA RESULT:      -7.0      6.128      8.768
REMARK  Name = 
REMARK  10 active torsions:
REMARK  status: ('A' for Active; 'I' for Inactive)
REMARK    1  A    between atoms: C_1  and  C_2
REMARK    2  A    between atoms: C_2  and  N_3
REMARK    3  A    between atoms: N_3  and  C_4
REMARK    4  A    between atoms: N_3  and  C_6
REMARK    5  A    between atoms: C_4  and  C_5
REMARK    6  A    between atoms: C_6  and  C_7
REMARK    7  A    between atoms: C_7  and  O_8
REMARK    8  A    between atoms: O_8  and  C_9
REMARK    9  A    between atoms: C_12  and  C_13
REMARK   10  A    between atoms: C_13  and  C_14
REMARK                            x       y       z     vdW  Elec       q    Type
REMARK                         _______ _______ _______ _____ _____    ______ ____
ROOT
ATOM      1  C   UNL     1       0.482   9.983  19.224  0.00  0.00    +0.000 A 
ATOM      2  C   UNL     1       0.690   9.285  20.411  0.00  0.00    +0.000 A 
ATOM      3  C   UNL     1       1.497   8.154  20.450  0.00  0.00    +0.000 A 
ATOM      4  C   UNL     1       2.131   7.698  19.298  0.00  0.00    +0.000 A 
ATOM      5  C   UNL     1       1.927   8.392  18.094  0.00  0.00    +0.000 A 
ATOM      6  C   UNL     1       1.113   9.535  18.059  0.00  0.00    +0.000 A 
ENDROOT
BRANCH   1   7
ATOM      7  O   UNL     1      -0.317  11.108  19.122  0.00  0.00    +0.000 OA
BRANCH   7   8
ATOM      8  C   UNL     1      -1.173  11.081  17.965  0.00  0.00    +0.000 C 
BRANCH   8   9
ATOM      9  C   UNL     1      -2.630  11.403  18.289  0.00  0.00    +0.000 C 
BRANCH   9  10
ATOM     10  N   UNL     1      -3.598  10.748  17.370  0.00  0.00    +0.000 NA
BRANCH  10  12
ATOM     11  C   UNL     1      -5.707  12.153  17.362  0.00  0.00    +0.000 C 
ATOM     12  C   UNL     1      -4.958  10.940  17.902  0.00  0.00    +0.000 C 
ENDBRANCH  10  12
BRANCH  10  13
ATOM     13  C   UNL     1      -3.455  11.128  15.954  0.00  0.00    +0.000 C 
ATOM     14  C   UNL     1      -3.026  10.017  15.001  0.00  0.00    +0.000 C 
ENDBRANCH  10  13
ENDBRANCH   9  10
ENDBRANCH   8   9
ENDBRANCH   7   8
ENDBRANCH   1   7
BRANCH   4  15
ATOM     15  C   UNL     1       3.023   6.487  19.401  0.00  0.00    +0.000 C 
BRANCH  15  16
ATOM     16  C   UNL     1       2.314   5.151  19.402  0.00  0.00    +0.000 A 
ATOM     17  C   UNL     1       1.903   4.577  20.611  0.00  0.00    +0.000 A 
ATOM     18  C   UNL     1       1.167   3.392  20.618  0.00  0.00    +0.000 A 
ATOM     19  C   UNL     1       0.843   2.761  19.417  0.00  0.00    +0.000 A 
ATOM     20  C   UNL     1       1.275   3.305  18.209  0.00  0.00    +0.000 A 
ATOM     21  C   UNL     1       2.016   4.490  18.201  0.00  0.00    +0.000 A 
ENDBRANCH  15  16
ENDBRANCH   4  15
TORSDOF 8
ENDMDL
