MODEL 1
REMARK VINA RESULT:      -8.8      0.000      0.000
REMARK  Name = 
REMARK  6 active torsions:
REMARK  status: ('A' for Active; 'I' for Inactive)
REMARK    1  A    between atoms: C_1  and  C_2
REMARK    2  A    between atoms: C_7  and  C_8
REMARK    3  A    between atoms: C_15  and  N_16
REMARK    4  A    between atoms: C_17  and  C_19
REMARK    5  A    between atoms: C_19  and  O_20
REMARK    6  A    between atoms: O_20  and  C_21
REMARK                            x       y       z     vdW  Elec       q    Type
REMARK                         _______ _______ _______ _____ _____    ______ ____
ROOT
ATOM      1  C   UNL     1       1.346   2.420  22.033  0.00  0.00    +0.000 C 
ATOM      2  C   UNL     1       1.773   2.641  20.615  0.00  0.00    +0.000 A 
ATOM      3  C   UNL     1       0.798   2.435  19.545  0.00  0.00    +0.000 A 
ATOM      4  C   UNL     1       1.113   2.616  18.249  0.00  0.00    +0.000 A 
ATOM      5  C   UNL     1       2.430   3.016  17.893  0.00  0.00    +0.000 A 
ATOM      6  N   UNL     1       2.974   3.267  16.723  0.00  0.00    +0.000 NA
ATOM      7  C   UNL     1       4.288   3.590  16.975  0.00  0.00    +0.000 A 
ATOM      8  C   UNL     1       4.526   3.592  18.340  0.00  0.00    +0.000 A 
ATOM      9  N   UNL     1       3.340   3.194  18.928  0.00  0.00    +0.000 N 
ATOM     10  C   UNL     1       3.022   3.019  20.274  0.00  0.00    +0.000 A 
ENDROOT
BRANCH   7  11
ATOM     11  C   UNL     1       5.209   3.910  15.895  0.00  0.00    +0.000 A 
ATOM     12  C   UNL     1       6.348   4.682  16.180  0.00  0.00    +0.000 A 
ATOM     13  C   UNL     1       7.262   5.014  15.177  0.00  0.00    +0.000 A 
ATOM     14  C   UNL     1       7.046   4.581  13.871  0.00  0.00    +0.000 A 
ATOM     15  C   UNL     1       5.909   3.836  13.575  0.00  0.00    +0.000 A 
ATOM     16 CL   UNL     1       5.626   3.311  11.961  0.00  0.00    +0.000 Cl
ATOM     17  C   UNL     1       4.989   3.506  14.573  0.00  0.00    +0.000 A 
ENDBRANCH   7  11
BRANCH   8  18
ATOM     18  N   UNL     1       5.692   3.924  19.006  0.00  0.00    +0.000 N 
ATOM     19  C   UNL     1       6.069   5.272  19.324  0.00  0.00    +0.000 C 
ATOM     20  O   UNL     1       7.109   5.368  19.963  0.00  0.00    +0.000 OA
ATOM     21  H   UNL     1       6.275   3.194  19.399  0.00  0.00    +0.000 HD
BRANCH  19  22
ATOM     22  C   UNL     1       5.192   6.446  18.921  0.00  0.00    +0.000 C 
BRANCH  22  23
ATOM     23  O   UNL     1       3.863   6.239  19.390  0.00  0.00    +0.000 OA
BRANCH  23  24
ATOM     24  C   UNL     1       2.966   7.242  19.133  0.00  0.00    +0.000 A 
ATOM     25  C   UNL     1       2.851   7.937  17.925  0.00  0.00    +0.000 A 
ATOM     26  C   UNL     1       1.881   8.934  17.774  0.00  0.00    +0.000 A 
ATOM     27  C   UNL     1       1.030   9.242  18.831  0.00  0.00    +0.000 A 
ATOM     28 CL   UNL     1      -0.156  10.471  18.639  0.00  0.00    +0.000 Cl
ATOM     29  C   UNL     1       1.138   8.560  20.041  0.00  0.00    +0.000 A 
ATOM     30  C   UNL     1       2.108   7.562  20.188  0.00  0.00    +0.000 A 
ENDBRANCH  23  24
ENDBRANCH  22  23
ENDBRANCH  19  22
ENDBRANCH   8  18
TORSDOF 5
ENDMDL
MODEL 2
REMARK VINA RESULT:      -8.4      3.428      5.954
REMARK  Name = 
REMARK  6 active torsions:
REMARK  status: ('A' for Active; 'I' for Inactive)
REMARK    1  A    between atoms: C_1  and  C_2
REMARK    2  A    between atoms: C_7  and  C_8
REMARK    3  A    between atoms: C_15  and  N_16
REMARK    4  A    between atoms: C_17  and  C_19
REMARK    5  A    between atoms: C_19  and  O_20
REMARK    6  A    between atoms: O_20  and  C_21
REMARK                            x       y       z     vdW  Elec       q    Type
REMARK                         _______ _______ _______ _____ _____    ______ ____
ROOT
ATOM      1  C   UNL     1       8.269   8.964  17.351  0.00  0.00    +0.000 C 
ATOM      2  C   UNL     1       7.542   7.775  17.898  0.00  0.00    +0.000 A 
ATOM      3  C   UNL     1       8.291   6.786  18.672  0.00  0.00    +0.000 A 
ATOM      4  C   UNL     1       7.701   5.694  19.193  0.00  0.00    +0.000 A 
ATOM      5  C   UNL     1       6.311   5.479  18.989  0.00  0.00    +0.000 A 
ATOM      6  N   UNL     1       5.515   4.516  19.397  0.00  0.00    +0.000 NA
ATOM      7  C   UNL     1       4.271   4.808  18.884  0.00  0.00    +0.000 A 
ATOM      8  C   UNL     1       4.308   6.012  18.198  0.00  0.00    +0.000 A 
ATOM      9  N   UNL     1       5.625   6.427  18.241  0.00  0.00    +0.000 N 
ATOM     10  C   UNL     1       6.223   7.567  17.705  0.00  0.00    +0.000 A 
ENDROOT
BRANCH   7  11
ATOM     11  C   UNL     1       3.131   3.935  19.118  0.00  0.00    +0.000 A 
ATOM     12  C   UNL     1       2.437   3.411  18.014  0.00  0.00    +0.000 A 
ATOM     13  C   UNL     1       1.338   2.568  18.188  0.00  0.00    +0.000 A 
ATOM     14  C   UNL     1       0.912   2.240  19.473  0.00  0.00    +0.000 A 
ATOM     15  C   UNL     1       1.578   2.772  20.573  0.00  0.00    +0.000 A 
ATOM     16 CL   UNL     1       1.049   2.385  22.164  0.00  0.00    +0.000 Cl
ATOM     17  C   UNL     1       2.675   3.621  20.404  0.00  0.00    +0.000 A 
ENDBRANCH   7  11
BRANCH   8  18
ATOM     18  N   UNL     1       3.263   6.686  17.593  0.00  0.00    +0.000 N 
ATOM     19  C   UNL     1       2.366   7.558  18.297  0.00  0.00    +0.000 C 
ATOM     20  O   UNL     1       1.534   8.108  17.585  0.00  0.00    +0.000 OA
ATOM     21  H   UNL     1       3.167   6.668  16.584  0.00  0.00    +0.000 HD
BRANCH  19  22
ATOM     22  C   UNL     1       2.508   7.785  19.793  0.00  0.00    +0.000 C 
BRANCH  22  23
ATOM     23  O   UNL     1       1.261   7.545  20.438  0.00  0.00    +0.000 OA
BRANCH  23  24
ATOM     24  C   UNL     1       0.691   8.617  21.073  0.00  0.00    +0.000 A 
ATOM     25  C   UNL     1       0.069   8.582  22.324  0.00  0.00    +0.000 A 
ATOM     26  C   UNL     1      -0.465   9.750  22.881  0.00  0.00    +0.000 A 
ATOM     27  C   UNL     1      -0.383  10.951  22.185  0.00  0.00    +0.000 A 
ATOM     28 CL   UNL     1      -1.045  12.381  22.873  0.00  0.00    +0.000 Cl
ATOM     29  C   UNL     1       0.229  10.999  20.935  0.00  0.00    +0.000 A 
ATOM     30  C   UNL     1       0.764   9.829  20.382  0.00  0.00    +0.000 A 
ENDBRANCH  23  24
ENDBRANCH  22  23
ENDBRANCH  19  22
ENDBRANCH   8  18
TORSDOF 5
ENDMDL
MODEL 3
REMARK VINA RESULT:      -8.0      2.999      5.453
REMARK  Name = 
REMARK  6 active torsions:
REMARK  status: ('A' for Active; 'I' for Inactive)
REMARK    1  A    between atoms: C_1  and  C_2
REMARK    2  A    between atoms: C_7  and  C_8
REMARK    3  A    between atoms: C_15  and  N_16
REMARK    4  A    between atoms: C_17  and  C_19
REMARK    5  A    between atoms: C_19  and  O_20
REMARK    6  A    between atoms: O_20  and  C_21
REMARK                            x       y       z     vdW  Elec       q    Type
REMARK                         _______ _______ _______ _____ _____    ______ ____
ROOT
ATOM      1  C   UNL     1       4.591   2.413  11.097  0.00  0.00    +0.000 C 
ATOM      2  C   UNL     1       5.425   3.235  12.030  0.00  0.00    +0.000 A 
ATOM      3  C   UNL     1       6.559   3.982  11.488  0.00  0.00    +0.000 A 
ATOM      4  C   UNL     1       7.350   4.741  12.269  0.00  0.00    +0.000 A 
ATOM      5  C   UNL     1       7.092   4.825  13.664  0.00  0.00    +0.000 A 
ATOM      6  N   UNL     1       7.698   5.495  14.619  0.00  0.00    +0.000 NA
ATOM      7  C   UNL     1       7.033   5.183  15.784  0.00  0.00    +0.000 A 
ATOM      8  C   UNL     1       5.959   4.349  15.513  0.00  0.00    +0.000 A 
ATOM      9  N   UNL     1       6.016   4.096  14.156  0.00  0.00    +0.000 N 
ATOM     10  C   UNL     1       5.183   3.315  13.354  0.00  0.00    +0.000 A 
ENDROOT
BRANCH   7  11
ATOM     11  C   UNL     1       7.450   5.734  17.065  0.00  0.00    +0.000 A 
ATOM     12  C   UNL     1       7.506   4.886  18.184  0.00  0.00    +0.000 A 
ATOM     13  C   UNL     1       7.901   5.369  19.434  0.00  0.00    +0.000 A 
ATOM     14  C   UNL     1       8.241   6.711  19.583  0.00  0.00    +0.000 A 
ATOM     15  C   UNL     1       8.166   7.564  18.486  0.00  0.00    +0.000 A 
ATOM     16 CL   UNL     1       8.568   9.227  18.665  0.00  0.00    +0.000 Cl
ATOM     17  C   UNL     1       7.766   7.087  17.235  0.00  0.00    +0.000 A 
ENDBRANCH   7  11
BRANCH   8  18
ATOM     18  N   UNL     1       5.010   3.862  16.392  0.00  0.00    +0.000 N 
ATOM     19  C   UNL     1       4.015   4.682  17.022  0.00  0.00    +0.000 C 
ATOM     20  O   UNL     1       3.226   4.066  17.728  0.00  0.00    +0.000 OA
ATOM     21  H   UNL     1       4.918   2.862  16.533  0.00  0.00    +0.000 HD
BRANCH  19  22
ATOM     22  C   UNL     1       3.956   6.179  16.764  0.00  0.00    +0.000 C 
BRANCH  22  23
ATOM     23  O   UNL     1       4.119   6.887  17.989  0.00  0.00    +0.000 OA
BRANCH  23  24
ATOM     24  C   UNL     1       3.063   7.663  18.386  0.00  0.00    +0.000 A 
ATOM     25  C   UNL     1       2.508   8.715  17.652  0.00  0.00    +0.000 A 
ATOM     26  C   UNL     1       1.415   9.429  18.155  0.00  0.00    +0.000 A 
ATOM     27  C   UNL     1       0.880   9.095  19.395  0.00  0.00    +0.000 A 
ATOM     28 CL   UNL     1      -0.461   9.979  20.010  0.00  0.00    +0.000 Cl
ATOM     29  C   UNL     1       1.426   8.053  20.139  0.00  0.00    +0.000 A 
ATOM     30  C   UNL     1       2.518   7.339  19.631  0.00  0.00    +0.000 A 
ENDBRANCH  23  24
ENDBRANCH  22  23
ENDBRANCH  19  22
ENDBRANCH   8  18
TORSDOF 5
ENDMDL
MODEL 4
REMARK VINA RESULT:      -7.9      5.705     10.284
REMARK  Name = 
REMARK  6 active torsions:
REMARK  status: ('A' for Active; 'I' for Inactive)
REMARK    1  A    between atoms: C_1  and  C_2
REMARK    2  A    between atoms: C_7  and  C_8
REMARK    3  A    between atoms: C_15  and  N_16
REMARK    4  A    between atoms: C_17  and  C_19
REMARK    5  A    between atoms: C_19  and  O_20
REMARK    6  A    between atoms: O_20  and  C_21
REMARK                            x       y       z     vdW  Elec       q    Type
REMARK                         _______ _______ _______ _____ _____    ______ ____
ROOT
ATOM      1  C   UNL     1      -3.110  10.112  14.380  0.00  0.00    +0.000 C 
ATOM      2  C   UNL     1      -3.242  10.676  15.761  0.00  0.00    +0.000 A 
ATOM      3  C   UNL     1      -4.569  10.737  16.373  0.00  0.00    +0.000 A 
ATOM      4  C   UNL     1      -4.760  11.230  17.611  0.00  0.00    +0.000 A 
ATOM      5  C   UNL     1      -3.651  11.714  18.356  0.00  0.00    +0.000 A 
ATOM      6  N   UNL     1      -3.574  12.221  19.566  0.00  0.00    +0.000 NA
ATOM      7  C   UNL     1      -2.249  12.540  19.762  0.00  0.00    +0.000 A 
ATOM      8  C   UNL     1      -1.498  12.157  18.663  0.00  0.00    +0.000 A 
ATOM      9  N   UNL     1      -2.403  11.654  17.748  0.00  0.00    +0.000 N 
ATOM     10  C   UNL     1      -2.192  11.136  16.470  0.00  0.00    +0.000 A 
ENDROOT
BRANCH   7  11
ATOM     11  C   UNL     1      -1.793  13.151  21.002  0.00  0.00    +0.000 A 
ATOM     12  C   UNL     1      -2.270  12.647  22.224  0.00  0.00    +0.000 A 
ATOM     13  C   UNL     1      -1.861  13.201  23.439  0.00  0.00    +0.000 A 
ATOM     14  C   UNL     1      -0.971  14.272  23.449  0.00  0.00    +0.000 A 
ATOM     15  C   UNL     1      -0.512  14.793  22.243  0.00  0.00    +0.000 A 
ATOM     16 CL   UNL     1       0.575  16.127  22.246  0.00  0.00    +0.000 Cl
ATOM     17  C   UNL     1      -0.922  14.247  21.025  0.00  0.00    +0.000 A 
ENDBRANCH   7  11
BRANCH   8  18
ATOM     18  N   UNL     1      -0.128  12.241  18.489  0.00  0.00    +0.000 N 
ATOM     19  C   UNL     1       0.782  11.184  18.826  0.00  0.00    +0.000 C 
ATOM     20  O   UNL     1       1.952  11.419  18.553  0.00  0.00    +0.000 OA
ATOM     21  H   UNL     1       0.271  13.035  18.001  0.00  0.00    +0.000 HD
BRANCH  19  22
ATOM     22  C   UNL     1       0.280   9.880  19.424  0.00  0.00    +0.000 C 
BRANCH  22  23
ATOM     23  O   UNL     1       1.313   9.272  20.193  0.00  0.00    +0.000 OA
BRANCH  23  24
ATOM     24  C   UNL     1       1.768   8.060  19.746  0.00  0.00    +0.000 A 
ATOM     25  C   UNL     1       2.376   7.828  18.508  0.00  0.00    +0.000 A 
ATOM     26  C   UNL     1       2.818   6.544  18.167  0.00  0.00    +0.000 A 
ATOM     27  C   UNL     1       2.647   5.491  19.060  0.00  0.00    +0.000 A 
ATOM     28 CL   UNL     1       3.189   3.917  18.632  0.00  0.00    +0.000 Cl
ATOM     29  C   UNL     1       2.039   5.708  20.294  0.00  0.00    +0.000 A 
ATOM     30  C   UNL     1       1.600   6.993  20.633  0.00  0.00    +0.000 A 
ENDBRANCH  23  24
ENDBRANCH  22  23
ENDBRANCH  19  22
ENDBRANCH   8  18
TORSDOF 5
ENDMDL
MODEL 5
REMARK VINA RESULT:      -7.9      5.166      9.554
REMARK  Name = 
REMARK  6 active torsions:
REMARK  status: ('A' for Active; 'I' for Inactive)
REMARK    1  A    between atoms: C_1  and  C_2
REMARK    2  A    between atoms: C_7  and  C_8
REMARK    3  A    between atoms: C_15  and  N_16
REMARK    4  A    between atoms: C_17  and  C_19
REMARK    5  A    between atoms: C_19  and  O_20
REMARK    6  A    between atoms: O_20  and  C_21
REMARK                            x       y       z     vdW  Elec       q    Type
REMARK                         _______ _______ _______ _____ _____    ______ ____
ROOT
ATOM      1  C   UNL     1       4.072  14.139  21.596  0.00  0.00    +0.000 C 
ATOM      2  C   UNL     1       2.955  13.933  20.620  0.00  0.00    +0.000 A 
ATOM      3  C   UNL     1       2.978  14.669  19.357  0.00  0.00    +0.000 A 
ATOM      4  C   UNL     1       2.008  14.532  18.435  0.00  0.00    +0.000 A 
ATOM      5  C   UNL     1       0.919  13.653  18.683  0.00  0.00    +0.000 A 
ATOM      6  N   UNL     1      -0.126  13.339  17.950  0.00  0.00    +0.000 NA
ATOM      7  C   UNL     1      -0.866  12.454  18.701  0.00  0.00    +0.000 A 
ATOM      8  C   UNL     1      -0.217  12.180  19.895  0.00  0.00    +0.000 A 
ATOM      9  N   UNL     1       0.915  12.973  19.895  0.00  0.00    +0.000 N 
ATOM     10  C   UNL     1       1.920  13.100  20.853  0.00  0.00    +0.000 A 
ENDROOT
BRANCH   7  11
ATOM     11  C   UNL     1      -2.120  11.906  18.207  0.00  0.00    +0.000 A 
ATOM     12  C   UNL     1      -3.270  12.008  19.009  0.00  0.00    +0.000 A 
ATOM     13  C   UNL     1      -4.496  11.498  18.578  0.00  0.00    +0.000 A 
ATOM     14  C   UNL     1      -4.589  10.872  17.337  0.00  0.00    +0.000 A 
ATOM     15  C   UNL     1      -3.452  10.745  16.546  0.00  0.00    +0.000 A 
ATOM     16 CL   UNL     1      -3.554   9.958  15.019  0.00  0.00    +0.000 Cl
ATOM     17  C   UNL     1      -2.221  11.248  16.975  0.00  0.00    +0.000 A 
ENDBRANCH   7  11
BRANCH   8  18
ATOM     18  N   UNL     1      -0.592  11.300  20.892  0.00  0.00    +0.000 N 
ATOM     19  C   UNL     1      -0.069   9.969  21.016  0.00  0.00    +0.000 C 
ATOM     20  O   UNL     1      -0.479   9.354  21.993  0.00  0.00    +0.000 OA
ATOM     21  H   UNL     1      -1.183  11.619  21.652  0.00  0.00    +0.000 HD
BRANCH  19  22
ATOM     22  C   UNL     1       0.945   9.431  20.020  0.00  0.00    +0.000 C 
BRANCH  22  23
ATOM     23  O   UNL     1       1.489   8.205  20.499  0.00  0.00    +0.000 OA
BRANCH  23  24
ATOM     24  C   UNL     1       2.166   7.443  19.584  0.00  0.00    +0.000 A 
ATOM     25  C   UNL     1       2.655   7.896  18.355  0.00  0.00    +0.000 A 
ATOM     26  C   UNL     1       3.350   7.026  17.507  0.00  0.00    +0.000 A 
ATOM     27  C   UNL     1       3.550   5.702  17.884  0.00  0.00    +0.000 A 
ATOM     28 CL   UNL     1       4.401   4.638  16.835  0.00  0.00    +0.000 Cl
ATOM     29  C   UNL     1       3.064   5.237  19.103  0.00  0.00    +0.000 A 
ATOM     30  C   UNL     1       2.372   6.111  19.950  0.00  0.00    +0.000 A 
ENDBRANCH  23  24
ENDBRANCH  22  23
ENDBRANCH  19  22
ENDBRANCH   8  18
TORSDOF 5
ENDMDL
MODEL 6
REMARK VINA RESULT:      -7.8      3.132      3.926
REMARK  Name = 
REMARK  6 active torsions:
REMARK  status: ('A' for Active; 'I' for Inactive)
REMARK    1  A    between atoms: C_1  and  C_2
REMARK    2  A    between atoms: C_7  and  C_8
REMARK    3  A    between atoms: C_15  and  N_16
REMARK    4  A    between atoms: C_17  and  C_19
REMARK    5  A    between atoms: C_19  and  O_20
REMARK    6  A    between atoms: O_20  and  C_21
REMARK                            x       y       z     vdW  Elec       q    Type
REMARK                         _______ _______ _______ _____ _____    ______ ____
ROOT
ATOM      1  C   UNL     1       2.249   3.680  21.720  0.00  0.00    +0.000 C 
ATOM      2  C   UNL     1       2.550   3.808  20.259  0.00  0.00    +0.000 A 
ATOM      3  C   UNL     1       1.437   3.873  19.313  0.00  0.00    +0.000 A 
ATOM      4  C   UNL     1       1.635   3.989  17.987  0.00  0.00    +0.000 A 
ATOM      5  C   UNL     1       2.959   4.047  17.474  0.00  0.00    +0.000 A 
ATOM      6  N   UNL     1       3.409   4.170  16.246  0.00  0.00    +0.000 NA
ATOM      7  C   UNL     1       4.782   4.145  16.338  0.00  0.00    +0.000 A 
ATOM      8  C   UNL     1       5.171   4.065  17.666  0.00  0.00    +0.000 A 
ATOM      9  N   UNL     1       3.999   3.972  18.393  0.00  0.00    +0.000 N 
ATOM     10  C   UNL     1       3.806   3.862  19.770  0.00  0.00    +0.000 A 
ENDROOT
BRANCH   7  11
ATOM     11  C   UNL     1       5.623   4.238  15.153  0.00  0.00    +0.000 A 
ATOM     12  C   UNL     1       6.645   5.201  15.119  0.00  0.00    +0.000 A 
ATOM     13  C   UNL     1       7.477   5.328  14.004  0.00  0.00    +0.000 A 
ATOM     14  C   UNL     1       7.296   4.494  12.904  0.00  0.00    +0.000 A 
ATOM     15  C   UNL     1       6.271   3.552  12.920  0.00  0.00    +0.000 A 
ATOM     16 CL   UNL     1       6.029   2.528  11.558  0.00  0.00    +0.000 Cl
ATOM     17  C   UNL     1       5.432   3.425  14.029  0.00  0.00    +0.000 A 
ENDBRANCH   7  11
BRANCH   8  18
ATOM     18  N   UNL     1       6.452   4.080  18.187  0.00  0.00    +0.000 N 
ATOM     19  C   UNL     1       7.182   5.283  18.466  0.00  0.00    +0.000 C 
ATOM     20  O   UNL     1       8.281   5.100  18.974  0.00  0.00    +0.000 OA
ATOM     21  H   UNL     1       6.880   3.215  18.498  0.00  0.00    +0.000 HD
BRANCH  19  22
ATOM     22  C   UNL     1       6.578   6.649  18.184  0.00  0.00    +0.000 C 
BRANCH  22  23
ATOM     23  O   UNL     1       7.447   7.396  17.339  0.00  0.00    +0.000 OA
BRANCH  23  24
ATOM     24  C   UNL     1       7.992   8.530  17.880  0.00  0.00    +0.000 A 
ATOM     25  C   UNL     1       8.860   8.570  18.976  0.00  0.00    +0.000 A 
ATOM     26  C   UNL     1       9.368   9.791  19.431  0.00  0.00    +0.000 A 
ATOM     27  C   UNL     1       9.005  10.974  18.796  0.00  0.00    +0.000 A 
ATOM     28 CL   UNL     1       9.630  12.472  19.364  0.00  0.00    +0.000 Cl
ATOM     29  C   UNL     1       8.138  10.950  17.707  0.00  0.00    +0.000 A 
ATOM     30  C   UNL     1       7.633   9.725  17.252  0.00  0.00    +0.000 A 
ENDBRANCH  23  24
ENDBRANCH  22  23
ENDBRANCH  19  22
ENDBRANCH   8  18
TORSDOF 5
ENDMDL
MODEL 7
REMARK VINA RESULT:      -7.8      5.205      9.707
REMARK  Name = 
REMARK  6 active torsions:
REMARK  status: ('A' for Active; 'I' for Inactive)
REMARK    1  A    between atoms: C_1  and  C_2
REMARK    2  A    between atoms: C_7  and  C_8
REMARK    3  A    between atoms: C_15  and  N_16
REMARK    4  A    between atoms: C_17  and  C_19
REMARK    5  A    between atoms: C_19  and  O_20
REMARK    6  A    between atoms: O_20  and  C_21
REMARK                            x       y       z     vdW  Elec       q    Type
REMARK                         _______ _______ _______ _____ _____    ______ ____
ROOT
ATOM      1  C   UNL     1       3.983  14.678  21.988  0.00  0.00    +0.000 C 
ATOM      2  C   UNL     1       2.965  14.242  20.980  0.00  0.00    +0.000 A 
ATOM      3  C   UNL     1       3.082  14.727  19.606  0.00  0.00    +0.000 A 
ATOM      4  C   UNL     1       2.203  14.374  18.649  0.00  0.00    +0.000 A 
ATOM      5  C   UNL     1       1.122  13.510  18.969  0.00  0.00    +0.000 A 
ATOM      6  N   UNL     1       0.156  13.018  18.226  0.00  0.00    +0.000 NA
ATOM      7  C   UNL     1      -0.624  12.258  19.069  0.00  0.00    +0.000 A 
ATOM      8  C   UNL     1      -0.078  12.244  20.342  0.00  0.00    +0.000 A 
ATOM      9  N   UNL     1       1.027  13.073  20.285  0.00  0.00    +0.000 N 
ATOM     10  C   UNL     1       1.937  13.423  21.282  0.00  0.00    +0.000 A 
ENDROOT
BRANCH   7  11
ATOM     11  C   UNL     1      -1.813  11.571  18.586  0.00  0.00    +0.000 A 
ATOM     12  C   UNL     1      -1.662  10.359  17.891  0.00  0.00    +0.000 A 
ATOM     13  C   UNL     1      -2.772   9.662  17.409  0.00  0.00    +0.000 A 
ATOM     14  C   UNL     1      -4.052  10.172  17.612  0.00  0.00    +0.000 A 
ATOM     15  C   UNL     1      -4.210  11.383  18.278  0.00  0.00    +0.000 A 
ATOM     16 CL   UNL     1      -5.787  12.029  18.519  0.00  0.00    +0.000 Cl
ATOM     17  C   UNL     1      -3.103  12.087  18.757  0.00  0.00    +0.000 A 
ENDBRANCH   7  11
BRANCH   8  18
ATOM     18  N   UNL     1      -0.518  11.552  21.456  0.00  0.00    +0.000 N 
ATOM     19  C   UNL     1      -0.031  10.254  21.828  0.00  0.00    +0.000 C 
ATOM     20  O   UNL     1      -0.498   9.821  22.874  0.00  0.00    +0.000 OA
ATOM     21  H   UNL     1      -1.134  12.005  22.121  0.00  0.00    +0.000 HD
BRANCH  19  22
ATOM     22  C   UNL     1       1.014   9.539  20.988  0.00  0.00    +0.000 C 
BRANCH  22  23
ATOM     23  O   UNL     1       1.007   8.148  21.289  0.00  0.00    +0.000 OA
BRANCH  23  24
ATOM     24  C   UNL     1       1.645   7.330  20.394  0.00  0.00    +0.000 A 
ATOM     25  C   UNL     1       1.845   5.955  20.552  0.00  0.00    +0.000 A 
ATOM     26  C   UNL     1       2.498   5.218  19.557  0.00  0.00    +0.000 A 
ATOM     27  C   UNL     1       2.956   5.855  18.409  0.00  0.00    +0.000 A 
ATOM     28 CL   UNL     1       3.761   4.943  17.194  0.00  0.00    +0.000 Cl
ATOM     29  C   UNL     1       2.768   7.224  18.242  0.00  0.00    +0.000 A 
ATOM     30  C   UNL     1       2.112   7.958  19.237  0.00  0.00    +0.000 A 
ENDBRANCH  23  24
ENDBRANCH  22  23
ENDBRANCH  19  22
ENDBRANCH   8  18
TORSDOF 5
ENDMDL
MODEL 8
REMARK VINA RESULT:      -7.8      5.210      8.289
REMARK  Name = 
REMARK  6 active torsions:
REMARK  status: ('A' for Active; 'I' for Inactive)
REMARK    1  A    between atoms: C_1  and  C_2
REMARK    2  A    between atoms: C_7  and  C_8
REMARK    3  A    between atoms: C_15  and  N_16
REMARK    4  A    between atoms: C_17  and  C_19
REMARK    5  A    between atoms: C_19  and  O_20
REMARK    6  A    between atoms: O_20  and  C_21
REMARK                            x       y       z     vdW  Elec       q    Type
REMARK                         _______ _______ _______ _____ _____    ______ ____
ROOT
ATOM      1  C   UNL     1       1.922   5.498  20.466  0.00  0.00    +0.000 C 
ATOM      2  C   UNL     1       1.977   6.808  19.742  0.00  0.00    +0.000 A 
ATOM      3  C   UNL     1       2.348   6.815  18.327  0.00  0.00    +0.000 A 
ATOM      4  C   UNL     1       2.416   7.956  17.615  0.00  0.00    +0.000 A 
ATOM      5  C   UNL     1       2.128   9.197  18.243  0.00  0.00    +0.000 A 
ATOM      6  N   UNL     1       2.112  10.424  17.772  0.00  0.00    +0.000 NA
ATOM      7  C   UNL     1       1.787  11.236  18.835  0.00  0.00    +0.000 A 
ATOM      8  C   UNL     1       1.541  10.471  19.964  0.00  0.00    +0.000 A 
ATOM      9  N   UNL     1       1.789   9.164  19.590  0.00  0.00    +0.000 N 
ATOM     10  C   UNL     1       1.705   7.988  20.335  0.00  0.00    +0.000 A 
ENDROOT
BRANCH   7  11
ATOM     11  C   UNL     1       1.698  12.681  18.684  0.00  0.00    +0.000 A 
ATOM     12  C   UNL     1       0.458  13.311  18.887  0.00  0.00    +0.000 A 
ATOM     13  C   UNL     1       0.323  14.694  18.754  0.00  0.00    +0.000 A 
ATOM     14  C   UNL     1       1.428  15.469  18.412  0.00  0.00    +0.000 A 
ATOM     15  C   UNL     1       2.655  14.853  18.187  0.00  0.00    +0.000 A 
ATOM     16 CL   UNL     1       4.022  15.801  17.748  0.00  0.00    +0.000 Cl
ATOM     17  C   UNL     1       2.794  13.468  18.312  0.00  0.00    +0.000 A 
ENDBRANCH   7  11
BRANCH   8  18
ATOM     18  N   UNL     1       1.126  10.895  21.213  0.00  0.00    +0.000 N 
ATOM     19  C   UNL     1      -0.242  10.877  21.644  0.00  0.00    +0.000 C 
ATOM     20  O   UNL     1      -0.411  11.240  22.802  0.00  0.00    +0.000 OA
ATOM     21  H   UNL     1       1.814  11.132  21.920  0.00  0.00    +0.000 HD
BRANCH  19  22
ATOM     22  C   UNL     1      -1.348  10.392  20.721  0.00  0.00    +0.000 C 
BRANCH  22  23
ATOM     23  O   UNL     1      -1.887  11.492  19.995  0.00  0.00    +0.000 OA
BRANCH  23  24
ATOM     24  C   UNL     1      -2.415  11.205  18.763  0.00  0.00    +0.000 A 
ATOM     25  C   UNL     1      -3.635  11.680  18.273  0.00  0.00    +0.000 A 
ATOM     26  C   UNL     1      -4.064  11.331  16.988  0.00  0.00    +0.000 A 
ATOM     27  C   UNL     1      -3.278  10.503  16.194  0.00  0.00    +0.000 A 
ATOM     28 CL   UNL     1      -3.813  10.075  14.618  0.00  0.00    +0.000 Cl
ATOM     29  C   UNL     1      -2.063  10.018  16.672  0.00  0.00    +0.000 A 
ATOM     30  C   UNL     1      -1.635  10.371  17.958  0.00  0.00    +0.000 A 
ENDBRANCH  23  24
ENDBRANCH  22  23
ENDBRANCH  19  22
ENDBRANCH   8  18
TORSDOF 5
ENDMDL
MODEL 9
REMARK VINA RESULT:      -7.7      1.773      6.490
REMARK  Name = 
REMARK  6 active torsions:
REMARK  status: ('A' for Active; 'I' for Inactive)
REMARK    1  A    between atoms: C_1  and  C_2
REMARK    2  A    between atoms: C_7  and  C_8
REMARK    3  A    between atoms: C_15  and  N_16
REMARK    4  A    between atoms: C_17  and  C_19
REMARK    5  A    between atoms: C_19  and  O_20
REMARK    6  A    between atoms: O_20  and  C_21
REMARK                            x       y       z     vdW  Elec       q    Type
REMARK                         _______ _______ _______ _____ _____    ______ ____
ROOT
ATOM      1  C   UNL     1       4.515   0.636  18.656  0.00  0.00    +0.000 C 
ATOM      2  C   UNL     1       3.663   1.867  18.689  0.00  0.00    +0.000 A 
ATOM      3  C   UNL     1       2.209   1.718  18.652  0.00  0.00    +0.000 A 
ATOM      4  C   UNL     1       1.384   2.781  18.680  0.00  0.00    +0.000 A 
ATOM      5  C   UNL     1       1.926   4.093  18.742  0.00  0.00    +0.000 A 
ATOM      6  N   UNL     1       1.344   5.270  18.791  0.00  0.00    +0.000 NA
ATOM      7  C   UNL     1       2.361   6.198  18.816  0.00  0.00    +0.000 A 
ATOM      8  C   UNL     1       3.590   5.559  18.842  0.00  0.00    +0.000 A 
ATOM      9  N   UNL     1       3.311   4.207  18.765  0.00  0.00    +0.000 N 
ATOM     10  C   UNL     1       4.175   3.113  18.747  0.00  0.00    +0.000 A 
ENDROOT
BRANCH   7  11
ATOM     11  C   UNL     1       2.083   7.626  18.849  0.00  0.00    +0.000 A 
ATOM     12  C   UNL     1       2.411   8.409  17.730  0.00  0.00    +0.000 A 
ATOM     13  C   UNL     1       2.163   9.784  17.715  0.00  0.00    +0.000 A 
ATOM     14  C   UNL     1       1.586  10.396  18.824  0.00  0.00    +0.000 A 
ATOM     15  C   UNL     1       1.279   9.633  19.947  0.00  0.00    +0.000 A 
ATOM     16 CL   UNL     1       0.581  10.385  21.328  0.00  0.00    +0.000 Cl
ATOM     17  C   UNL     1       1.531   8.259  19.969  0.00  0.00    +0.000 A 
ENDBRANCH   7  11
BRANCH   8  18
ATOM     18  N   UNL     1       4.849   6.124  18.934  0.00  0.00    +0.000 N 
ATOM     19  C   UNL     1       5.699   6.358  17.802  0.00  0.00    +0.000 C 
ATOM     20  O   UNL     1       6.756   6.916  18.071  0.00  0.00    +0.000 OA
ATOM     21  H   UNL     1       5.169   6.502  19.818  0.00  0.00    +0.000 HD
BRANCH  19  22
ATOM     22  C   UNL     1       5.259   5.973  16.399  0.00  0.00    +0.000 C 
BRANCH  22  23
ATOM     23  O   UNL     1       6.368   6.042  15.509  0.00  0.00    +0.000 OA
BRANCH  23  24
ATOM     24  C   UNL     1       6.364   5.156  14.464  0.00  0.00    +0.000 A 
ATOM     25  C   UNL     1       7.364   5.040  13.494  0.00  0.00    +0.000 A 
ATOM     26  C   UNL     1       7.257   4.082  12.479  0.00  0.00    +0.000 A 
ATOM     27  C   UNL     1       6.148   3.244  12.430  0.00  0.00    +0.000 A 
ATOM     28 CL   UNL     1       6.021   2.072  11.178  0.00  0.00    +0.000 Cl
ATOM     29  C   UNL     1       5.142   3.352  13.387  0.00  0.00    +0.000 A 
ATOM     30  C   UNL     1       5.253   4.310  14.402  0.00  0.00    +0.000 A 
ENDBRANCH  23  24
ENDBRANCH  22  23
ENDBRANCH  19  22
ENDBRANCH   8  18
TORSDOF 5
ENDMDL
