MODEL 1
REMARK VINA RESULT:      -7.5      0.000      0.000
REMARK  Name = 
REMARK  10 active torsions:
REMARK  status: ('A' for Active; 'I' for Inactive)
REMARK    1  A    between atoms: C_1  and  C_2
REMARK    2  A    between atoms: C_2  and  O_3
REMARK    3  A    between atoms: O_3  and  C_4
REMARK    4  A    between atoms: N_6  and  N_7
REMARK    5  A    between atoms: C_8  and  C_9
REMARK    6  A    between atoms: N_11  and  C_12
REMARK    7  A    between atoms: C_12  and  C_13
REMARK    8  A    between atoms: C_13  and  C_14
REMARK    9  A    between atoms: C_14  and  O_15
REMARK   10  A    between atoms: O_15  and  C_16
REMARK                            x       y       z     vdW  Elec       q    Type
REMARK                         _______ _______ _______ _____ _____    ______ ____
ROOT
ATOM      1  C   UNL     1       2.120   6.451  19.832  0.00  0.00    +0.000 A 
ATOM      2  C   UNL     1       2.978   7.016  18.906  0.00  0.00    +0.000 A 
ATOM      3  N   UNL     1       3.284   6.077  17.957  0.00  0.00    +0.000 N 
ATOM      4  C   UNL     1       2.633   4.896  18.240  0.00  0.00    +0.000 A 
ATOM      5  C   UNL     1       2.630   3.666  17.564  0.00  0.00    +0.000 A 
ATOM      6  C   UNL     1       1.862   2.624  18.090  0.00  0.00    +0.000 A 
ATOM      7  C   UNL     1       1.120   2.804  19.253  0.00  0.00    +0.000 A 
ATOM      8  C   UNL     1       1.126   4.034  19.919  0.00  0.00    +0.000 A 
ATOM      9  C   UNL     1       1.895   5.103  19.411  0.00  0.00    +0.000 A 
ENDROOT
BRANCH   1  11
ATOM     10  N   UNL     1       1.676   8.423  21.031  0.00  0.00    +0.000 NA
ATOM     11  C   UNL     1       1.571   7.137  20.984  0.00  0.00    +0.000 C 
BRANCH  10  14
ATOM     12  C   UNL     1       0.084   9.924  21.925  0.00  0.00    +0.000 C 
ATOM     13  O   UNL     1      -0.478  10.156  20.859  0.00  0.00    +0.000 OA
ATOM     14  N   UNL     1       1.139   9.060  22.108  0.00  0.00    +0.000 N 
ATOM     15  H   UNL     1       1.576   9.025  23.018  0.00  0.00    +0.000 HD
BRANCH  12  16
ATOM     16  O   UNL     1      -0.195  10.551  23.096  0.00  0.00    +0.000 OA
BRANCH  16  18
ATOM     17  C   UNL     1      -1.228  12.696  23.075  0.00  0.00    +0.000 C 
ATOM     18  C   UNL     1      -1.475  11.198  23.122  0.00  0.00    +0.000 C 
ENDBRANCH  16  18
ENDBRANCH  12  16
ENDBRANCH  10  14
ENDBRANCH   1  11
BRANCH   3  19
ATOM     19  C   UNL     1       4.202   6.304  16.851  0.00  0.00    +0.000 C 
BRANCH  19  20
ATOM     20  C   UNL     1       5.676   6.330  17.250  0.00  0.00    +0.000 C 
BRANCH  20  21
ATOM     21  C   UNL     1       6.374   4.998  17.004  0.00  0.00    +0.000 C 
BRANCH  21  22
ATOM     22  O   UNL     1       7.416   5.195  16.045  0.00  0.00    +0.000 OA
BRANCH  22  23
ATOM     23  C   UNL     1       7.128   4.787  14.769  0.00  0.00    +0.000 A 
ATOM     24  C   UNL     1       6.154   3.846  14.420  0.00  0.00    +0.000 A 
ATOM     25  C   UNL     1       5.953   3.505  13.082  0.00  0.00    +0.000 A 
ATOM     26  C   UNL     1       6.717   4.103  12.086  0.00  0.00    +0.000 A 
ATOM     27  C   UNL     1       7.684   5.048  12.424  0.00  0.00    +0.000 A 
ATOM     28  C   UNL     1       7.888   5.387  13.763  0.00  0.00    +0.000 A 
ENDBRANCH  22  23
ENDBRANCH  21  22
ENDBRANCH  20  21
ENDBRANCH  19  20
ENDBRANCH   3  19
TORSDOF 9
ENDMDL
MODEL 2
REMARK VINA RESULT:      -7.4      4.773      9.506
REMARK  Name = 
REMARK  10 active torsions:
REMARK  status: ('A' for Active; 'I' for Inactive)
REMARK    1  A    between atoms: C_1  and  C_2
REMARK    2  A    between atoms: C_2  and  O_3
REMARK    3  A    between atoms: O_3  and  C_4
REMARK    4  A    between atoms: N_6  and  N_7
REMARK    5  A    between atoms: C_8  and  C_9
REMARK    6  A    between atoms: N_11  and  C_12
REMARK    7  A    between atoms: C_12  and  C_13
REMARK    8  A    between atoms: C_13  and  C_14
REMARK    9  A    between atoms: C_14  and  O_15
REMARK   10  A    between atoms: O_15  and  C_16
REMARK                            x       y       z     vdW  Elec       q    Type
REMARK                         _______ _______ _______ _____ _____    ______ ____
ROOT
ATOM      1  C   UNL     1       6.086   4.237  15.892  0.00  0.00    +0.000 A 
ATOM      2  C   UNL     1       7.109   5.077  16.294  0.00  0.00    +0.000 A 
ATOM      3  N   UNL     1       6.703   5.767  17.406  0.00  0.00    +0.000 N 
ATOM      4  C   UNL     1       5.423   5.389  17.751  0.00  0.00    +0.000 A 
ATOM      5  C   UNL     1       4.595   5.807  18.804  0.00  0.00    +0.000 A 
ATOM      6  C   UNL     1       3.323   5.241  18.910  0.00  0.00    +0.000 A 
ATOM      7  C   UNL     1       2.890   4.286  17.995  0.00  0.00    +0.000 A 
ATOM      8  C   UNL     1       3.722   3.872  16.951  0.00  0.00    +0.000 A 
ATOM      9  C   UNL     1       5.012   4.429  16.818  0.00  0.00    +0.000 A 
ENDROOT
BRANCH   1  11
ATOM     10  N   UNL     1       6.308   3.863  13.583  0.00  0.00    +0.000 NA
ATOM     11  C   UNL     1       6.143   3.343  14.754  0.00  0.00    +0.000 C 
BRANCH  10  14
ATOM     12  C   UNL     1       5.268   2.814  11.738  0.00  0.00    +0.000 C 
ATOM     13  O   UNL     1       4.188   3.380  11.867  0.00  0.00    +0.000 OA
ATOM     14  N   UNL     1       6.380   3.013  12.522  0.00  0.00    +0.000 N 
ATOM     15  H   UNL     1       7.184   2.417  12.373  0.00  0.00    +0.000 HD
BRANCH  12  16
ATOM     16  O   UNL     1       5.519   1.830  10.837  0.00  0.00    +0.000 OA
BRANCH  16  18
ATOM     17  C   UNL     1       6.062  -0.442  11.296  0.00  0.00    +0.000 C 
ATOM     18  C   UNL     1       6.609   0.971  11.198  0.00  0.00    +0.000 C 
ENDBRANCH  16  18
ENDBRANCH  12  16
ENDBRANCH  10  14
ENDBRANCH   1  11
BRANCH   3  19
ATOM     19  C   UNL     1       7.505   6.778  18.077  0.00  0.00    +0.000 C 
BRANCH  19  20
ATOM     20  C   UNL     1       7.253   8.205  17.594  0.00  0.00    +0.000 C 
BRANCH  20  21
ATOM     21  C   UNL     1       8.501   9.077  17.662  0.00  0.00    +0.000 C 
BRANCH  21  22
ATOM     22  O   UNL     1       8.577   9.670  18.960  0.00  0.00    +0.000 OA
BRANCH  22  23
ATOM     23  C   UNL     1       9.527  10.647  19.107  0.00  0.00    +0.000 A 
ATOM     24  C   UNL     1      10.232  11.256  18.063  0.00  0.00    +0.000 A 
ATOM     25  C   UNL     1      11.183  12.239  18.335  0.00  0.00    +0.000 A 
ATOM     26  C   UNL     1      11.434  12.624  19.648  0.00  0.00    +0.000 A 
ATOM     27  C   UNL     1      10.731  12.028  20.694  0.00  0.00    +0.000 A 
ATOM     28  C   UNL     1       9.782  11.041  20.422  0.00  0.00    +0.000 A 
ENDBRANCH  22  23
ENDBRANCH  21  22
ENDBRANCH  20  21
ENDBRANCH  19  20
ENDBRANCH   3  19
TORSDOF 9
ENDMDL
MODEL 3
REMARK VINA RESULT:      -7.2      3.707      7.688
REMARK  Name = 
REMARK  10 active torsions:
REMARK  status: ('A' for Active; 'I' for Inactive)
REMARK    1  A    between atoms: C_1  and  C_2
REMARK    2  A    between atoms: C_2  and  O_3
REMARK    3  A    between atoms: O_3  and  C_4
REMARK    4  A    between atoms: N_6  and  N_7
REMARK    5  A    between atoms: C_8  and  C_9
REMARK    6  A    between atoms: N_11  and  C_12
REMARK    7  A    between atoms: C_12  and  C_13
REMARK    8  A    between atoms: C_13  and  C_14
REMARK    9  A    between atoms: C_14  and  O_15
REMARK   10  A    between atoms: O_15  and  C_16
REMARK                            x       y       z     vdW  Elec       q    Type
REMARK                         _______ _______ _______ _____ _____    ______ ____
ROOT
ATOM      1  C   UNL     1       6.985   5.633  18.383  0.00  0.00    +0.000 A 
ATOM      2  C   UNL     1       6.060   5.002  19.194  0.00  0.00    +0.000 A 
ATOM      3  N   UNL     1       5.269   4.195  18.419  0.00  0.00    +0.000 N 
ATOM      4  C   UNL     1       5.664   4.279  17.101  0.00  0.00    +0.000 A 
ATOM      5  C   UNL     1       5.168   3.643  15.953  0.00  0.00    +0.000 A 
ATOM      6  C   UNL     1       5.776   3.924  14.727  0.00  0.00    +0.000 A 
ATOM      7  C   UNL     1       6.846   4.810  14.649  0.00  0.00    +0.000 A 
ATOM      8  C   UNL     1       7.336   5.437  15.798  0.00  0.00    +0.000 A 
ATOM      9  C   UNL     1       6.739   5.175  17.050  0.00  0.00    +0.000 A 
ENDROOT
BRANCH   1  11
ATOM     10  N   UNL     1       7.978   7.762  18.364  0.00  0.00    +0.000 NA
ATOM     11  C   UNL     1       7.997   6.563  18.842  0.00  0.00    +0.000 C 
BRANCH  10  14
ATOM     12  C   UNL     1       8.858   9.955  18.439  0.00  0.00    +0.000 C 
ATOM     13  O   UNL     1       7.981  10.463  17.748  0.00  0.00    +0.000 OA
ATOM     14  N   UNL     1       8.921   8.634  18.818  0.00  0.00    +0.000 N 
ATOM     15  H   UNL     1       9.744   8.317  19.311  0.00  0.00    +0.000 HD
BRANCH  12  16
ATOM     16  O   UNL     1       9.964  10.606  18.881  0.00  0.00    +0.000 OA
BRANCH  16  18
ATOM     17  C   UNL     1      11.098  12.277  17.620  0.00  0.00    +0.000 C 
ATOM     18  C   UNL     1       9.967  12.012  18.598  0.00  0.00    +0.000 C 
ENDBRANCH  16  18
ENDBRANCH  12  16
ENDBRANCH  10  14
ENDBRANCH   1  11
BRANCH   3  19
ATOM     19  C   UNL     1       4.154   3.413  18.929  0.00  0.00    +0.000 C 
BRANCH  19  20
ATOM     20  C   UNL     1       3.086   4.232  19.650  0.00  0.00    +0.000 C 
BRANCH  20  21
ATOM     21  C   UNL     1       2.267   5.096  18.698  0.00  0.00    +0.000 C 
BRANCH  21  22
ATOM     22  O   UNL     1       2.969   6.321  18.472  0.00  0.00    +0.000 OA
BRANCH  22  23
ATOM     23  C   UNL     1       2.299   7.460  18.836  0.00  0.00    +0.000 A 
ATOM     24  C   UNL     1       1.798   7.733  20.114  0.00  0.00    +0.000 A 
ATOM     25  C   UNL     1       1.126   8.929  20.366  0.00  0.00    +0.000 A 
ATOM     26  C   UNL     1       0.954   9.861  19.349  0.00  0.00    +0.000 A 
ATOM     27  C   UNL     1       1.457   9.601  18.075  0.00  0.00    +0.000 A 
ATOM     28  C   UNL     1       2.125   8.402  17.821  0.00  0.00    +0.000 A 
ENDBRANCH  22  23
ENDBRANCH  21  22
ENDBRANCH  20  21
ENDBRANCH  19  20
ENDBRANCH   3  19
TORSDOF 9
ENDMDL
MODEL 4
REMARK VINA RESULT:      -7.2      1.933      9.542
REMARK  Name = 
REMARK  10 active torsions:
REMARK  status: ('A' for Active; 'I' for Inactive)
REMARK    1  A    between atoms: C_1  and  C_2
REMARK    2  A    between atoms: C_2  and  O_3
REMARK    3  A    between atoms: O_3  and  C_4
REMARK    4  A    between atoms: N_6  and  N_7
REMARK    5  A    between atoms: C_8  and  C_9
REMARK    6  A    between atoms: N_11  and  C_12
REMARK    7  A    between atoms: C_12  and  C_13
REMARK    8  A    between atoms: C_13  and  C_14
REMARK    9  A    between atoms: C_14  and  O_15
REMARK   10  A    between atoms: O_15  and  C_16
REMARK                            x       y       z     vdW  Elec       q    Type
REMARK                         _______ _______ _______ _____ _____    ______ ____
ROOT
ATOM      1  C   UNL     1       3.510   4.731  17.896  0.00  0.00    +0.000 A 
ATOM      2  C   UNL     1       3.219   6.076  18.044  0.00  0.00    +0.000 A 
ATOM      3  N   UNL     1       2.634   6.270  19.267  0.00  0.00    +0.000 N 
ATOM      4  C   UNL     1       2.539   5.069  19.937  0.00  0.00    +0.000 A 
ATOM      5  C   UNL     1       2.025   4.765  21.207  0.00  0.00    +0.000 A 
ATOM      6  C   UNL     1       2.061   3.435  21.634  0.00  0.00    +0.000 A 
ATOM      7  C   UNL     1       2.594   2.440  20.821  0.00  0.00    +0.000 A 
ATOM      8  C   UNL     1       3.108   2.752  19.558  0.00  0.00    +0.000 A 
ATOM      9  C   UNL     1       3.082   4.086  19.100  0.00  0.00    +0.000 A 
ENDROOT
BRANCH   1  11
ATOM     10  N   UNL     1       5.429   4.086  16.703  0.00  0.00    +0.000 NA
ATOM     11  C   UNL     1       4.139   4.139  16.734  0.00  0.00    +0.000 C 
BRANCH  10  14
ATOM     12  C   UNL     1       6.477   4.305  14.596  0.00  0.00    +0.000 C 
ATOM     13  O   UNL     1       6.471   5.532  14.583  0.00  0.00    +0.000 OA
ATOM     14  N   UNL     1       6.009   3.509  15.615  0.00  0.00    +0.000 N 
ATOM     15  H   UNL     1       5.984   2.509  15.468  0.00  0.00    +0.000 HD
BRANCH  12  16
ATOM     16  O   UNL     1       6.879   3.526  13.561  0.00  0.00    +0.000 OA
BRANCH  16  18
ATOM     17  C   UNL     1       5.571   2.612  11.794  0.00  0.00    +0.000 C 
ATOM     18  C   UNL     1       6.270   3.860  12.306  0.00  0.00    +0.000 C 
ENDBRANCH  16  18
ENDBRANCH  12  16
ENDBRANCH  10  14
ENDBRANCH   1  11
BRANCH   3  19
ATOM     19  C   UNL     1       2.150   7.555  19.745  0.00  0.00    +0.000 C 
BRANCH  19  20
ATOM     20  C   UNL     1       1.792   8.546  18.640  0.00  0.00    +0.000 C 
BRANCH  20  21
ATOM     21  C   UNL     1       1.074   9.782  19.169  0.00  0.00    +0.000 C 
BRANCH  21  22
ATOM     22  O   UNL     1       0.662   9.532  20.515  0.00  0.00    +0.000 OA
BRANCH  22  23
ATOM     23  C   UNL     1      -0.232  10.433  21.034  0.00  0.00    +0.000 A 
ATOM     24  C   UNL     1      -0.943  11.386  20.297  0.00  0.00    +0.000 A 
ATOM     25  C   UNL     1      -1.825  12.256  20.938  0.00  0.00    +0.000 A 
ATOM     26  C   UNL     1      -2.007  12.178  22.315  0.00  0.00    +0.000 A 
ATOM     27  C   UNL     1      -1.309  11.225  23.055  0.00  0.00    +0.000 A 
ATOM     28  C   UNL     1      -0.422  10.357  22.415  0.00  0.00    +0.000 A 
ENDBRANCH  22  23
ENDBRANCH  21  22
ENDBRANCH  20  21
ENDBRANCH  19  20
ENDBRANCH   3  19
TORSDOF 9
ENDMDL
MODEL 5
REMARK VINA RESULT:      -7.2      2.114      2.546
REMARK  Name = 
REMARK  10 active torsions:
REMARK  status: ('A' for Active; 'I' for Inactive)
REMARK    1  A    between atoms: C_1  and  C_2
REMARK    2  A    between atoms: C_2  and  O_3
REMARK    3  A    between atoms: O_3  and  C_4
REMARK    4  A    between atoms: N_6  and  N_7
REMARK    5  A    between atoms: C_8  and  C_9
REMARK    6  A    between atoms: N_11  and  C_12
REMARK    7  A    between atoms: C_12  and  C_13
REMARK    8  A    between atoms: C_13  and  C_14
REMARK    9  A    between atoms: C_14  and  O_15
REMARK   10  A    between atoms: O_15  and  C_16
REMARK                            x       y       z     vdW  Elec       q    Type
REMARK                         _______ _______ _______ _____ _____    ______ ____
ROOT
ATOM      1  C   UNL     1       2.888   6.486  17.970  0.00  0.00    +0.000 A 
ATOM      2  C   UNL     1       4.251   6.677  18.107  0.00  0.00    +0.000 A 
ATOM      3  N   UNL     1       4.858   5.457  18.238  0.00  0.00    +0.000 N 
ATOM      4  C   UNL     1       3.912   4.455  18.183  0.00  0.00    +0.000 A 
ATOM      5  C   UNL     1       4.047   3.060  18.266  0.00  0.00    +0.000 A 
ATOM      6  C   UNL     1       2.893   2.278  18.177  0.00  0.00    +0.000 A 
ATOM      7  C   UNL     1       1.644   2.868  18.011  0.00  0.00    +0.000 A 
ATOM      8  C   UNL     1       1.518   4.258  17.926  0.00  0.00    +0.000 A 
ATOM      9  C   UNL     1       2.667   5.073  18.015  0.00  0.00    +0.000 A 
ENDROOT
BRANCH   1  11
ATOM     10  N   UNL     1       2.299   8.760  17.995  0.00  0.00    +0.000 NA
ATOM     11  C   UNL     1       1.912   7.544  17.802  0.00  0.00    +0.000 C 
BRANCH  10  14
ATOM     12  C   UNL     1       0.610  10.159  18.880  0.00  0.00    +0.000 C 
ATOM     13  O   UNL     1       0.701   9.747  20.032  0.00  0.00    +0.000 OA
ATOM     14  N   UNL     1       1.379   9.749  17.815  0.00  0.00    +0.000 N 
ATOM     15  H   UNL     1       1.146  10.096  16.895  0.00  0.00    +0.000 HD
BRANCH  12  16
ATOM     16  O   UNL     1      -0.328  11.039  18.448  0.00  0.00    +0.000 OA
BRANCH  16  18
ATOM     17  C   UNL     1       0.010  13.395  18.410  0.00  0.00    +0.000 C 
ATOM     18  C   UNL     1      -0.440  12.218  19.257  0.00  0.00    +0.000 C 
ENDBRANCH  16  18
ENDBRANCH  12  16
ENDBRANCH  10  14
ENDBRANCH   1  11
BRANCH   3  19
ATOM     19  C   UNL     1       6.285   5.273  18.451  0.00  0.00    +0.000 C 
BRANCH  19  20
ATOM     20  C   UNL     1       7.158   6.382  17.869  0.00  0.00    +0.000 C 
BRANCH  20  21
ATOM     21  C   UNL     1       7.171   6.379  16.345  0.00  0.00    +0.000 C 
BRANCH  21  22
ATOM     22  O   UNL     1       7.621   5.100  15.892  0.00  0.00    +0.000 OA
BRANCH  22  23
ATOM     23  C   UNL     1       7.162   4.718  14.658  0.00  0.00    +0.000 A 
ATOM     24  C   UNL     1       7.787   5.000  13.439  0.00  0.00    +0.000 A 
ATOM     25  C   UNL     1       7.223   4.560  12.241  0.00  0.00    +0.000 A 
ATOM     26  C   UNL     1       6.037   3.834  12.252  0.00  0.00    +0.000 A 
ATOM     27  C   UNL     1       5.412   3.541  13.463  0.00  0.00    +0.000 A 
ATOM     28  C   UNL     1       5.975   3.985  14.662  0.00  0.00    +0.000 A 
ENDBRANCH  22  23
ENDBRANCH  21  22
ENDBRANCH  20  21
ENDBRANCH  19  20
ENDBRANCH   3  19
TORSDOF 9
ENDMDL
MODEL 6
REMARK VINA RESULT:      -7.1      3.810      5.175
REMARK  Name = 
REMARK  10 active torsions:
REMARK  status: ('A' for Active; 'I' for Inactive)
REMARK    1  A    between atoms: C_1  and  C_2
REMARK    2  A    between atoms: C_2  and  O_3
REMARK    3  A    between atoms: O_3  and  C_4
REMARK    4  A    between atoms: N_6  and  N_7
REMARK    5  A    between atoms: C_8  and  C_9
REMARK    6  A    between atoms: N_11  and  C_12
REMARK    7  A    between atoms: C_12  and  C_13
REMARK    8  A    between atoms: C_13  and  C_14
REMARK    9  A    between atoms: C_14  and  O_15
REMARK   10  A    between atoms: O_15  and  C_16
REMARK                            x       y       z     vdW  Elec       q    Type
REMARK                         _______ _______ _______ _____ _____    ______ ____
ROOT
ATOM      1  C   UNL     1       3.099   7.179  17.773  0.00  0.00    +0.000 A 
ATOM      2  C   UNL     1       4.392   7.500  17.402  0.00  0.00    +0.000 A 
ATOM      3  N   UNL     1       5.083   6.342  17.159  0.00  0.00    +0.000 N 
ATOM      4  C   UNL     1       4.259   5.255  17.357  0.00  0.00    +0.000 A 
ATOM      5  C   UNL     1       4.509   3.880  17.229  0.00  0.00    +0.000 A 
ATOM      6  C   UNL     1       3.465   2.991  17.500  0.00  0.00    +0.000 A 
ATOM      7  C   UNL     1       2.213   3.458  17.885  0.00  0.00    +0.000 A 
ATOM      8  C   UNL     1       1.972   4.830  18.008  0.00  0.00    +0.000 A 
ATOM      9  C   UNL     1       3.008   5.751  17.743  0.00  0.00    +0.000 A 
ENDROOT
BRANCH   1  11
ATOM     10  N   UNL     1       2.228   9.360  17.720  0.00  0.00    +0.000 NA
ATOM     11  C   UNL     1       2.066   8.139  18.105  0.00  0.00    +0.000 C 
BRANCH  10  14
ATOM     12  C   UNL     1       1.565  11.570  18.234  0.00  0.00    +0.000 C 
ATOM     13  O   UNL     1       2.685  12.061  18.133  0.00  0.00    +0.000 OA
ATOM     14  N   UNL     1       1.242  10.250  18.020  0.00  0.00    +0.000 N 
ATOM     15  H   UNL     1       0.299   9.949  18.226  0.00  0.00    +0.000 HD
BRANCH  12  16
ATOM     16  O   UNL     1       0.464  12.243  18.657  0.00  0.00    +0.000 OA
BRANCH  16  18
ATOM     17  C   UNL     1      -0.299  11.877  20.882  0.00  0.00    +0.000 C 
ATOM     18  C   UNL     1      -0.444  11.449  19.432  0.00  0.00    +0.000 C 
ENDBRANCH  16  18
ENDBRANCH  12  16
ENDBRANCH  10  14
ENDBRANCH   1  11
BRANCH   3  19
ATOM     19  C   UNL     1       6.490   6.293  16.793  0.00  0.00    +0.000 C 
BRANCH  19  20
ATOM     20  C   UNL     1       7.445   6.747  17.894  0.00  0.00    +0.000 C 
BRANCH  20  21
ATOM     21  C   UNL     1       7.925   8.180  17.701  0.00  0.00    +0.000 C 
BRANCH  21  22
ATOM     22  O   UNL     1       8.705   8.560  18.836  0.00  0.00    +0.000 OA
BRANCH  22  23
ATOM     23  C   UNL     1       9.006   9.895  18.925  0.00  0.00    +0.000 A 
ATOM     24  C   UNL     1       9.658  10.509  19.999  0.00  0.00    +0.000 A 
ATOM     25  C   UNL     1       9.907  11.881  19.980  0.00  0.00    +0.000 A 
ATOM     26  C   UNL     1       9.513  12.648  18.888  0.00  0.00    +0.000 A 
ATOM     27  C   UNL     1       8.869  12.042  17.810  0.00  0.00    +0.000 A 
ATOM     28  C   UNL     1       8.616  10.669  17.831  0.00  0.00    +0.000 A 
ENDBRANCH  22  23
ENDBRANCH  21  22
ENDBRANCH  20  21
ENDBRANCH  19  20
ENDBRANCH   3  19
TORSDOF 9
ENDMDL
MODEL 7
REMARK VINA RESULT:      -7.1      2.465      3.607
REMARK  Name = 
REMARK  10 active torsions:
REMARK  status: ('A' for Active; 'I' for Inactive)
REMARK    1  A    between atoms: C_1  and  C_2
REMARK    2  A    between atoms: C_2  and  O_3
REMARK    3  A    between atoms: O_3  and  C_4
REMARK    4  A    between atoms: N_6  and  N_7
REMARK    5  A    between atoms: C_8  and  C_9
REMARK    6  A    between atoms: N_11  and  C_12
REMARK    7  A    between atoms: C_12  and  C_13
REMARK    8  A    between atoms: C_13  and  C_14
REMARK    9  A    between atoms: C_14  and  O_15
REMARK   10  A    between atoms: O_15  and  C_16
REMARK                            x       y       z     vdW  Elec       q    Type
REMARK                         _______ _______ _______ _____ _____    ______ ____
ROOT
ATOM      1  C   UNL     1       2.882   6.281  18.625  0.00  0.00    +0.000 A 
ATOM      2  C   UNL     1       3.690   5.836  17.595  0.00  0.00    +0.000 A 
ATOM      3  N   UNL     1       3.650   4.467  17.562  0.00  0.00    +0.000 N 
ATOM      4  C   UNL     1       2.817   3.999  18.555  0.00  0.00    +0.000 A 
ATOM      5  C   UNL     1       2.457   2.689  18.909  0.00  0.00    +0.000 A 
ATOM      6  C   UNL     1       1.578   2.512  19.980  0.00  0.00    +0.000 A 
ATOM      7  C   UNL     1       1.071   3.605  20.675  0.00  0.00    +0.000 A 
ATOM      8  C   UNL     1       1.432   4.908  20.314  0.00  0.00    +0.000 A 
ATOM      9  C   UNL     1       2.321   5.116  19.238  0.00  0.00    +0.000 A 
ENDROOT
BRANCH   1  11
ATOM     10  N   UNL     1       1.633   8.266  18.474  0.00  0.00    +0.000 NA
ATOM     11  C   UNL     1       2.666   7.671  18.971  0.00  0.00    +0.000 C 
BRANCH  10  14
ATOM     12  C   UNL     1       0.318  10.226  18.347  0.00  0.00    +0.000 C 
ATOM     13  O   UNL     1      -0.568   9.734  17.654  0.00  0.00    +0.000 OA
ATOM     14  N   UNL     1       1.427   9.566  18.822  0.00  0.00    +0.000 N 
ATOM     15  H   UNL     1       2.133  10.104  19.305  0.00  0.00    +0.000 HD
BRANCH  12  16
ATOM     16  O   UNL     1       0.387  11.536  18.694  0.00  0.00    +0.000 OA
BRANCH  16  18
ATOM     17  C   UNL     1       1.821  13.380  18.234  0.00  0.00    +0.000 C 
ATOM     18  C   UNL     1       1.722  12.017  18.898  0.00  0.00    +0.000 C 
ENDBRANCH  16  18
ENDBRANCH  12  16
ENDBRANCH  10  14
ENDBRANCH   1  11
BRANCH   3  19
ATOM     19  C   UNL     1       4.418   3.650  16.636  0.00  0.00    +0.000 C 
BRANCH  19  20
ATOM     20  C   UNL     1       4.720   4.324  15.299  0.00  0.00    +0.000 C 
BRANCH  20  21
ATOM     21  C   UNL     1       6.215   4.457  15.034  0.00  0.00    +0.000 C 
BRANCH  21  22
ATOM     22  O   UNL     1       6.924   4.135  16.232  0.00  0.00    +0.000 OA
BRANCH  22  23
ATOM     23  C   UNL     1       7.282   5.205  17.010  0.00  0.00    +0.000 A 
ATOM     24  C   UNL     1       7.215   6.548  16.623  0.00  0.00    +0.000 A 
ATOM     25  C   UNL     1       7.612   7.555  17.503  0.00  0.00    +0.000 A 
ATOM     26  C   UNL     1       8.074   7.230  18.774  0.00  0.00    +0.000 A 
ATOM     27  C   UNL     1       8.137   5.895  19.171  0.00  0.00    +0.000 A 
ATOM     28  C   UNL     1       7.743   4.887  18.289  0.00  0.00    +0.000 A 
ENDBRANCH  22  23
ENDBRANCH  21  22
ENDBRANCH  20  21
ENDBRANCH  19  20
ENDBRANCH   3  19
TORSDOF 9
ENDMDL
MODEL 8
REMARK VINA RESULT:      -7.1      1.297      1.327
REMARK  Name = 
REMARK  10 active torsions:
REMARK  status: ('A' for Active; 'I' for Inactive)
REMARK    1  A    between atoms: C_1  and  C_2
REMARK    2  A    between atoms: C_2  and  O_3
REMARK    3  A    between atoms: O_3  and  C_4
REMARK    4  A    between atoms: N_6  and  N_7
REMARK    5  A    between atoms: C_8  and  C_9
REMARK    6  A    between atoms: N_11  and  C_12
REMARK    7  A    between atoms: C_12  and  C_13
REMARK    8  A    between atoms: C_13  and  C_14
REMARK    9  A    between atoms: C_14  and  O_15
REMARK   10  A    between atoms: O_15  and  C_16
REMARK                            x       y       z     vdW  Elec       q    Type
REMARK                         _______ _______ _______ _____ _____    ______ ____
ROOT
ATOM      1  C   UNL     1       2.270   6.856  19.767  0.00  0.00    +0.000 A 
ATOM      2  C   UNL     1       2.899   7.228  18.592  0.00  0.00    +0.000 A 
ATOM      3  N   UNL     1       3.561   6.143  18.083  0.00  0.00    +0.000 N 
ATOM      4  C   UNL     1       3.373   5.051  18.904  0.00  0.00    +0.000 A 
ATOM      5  C   UNL     1       3.843   3.733  18.800  0.00  0.00    +0.000 A 
ATOM      6  C   UNL     1       3.487   2.823  19.798  0.00  0.00    +0.000 A 
ATOM      7  C   UNL     1       2.686   3.215  20.867  0.00  0.00    +0.000 A 
ATOM      8  C   UNL     1       2.219   4.530  20.962  0.00  0.00    +0.000 A 
ATOM      9  C   UNL     1       2.566   5.471  19.969  0.00  0.00    +0.000 A 
ENDROOT
BRANCH   1  11
ATOM     10  N   UNL     1       1.375   8.975  20.249  0.00  0.00    +0.000 NA
ATOM     11  C   UNL     1       1.466   7.733  20.593  0.00  0.00    +0.000 C 
BRANCH  10  14
ATOM     12  C   UNL     1      -0.550  10.325  20.492  0.00  0.00    +0.000 C 
ATOM     13  O   UNL     1      -0.996  10.105  19.371  0.00  0.00    +0.000 OA
ATOM     14  N   UNL     1       0.600   9.786  21.021  0.00  0.00    +0.000 N 
ATOM     15  H   UNL     1       0.912  10.117  21.924  0.00  0.00    +0.000 HD
BRANCH  12  16
ATOM     16  O   UNL     1      -1.084  11.207  21.375  0.00  0.00    +0.000 OA
BRANCH  16  18
ATOM     17  C   UNL     1      -0.687  13.408  20.560  0.00  0.00    +0.000 C 
ATOM     18  C   UNL     1      -1.735  12.327  20.760  0.00  0.00    +0.000 C 
ENDBRANCH  16  18
ENDBRANCH  12  16
ENDBRANCH  10  14
ENDBRANCH   1  11
BRANCH   3  19
ATOM     19  C   UNL     1       4.375   6.174  16.878  0.00  0.00    +0.000 C 
BRANCH  19  20
ATOM     20  C   UNL     1       5.847   6.503  17.119  0.00  0.00    +0.000 C 
BRANCH  20  21
ATOM     21  C   UNL     1       6.770   5.336  16.793  0.00  0.00    +0.000 C 
BRANCH  21  22
ATOM     22  O   UNL     1       7.487   5.638  15.594  0.00  0.00    +0.000 OA
BRANCH  22  23
ATOM     23  C   UNL     1       7.067   4.970  14.473  0.00  0.00    +0.000 A 
ATOM     24  C   UNL     1       6.004   4.062  14.421  0.00  0.00    +0.000 A 
ATOM     25  C   UNL     1       5.670   3.438  13.219  0.00  0.00    +0.000 A 
ATOM     26  C   UNL     1       6.390   3.718  12.062  0.00  0.00    +0.000 A 
ATOM     27  C   UNL     1       7.446   4.627  12.103  0.00  0.00    +0.000 A 
ATOM     28  C   UNL     1       7.783   5.249  13.307  0.00  0.00    +0.000 A 
ENDBRANCH  22  23
ENDBRANCH  21  22
ENDBRANCH  20  21
ENDBRANCH  19  20
ENDBRANCH   3  19
TORSDOF 9
ENDMDL
MODEL 9
REMARK VINA RESULT:      -7.1      1.482      9.640
REMARK  Name = 
REMARK  10 active torsions:
REMARK  status: ('A' for Active; 'I' for Inactive)
REMARK    1  A    between atoms: C_1  and  C_2
REMARK    2  A    between atoms: C_2  and  O_3
REMARK    3  A    between atoms: O_3  and  C_4
REMARK    4  A    between atoms: N_6  and  N_7
REMARK    5  A    between atoms: C_8  and  C_9
REMARK    6  A    between atoms: N_11  and  C_12
REMARK    7  A    between atoms: C_12  and  C_13
REMARK    8  A    between atoms: C_13  and  C_14
REMARK    9  A    between atoms: C_14  and  O_15
REMARK   10  A    between atoms: O_15  and  C_16
REMARK                            x       y       z     vdW  Elec       q    Type
REMARK                         _______ _______ _______ _____ _____    ______ ____
ROOT
ATOM      1  C   UNL     1       3.291   5.443  18.015  0.00  0.00    +0.000 A 
ATOM      2  C   UNL     1       3.101   6.560  18.809  0.00  0.00    +0.000 A 
ATOM      3  N   UNL     1       2.250   6.235  19.832  0.00  0.00    +0.000 N 
ATOM      4  C   UNL     1       1.878   4.912  19.730  0.00  0.00    +0.000 A 
ATOM      5  C   UNL     1       1.036   4.131  20.537  0.00  0.00    +0.000 A 
ATOM      6  C   UNL     1       0.839   2.793  20.185  0.00  0.00    +0.000 A 
ATOM      7  C   UNL     1       1.462   2.251  19.066  0.00  0.00    +0.000 A 
ATOM      8  C   UNL     1       2.302   3.035  18.269  0.00  0.00    +0.000 A 
ATOM      9  C   UNL     1       2.517   4.391  18.598  0.00  0.00    +0.000 A 
ENDROOT
BRANCH   1  11
ATOM     10  N   UNL     1       5.229   6.075  16.846  0.00  0.00    +0.000 NA
ATOM     11  C   UNL     1       4.132   5.394  16.837  0.00  0.00    +0.000 C 
BRANCH  10  14
ATOM     12  C   UNL     1       7.187   5.276  15.791  0.00  0.00    +0.000 C 
ATOM     13  O   UNL     1       7.580   4.614  16.746  0.00  0.00    +0.000 OA
ATOM     14  N   UNL     1       6.022   6.006  15.742  0.00  0.00    +0.000 N 
ATOM     15  H   UNL     1       5.854   6.585  14.930  0.00  0.00    +0.000 HD
BRANCH  12  16
ATOM     16  O   UNL     1       7.886   5.461  14.642  0.00  0.00    +0.000 OA
BRANCH  16  18
ATOM     17  C   UNL     1       7.865   5.479  12.262  0.00  0.00    +0.000 C 
ATOM     18  C   UNL     1       7.328   4.790  13.504  0.00  0.00    +0.000 C 
ENDBRANCH  16  18
ENDBRANCH  12  16
ENDBRANCH  10  14
ENDBRANCH   1  11
BRANCH   3  19
ATOM     19  C   UNL     1       1.784   7.178  20.837  0.00  0.00    +0.000 C 
BRANCH  19  20
ATOM     20  C   UNL     1       1.401   8.550  20.287  0.00  0.00    +0.000 C 
BRANCH  20  21
ATOM     21  C   UNL     1       0.575   9.368  21.272  0.00  0.00    +0.000 C 
BRANCH  21  22
ATOM     22  O   UNL     1       0.122  10.554  20.617  0.00  0.00    +0.000 OA
BRANCH  22  23
ATOM     23  C   UNL     1      -0.848  11.260  21.280  0.00  0.00    +0.000 A 
ATOM     24  C   UNL     1      -1.165  11.124  22.636  0.00  0.00    +0.000 A 
ATOM     25  C   UNL     1      -2.179  11.896  23.203  0.00  0.00    +0.000 A 
ATOM     26  C   UNL     1      -2.879  12.812  22.424  0.00  0.00    +0.000 A 
ATOM     27  C   UNL     1      -2.564  12.959  21.074  0.00  0.00    +0.000 A 
ATOM     28  C   UNL     1      -1.552  12.183  20.505  0.00  0.00    +0.000 A 
ENDBRANCH  22  23
ENDBRANCH  21  22
ENDBRANCH  20  21
ENDBRANCH  19  20
ENDBRANCH   3  19
TORSDOF 9
ENDMDL
