MODEL 1
REMARK VINA RESULT:      -8.2      0.000      0.000
REMARK  Name = 
REMARK  9 active torsions:
REMARK  status: ('A' for Active; 'I' for Inactive)
REMARK    1  A    between atoms: C_1  and  C_2
REMARK    2  A    between atoms: C_2  and  O_3
REMARK    3  A    between atoms: C_2  and  C_4
REMARK    4  A    between atoms: C_2  and  C_30
REMARK    5  A    between atoms: C_4  and  N_5
REMARK    6  A    between atoms: C_6  and  C_8
REMARK    7  A    between atoms: N_10  and  C_11
REMARK    8  A    between atoms: C_11  and  C_12
REMARK    9  A    between atoms: C_15  and  N_16
REMARK                            x       y       z     vdW  Elec       q    Type
REMARK                         _______ _______ _______ _____ _____    ______ ____
ROOT
ATOM      1  C   UNL     1       6.013   4.669  19.107  0.00  0.00    +0.000 C 
ATOM      2  C   UNL     1       5.493   6.109  19.026  0.00  0.00    +0.000 C 
ATOM      3  N   UNL     1       4.819   6.382  17.734  0.00  0.00    +0.000 N 
ATOM      4  C   UNL     1       5.494   5.752  16.657  0.00  0.00    +0.000 A 
ATOM      5  C   UNL     1       5.121   5.977  15.325  0.00  0.00    +0.000 A 
ATOM      6  C   UNL     1       5.750   5.320  14.260  0.00  0.00    +0.000 A 
ATOM      7  C   UNL     1       6.826   4.471  14.495  0.00  0.00    +0.000 A 
ATOM      8  C   UNL     1       7.262   4.271  15.798  0.00  0.00    +0.000 A 
ATOM      9  C   UNL     1       6.583   4.874  16.861  0.00  0.00    +0.000 A 
ATOM     10  O   UNL     1       6.996   4.441  18.102  0.00  0.00    +0.000 OA
ENDROOT
BRANCH   1  12
ATOM     11  N   UNL     1       4.087   3.648  20.295  0.00  0.00    +0.000 N 
ATOM     12  C   UNL     1       4.831   3.671  19.135  0.00  0.00    +0.000 C 
ATOM     13  O   UNL     1       4.593   2.928  18.187  0.00  0.00    +0.000 OA
ATOM     14  H   UNL     1       4.388   4.234  21.065  0.00  0.00    +0.000 HD
BRANCH  11  15
ATOM     15  C   UNL     1       3.116   2.605  20.581  0.00  0.00    +0.000 C 
BRANCH  15  17
ATOM     16  C   UNL     1       1.155   2.290  22.186  0.00  0.00    +0.000 C 
ATOM     17  C   UNL     1       1.709   3.099  21.008  0.00  0.00    +0.000 C 
BRANCH  17  18
ATOM     18  C   UNL     1       0.738   3.045  19.841  0.00  0.00    +0.000 C 
ATOM     19  C   UNL     1       1.130   3.605  18.493  0.00  0.00    +0.000 C 
ATOM     20  C   UNL     1       0.925   2.126  18.653  0.00  0.00    +0.000 C 
ENDBRANCH  17  18
BRANCH  17  21
ATOM     21  O   UNL     1       1.844   4.460  21.446  0.00  0.00    +0.000 OA
ATOM     22  H   UNL     1       2.371   4.453  22.263  0.00  0.00    +0.000 HD
ENDBRANCH  17  21
ENDBRANCH  15  17
ENDBRANCH  11  15
ENDBRANCH   1  12
BRANCH   3  23
ATOM     23  C   UNL     1       3.345   6.236  17.767  0.00  0.00    +0.000 C 
BRANCH  23  24
ATOM     24  C   UNL     1       2.617   7.390  18.424  0.00  0.00    +0.000 A 
ATOM     25  C   UNL     1       2.304   8.539  17.680  0.00  0.00    +0.000 A 
ATOM     26  C   UNL     1       1.614   9.608  18.261  0.00  0.00    +0.000 A 
ATOM     27  C   UNL     1       1.212   9.537  19.600  0.00  0.00    +0.000 A 
ATOM     28  C   UNL     1       1.517   8.389  20.347  0.00  0.00    +0.000 A 
ATOM     29  C   UNL     1       2.213   7.325  19.762  0.00  0.00    +0.000 A 
BRANCH  27  30
ATOM     30  N   UNL     1       0.515  10.614  20.217  0.00  0.00    +0.000 N 
ATOM     31  C   UNL     1      -0.230  11.606  19.609  0.00  0.00    +0.000 A 
ATOM     32  C   UNL     1      -0.659  12.459  20.598  0.00  0.00    +0.000 A 
ATOM     33  C   UNL     1      -0.156  11.902  21.781  0.00  0.00    +0.000 A 
ATOM     34  N   UNL     1       0.532  10.781  21.567  0.00  0.00    +0.000 NA
ENDBRANCH  27  30
ENDBRANCH  23  24
ENDBRANCH   3  23
TORSDOF 8
ENDMDL
MODEL 2
REMARK VINA RESULT:      -7.8      1.754      5.269
REMARK  Name = 
REMARK  9 active torsions:
REMARK  status: ('A' for Active; 'I' for Inactive)
REMARK    1  A    between atoms: C_1  and  C_2
REMARK    2  A    between atoms: C_2  and  O_3
REMARK    3  A    between atoms: C_2  and  C_4
REMARK    4  A    between atoms: C_2  and  C_30
REMARK    5  A    between atoms: C_4  and  N_5
REMARK    6  A    between atoms: C_6  and  C_8
REMARK    7  A    between atoms: N_10  and  C_11
REMARK    8  A    between atoms: C_11  and  C_12
REMARK    9  A    between atoms: C_15  and  N_16
REMARK                            x       y       z     vdW  Elec       q    Type
REMARK                         _______ _______ _______ _____ _____    ______ ____
ROOT
ATOM      1  C   UNL     1       2.566   3.075  17.235  0.00  0.00    +0.000 C 
ATOM      2  C   UNL     1       1.746   4.369  17.284  0.00  0.00    +0.000 C 
ATOM      3  N   UNL     1       1.874   5.056  18.592  0.00  0.00    +0.000 N 
ATOM      4  C   UNL     1       1.899   4.126  19.663  0.00  0.00    +0.000 A 
ATOM      5  C   UNL     1       1.879   4.546  20.999  0.00  0.00    +0.000 A 
ATOM      6  C   UNL     1       1.954   3.635  22.061  0.00  0.00    +0.000 A 
ATOM      7  C   UNL     1       1.976   2.268  21.814  0.00  0.00    +0.000 A 
ATOM      8  C   UNL     1       1.937   1.813  20.502  0.00  0.00    +0.000 A 
ATOM      9  C   UNL     1       1.935   2.730  19.446  0.00  0.00    +0.000 A 
ATOM     10  O   UNL     1       2.090   2.150  18.207  0.00  0.00    +0.000 OA
ENDROOT
BRANCH   1  12
ATOM     11  N   UNL     1       4.636   3.893  16.133  0.00  0.00    +0.000 N 
ATOM     12  C   UNL     1       4.079   3.395  17.292  0.00  0.00    +0.000 C 
ATOM     13  O   UNL     1       4.744   3.189  18.304  0.00  0.00    +0.000 OA
ATOM     14  H   UNL     1       4.044   3.964  15.314  0.00  0.00    +0.000 HD
BRANCH  11  15
ATOM     15  C   UNL     1       6.072   4.002  15.938  0.00  0.00    +0.000 C 
BRANCH  15  17
ATOM     16  C   UNL     1       7.405   5.304  14.193  0.00  0.00    +0.000 C 
ATOM     17  C   UNL     1       6.582   5.394  15.482  0.00  0.00    +0.000 C 
BRANCH  17  18
ATOM     18  C   UNL     1       7.405   6.055  16.576  0.00  0.00    +0.000 C 
ATOM     19  C   UNL     1       6.838   7.211  17.366  0.00  0.00    +0.000 C 
ATOM     20  C   UNL     1       7.097   5.898  18.049  0.00  0.00    +0.000 C 
ENDBRANCH  17  18
BRANCH  17  21
ATOM     21  O   UNL     1       5.431   6.206  15.204  0.00  0.00    +0.000 OA
ATOM     22  H   UNL     1       4.647   5.709  15.496  0.00  0.00    +0.000 HD
ENDBRANCH  17  21
ENDBRANCH  15  17
ENDBRANCH  11  15
ENDBRANCH   1  12
BRANCH   3  23
ATOM     23  C   UNL     1       2.895   6.130  18.624  0.00  0.00    +0.000 C 
BRANCH  23  24
ATOM     24  C   UNL     1       2.327   7.529  18.745  0.00  0.00    +0.000 A 
ATOM     25  C   UNL     1       1.725   7.941  19.945  0.00  0.00    +0.000 A 
ATOM     26  C   UNL     1       1.212   9.235  20.086  0.00  0.00    +0.000 A 
ATOM     27  C   UNL     1       1.308  10.146  19.027  0.00  0.00    +0.000 A 
ATOM     28  C   UNL     1       1.914   9.741  17.828  0.00  0.00    +0.000 A 
ATOM     29  C   UNL     1       2.420   8.443  17.690  0.00  0.00    +0.000 A 
BRANCH  27  30
ATOM     30  N   UNL     1       0.789  11.466  19.143  0.00  0.00    +0.000 N 
ATOM     31  C   UNL     1      -0.419  11.950  18.679  0.00  0.00    +0.000 A 
ATOM     32  C   UNL     1      -0.458  13.294  18.967  0.00  0.00    +0.000 A 
ATOM     33  C   UNL     1       0.751  13.544  19.630  0.00  0.00    +0.000 A 
ATOM     34  N   UNL     1       1.498  12.448  19.762  0.00  0.00    +0.000 NA
ENDBRANCH  27  30
ENDBRANCH  23  24
ENDBRANCH   3  23
TORSDOF 8
ENDMDL
MODEL 3
REMARK VINA RESULT:      -7.7      1.664      5.209
REMARK  Name = 
REMARK  9 active torsions:
REMARK  status: ('A' for Active; 'I' for Inactive)
REMARK    1  A    between atoms: C_1  and  C_2
REMARK    2  A    between atoms: C_2  and  O_3
REMARK    3  A    between atoms: C_2  and  C_4
REMARK    4  A    between atoms: C_2  and  C_30
REMARK    5  A    between atoms: C_4  and  N_5
REMARK    6  A    between atoms: C_6  and  C_8
REMARK    7  A    between atoms: N_10  and  C_11
REMARK    8  A    between atoms: C_11  and  C_12
REMARK    9  A    between atoms: C_15  and  N_16
REMARK                            x       y       z     vdW  Elec       q    Type
REMARK                         _______ _______ _______ _____ _____    ______ ____
ROOT
ATOM      1  C   UNL     1       2.544   3.135  17.218  0.00  0.00    +0.000 C 
ATOM      2  C   UNL     1       1.708   4.418  17.291  0.00  0.00    +0.000 C 
ATOM      3  N   UNL     1       1.850   5.096  18.602  0.00  0.00    +0.000 N 
ATOM      4  C   UNL     1       1.904   4.158  19.665  0.00  0.00    +0.000 A 
ATOM      5  C   UNL     1       1.901   4.567  21.005  0.00  0.00    +0.000 A 
ATOM      6  C   UNL     1       2.004   3.649  22.058  0.00  0.00    +0.000 A 
ATOM      7  C   UNL     1       2.040   2.284  21.799  0.00  0.00    +0.000 A 
ATOM      8  C   UNL     1       1.985   1.839  20.485  0.00  0.00    +0.000 A 
ATOM      9  C   UNL     1       1.954   2.765  19.437  0.00  0.00    +0.000 A 
ATOM     10  O   UNL     1       2.096   2.196  18.190  0.00  0.00    +0.000 OA
ENDROOT
BRANCH   1  12
ATOM     11  N   UNL     1       4.613   3.864  16.055  0.00  0.00    +0.000 N 
ATOM     12  C   UNL     1       4.053   3.474  17.252  0.00  0.00    +0.000 C 
ATOM     13  O   UNL     1       4.713   3.373  18.284  0.00  0.00    +0.000 OA
ATOM     14  H   UNL     1       4.026   3.850  15.229  0.00  0.00    +0.000 HD
BRANCH  11  15
ATOM     15  C   UNL     1       6.049   3.968  15.859  0.00  0.00    +0.000 C 
BRANCH  15  17
ATOM     16  C   UNL     1       7.385   5.247  14.098  0.00  0.00    +0.000 C 
ATOM     17  C   UNL     1       6.562   5.353  15.386  0.00  0.00    +0.000 C 
BRANCH  17  18
ATOM     18  C   UNL     1       7.385   6.026  16.472  0.00  0.00    +0.000 C 
ATOM     19  C   UNL     1       6.710   6.855  17.541  0.00  0.00    +0.000 C 
ATOM     20  C   UNL     1       7.385   5.565  17.914  0.00  0.00    +0.000 C 
ENDBRANCH  17  18
BRANCH  17  21
ATOM     21  O   UNL     1       5.412   6.164  15.097  0.00  0.00    +0.000 OA
ATOM     22  H   UNL     1       5.387   6.301  14.135  0.00  0.00    +0.000 HD
ENDBRANCH  17  21
ENDBRANCH  15  17
ENDBRANCH  11  15
ENDBRANCH   1  12
BRANCH   3  23
ATOM     23  C   UNL     1       2.857   6.183  18.626  0.00  0.00    +0.000 C 
BRANCH  23  24
ATOM     24  C   UNL     1       2.283   7.562  18.874  0.00  0.00    +0.000 A 
ATOM     25  C   UNL     1       2.255   8.508  17.836  0.00  0.00    +0.000 A 
ATOM     26  C   UNL     1       1.710   9.781  18.037  0.00  0.00    +0.000 A 
ATOM     27  C   UNL     1       1.170  10.124  19.282  0.00  0.00    +0.000 A 
ATOM     28  C   UNL     1       1.190   9.181  20.321  0.00  0.00    +0.000 A 
ATOM     29  C   UNL     1       1.742   7.910  20.117  0.00  0.00    +0.000 A 
BRANCH  27  30
ATOM     30  N   UNL     1       0.616  11.415  19.514  0.00  0.00    +0.000 N 
ATOM     31  C   UNL     1       0.193  11.958  20.711  0.00  0.00    +0.000 A 
ATOM     32  C   UNL     1      -0.325  13.202  20.434  0.00  0.00    +0.000 A 
ATOM     33  C   UNL     1      -0.154  13.350  19.052  0.00  0.00    +0.000 A 
ATOM     34  N   UNL     1       0.431  12.292  18.491  0.00  0.00    +0.000 NA
ENDBRANCH  27  30
ENDBRANCH  23  24
ENDBRANCH   3  23
TORSDOF 8
ENDMDL
MODEL 4
REMARK VINA RESULT:      -7.7      4.143      9.712
REMARK  Name = 
REMARK  9 active torsions:
REMARK  status: ('A' for Active; 'I' for Inactive)
REMARK    1  A    between atoms: C_1  and  C_2
REMARK    2  A    between atoms: C_2  and  O_3
REMARK    3  A    between atoms: C_2  and  C_4
REMARK    4  A    between atoms: C_2  and  C_30
REMARK    5  A    between atoms: C_4  and  N_5
REMARK    6  A    between atoms: C_6  and  C_8
REMARK    7  A    between atoms: N_10  and  C_11
REMARK    8  A    between atoms: C_11  and  C_12
REMARK    9  A    between atoms: C_15  and  N_16
REMARK                            x       y       z     vdW  Elec       q    Type
REMARK                         _______ _______ _______ _____ _____    ______ ____
ROOT
ATOM      1  C   UNL     1      -1.682  12.576  20.262  0.00  0.00    +0.000 C 
ATOM      2  C   UNL     1      -1.052  11.229  20.634  0.00  0.00    +0.000 C 
ATOM      3  N   UNL     1      -0.699  10.433  19.433  0.00  0.00    +0.000 N 
ATOM      4  C   UNL     1      -1.683  10.563  18.420  0.00  0.00    +0.000 A 
ATOM      5  C   UNL     1      -1.634   9.798  17.247  0.00  0.00    +0.000 A 
ATOM      6  C   UNL     1      -2.575   9.957  16.222  0.00  0.00    +0.000 A 
ATOM      7  C   UNL     1      -3.638  10.838  16.374  0.00  0.00    +0.000 A 
ATOM      8  C   UNL     1      -3.753  11.570  17.549  0.00  0.00    +0.000 A 
ATOM      9  C   UNL     1      -2.771  11.458  18.538  0.00  0.00    +0.000 A 
ATOM     10  O   UNL     1      -2.903  12.375  19.557  0.00  0.00    +0.000 OA
ENDROOT
BRANCH   1  12
ATOM     11  N   UNL     1       0.343  14.009  20.372  0.00  0.00    +0.000 N 
ATOM     12  C   UNL     1      -0.640  13.482  19.562  0.00  0.00    +0.000 C 
ATOM     13  O   UNL     1      -0.707  13.733  18.362  0.00  0.00    +0.000 OA
ATOM     14  H   UNL     1       0.291  13.822  21.366  0.00  0.00    +0.000 HD
BRANCH  11  15
ATOM     15  C   UNL     1       1.234  15.069  19.931  0.00  0.00    +0.000 C 
BRANCH  15  17
ATOM     16  C   UNL     1       3.470  14.183  20.790  0.00  0.00    +0.000 C 
ATOM     17  C   UNL     1       2.672  14.623  19.558  0.00  0.00    +0.000 C 
BRANCH  17  18
ATOM     18  C   UNL     1       3.413  15.733  18.832  0.00  0.00    +0.000 C 
ATOM     19  C   UNL     1       3.596  15.678  17.332  0.00  0.00    +0.000 C 
ATOM     20  C   UNL     1       2.722  16.739  17.937  0.00  0.00    +0.000 C 
ENDBRANCH  17  18
BRANCH  17  21
ATOM     21  O   UNL     1       2.560  13.486  18.688  0.00  0.00    +0.000 OA
ATOM     22  H   UNL     1       2.721  12.691  19.226  0.00  0.00    +0.000 HD
ENDBRANCH  17  21
ENDBRANCH  15  17
ENDBRANCH  11  15
ENDBRANCH   1  12
BRANCH   3  23
ATOM     23  C   UNL     1       0.714  10.563  19.004  0.00  0.00    +0.000 C 
BRANCH  23  24
ATOM     24  C   UNL     1       1.468   9.252  18.929  0.00  0.00    +0.000 A 
ATOM     25  C   UNL     1       1.468   8.378  20.029  0.00  0.00    +0.000 A 
ATOM     26  C   UNL     1       2.141   7.153  19.974  0.00  0.00    +0.000 A 
ATOM     27  C   UNL     1       2.815   6.775  18.806  0.00  0.00    +0.000 A 
ATOM     28  C   UNL     1       2.814   7.642  17.703  0.00  0.00    +0.000 A 
ATOM     29  C   UNL     1       2.144   8.870  17.765  0.00  0.00    +0.000 A 
BRANCH  27  30
ATOM     30  N   UNL     1       3.513   5.537  18.728  0.00  0.00    +0.000 N 
ATOM     31  C   UNL     1       4.679   5.173  19.374  0.00  0.00    +0.000 A 
ATOM     32  C   UNL     1       5.007   3.909  18.943  0.00  0.00    +0.000 A 
ATOM     33  C   UNL     1       3.978   3.565  18.058  0.00  0.00    +0.000 A 
ATOM     34  N   UNL     1       3.062   4.525  17.938  0.00  0.00    +0.000 NA
ENDBRANCH  27  30
ENDBRANCH  23  24
ENDBRANCH   3  23
TORSDOF 8
ENDMDL
MODEL 5
REMARK VINA RESULT:      -7.6      3.908      9.480
REMARK  Name = 
REMARK  9 active torsions:
REMARK  status: ('A' for Active; 'I' for Inactive)
REMARK    1  A    between atoms: C_1  and  C_2
REMARK    2  A    between atoms: C_2  and  O_3
REMARK    3  A    between atoms: C_2  and  C_4
REMARK    4  A    between atoms: C_2  and  C_30
REMARK    5  A    between atoms: C_4  and  N_5
REMARK    6  A    between atoms: C_6  and  C_8
REMARK    7  A    between atoms: N_10  and  C_11
REMARK    8  A    between atoms: C_11  and  C_12
REMARK    9  A    between atoms: C_15  and  N_16
REMARK                            x       y       z     vdW  Elec       q    Type
REMARK                         _______ _______ _______ _____ _____    ______ ____
ROOT
ATOM      1  C   UNL     1      -1.740  12.564  20.516  0.00  0.00    +0.000 C 
ATOM      2  C   UNL     1      -1.143  11.197  20.870  0.00  0.00    +0.000 C 
ATOM      3  N   UNL     1      -0.721  10.448  19.660  0.00  0.00    +0.000 N 
ATOM      4  C   UNL     1      -1.641  10.629  18.595  0.00  0.00    +0.000 A 
ATOM      5  C   UNL     1      -1.524   9.914  17.396  0.00  0.00    +0.000 A 
ATOM      6  C   UNL     1      -2.398  10.124  16.322  0.00  0.00    +0.000 A 
ATOM      7  C   UNL     1      -3.463  11.008  16.446  0.00  0.00    +0.000 A 
ATOM      8  C   UNL     1      -3.646  11.691  17.641  0.00  0.00    +0.000 A 
ATOM      9  C   UNL     1      -2.727  11.529  18.683  0.00  0.00    +0.000 A 
ATOM     10  O   UNL     1      -2.916  12.403  19.730  0.00  0.00    +0.000 OA
ENDROOT
BRANCH   1  12
ATOM     11  N   UNL     1       0.352  13.875  20.784  0.00  0.00    +0.000 N 
ATOM     12  C   UNL     1      -0.650  13.488  19.921  0.00  0.00    +0.000 C 
ATOM     13  O   UNL     1      -0.697  13.871  18.755  0.00  0.00    +0.000 OA
ATOM     14  H   UNL     1       0.285  13.583  21.752  0.00  0.00    +0.000 HD
BRANCH  11  15
ATOM     15  C   UNL     1       1.297  14.932  20.463  0.00  0.00    +0.000 C 
BRANCH  15  17
ATOM     16  C   UNL     1       3.540  15.627  21.466  0.00  0.00    +0.000 C 
ATOM     17  C   UNL     1       2.794  14.570  20.646  0.00  0.00    +0.000 C 
BRANCH  17  18
ATOM     18  C   UNL     1       3.475  14.384  19.300  0.00  0.00    +0.000 C 
ATOM     19  C   UNL     1       2.874  13.468  18.258  0.00  0.00    +0.000 C 
ATOM     20  C   UNL     1       2.921  14.949  18.009  0.00  0.00    +0.000 C 
ENDBRANCH  17  18
BRANCH  17  21
ATOM     21  O   UNL     1       2.853  13.334  21.377  0.00  0.00    +0.000 OA
ATOM     22  H   UNL     1       3.419  12.725  20.873  0.00  0.00    +0.000 HD
ENDBRANCH  17  21
ENDBRANCH  15  17
ENDBRANCH  11  15
ENDBRANCH   1  12
BRANCH   3  23
ATOM     23  C   UNL     1       0.716  10.583  19.325  0.00  0.00    +0.000 C 
BRANCH  23  24
ATOM     24  C   UNL     1       1.435   9.267  19.118  0.00  0.00    +0.000 A 
ATOM     25  C   UNL     1       2.070   8.998  17.895  0.00  0.00    +0.000 A 
ATOM     26  C   UNL     1       2.758   7.797  17.689  0.00  0.00    +0.000 A 
ATOM     27  C   UNL     1       2.834   6.848  18.716  0.00  0.00    +0.000 A 
ATOM     28  C   UNL     1       2.205   7.114  19.942  0.00  0.00    +0.000 A 
ATOM     29  C   UNL     1       1.513   8.314  20.141  0.00  0.00    +0.000 A 
BRANCH  27  30
ATOM     30  N   UNL     1       3.522   5.616  18.529  0.00  0.00    +0.000 N 
ATOM     31  C   UNL     1       4.089   5.124  17.369  0.00  0.00    +0.000 A 
ATOM     32  C   UNL     1       4.584   3.874  17.656  0.00  0.00    +0.000 A 
ATOM     33  C   UNL     1       4.303   3.691  19.015  0.00  0.00    +0.000 A 
ATOM     34  N   UNL     1       3.685   4.740  19.557  0.00  0.00    +0.000 NA
ENDBRANCH  27  30
ENDBRANCH  23  24
ENDBRANCH   3  23
TORSDOF 8
ENDMDL
MODEL 6
REMARK VINA RESULT:      -7.6      1.700      5.371
REMARK  Name = 
REMARK  9 active torsions:
REMARK  status: ('A' for Active; 'I' for Inactive)
REMARK    1  A    between atoms: C_1  and  C_2
REMARK    2  A    between atoms: C_2  and  O_3
REMARK    3  A    between atoms: C_2  and  C_4
REMARK    4  A    between atoms: C_2  and  C_30
REMARK    5  A    between atoms: C_4  and  N_5
REMARK    6  A    between atoms: C_6  and  C_8
REMARK    7  A    between atoms: N_10  and  C_11
REMARK    8  A    between atoms: C_11  and  C_12
REMARK    9  A    between atoms: C_15  and  N_16
REMARK                            x       y       z     vdW  Elec       q    Type
REMARK                         _______ _______ _______ _____ _____    ______ ____
ROOT
ATOM      1  C   UNL     1       2.600   3.088  17.262  0.00  0.00    +0.000 C 
ATOM      2  C   UNL     1       1.768   4.375  17.316  0.00  0.00    +0.000 C 
ATOM      3  N   UNL     1       1.893   5.059  18.626  0.00  0.00    +0.000 N 
ATOM      4  C   UNL     1       1.927   4.125  19.694  0.00  0.00    +0.000 A 
ATOM      5  C   UNL     1       1.906   4.540  21.032  0.00  0.00    +0.000 A 
ATOM      6  C   UNL     1       1.990   3.627  22.091  0.00  0.00    +0.000 A 
ATOM      7  C   UNL     1       2.024   2.261  21.839  0.00  0.00    +0.000 A 
ATOM      8  C   UNL     1       1.987   1.810  20.526  0.00  0.00    +0.000 A 
ATOM      9  C   UNL     1       1.975   2.730  19.473  0.00  0.00    +0.000 A 
ATOM     10  O   UNL     1       2.133   2.155  18.231  0.00  0.00    +0.000 OA
ENDROOT
BRANCH   1  12
ATOM     11  N   UNL     1       4.625   4.074  16.218  0.00  0.00    +0.000 N 
ATOM     12  C   UNL     1       4.110   3.421  17.317  0.00  0.00    +0.000 C 
ATOM     13  O   UNL     1       4.807   3.096  18.274  0.00  0.00    +0.000 OA
ATOM     14  H   UNL     1       4.008   4.242  15.432  0.00  0.00    +0.000 HD
BRANCH  11  15
ATOM     15  C   UNL     1       6.054   4.229  15.999  0.00  0.00    +0.000 C 
BRANCH  15  17
ATOM     16  C   UNL     1       5.527   5.901  14.142  0.00  0.00    +0.000 C 
ATOM     17  C   UNL     1       6.461   4.780  14.607  0.00  0.00    +0.000 C 
BRANCH  17  18
ATOM     18  C   UNL     1       6.491   3.668  13.572  0.00  0.00    +0.000 C 
ATOM     19  C   UNL     1       5.447   3.611  12.480  0.00  0.00    +0.000 C 
ATOM     20  C   UNL     1       6.879   3.896  12.127  0.00  0.00    +0.000 C 
ENDBRANCH  17  18
BRANCH  17  21
ATOM     21  O   UNL     1       7.778   5.340  14.733  0.00  0.00    +0.000 OA
ATOM     22  H   UNL     1       8.373   4.625  15.018  0.00  0.00    +0.000 HD
ENDBRANCH  17  21
ENDBRANCH  15  17
ENDBRANCH  11  15
ENDBRANCH   1  12
BRANCH   3  23
ATOM     23  C   UNL     1       2.904   6.141  18.661  0.00  0.00    +0.000 C 
BRANCH  23  24
ATOM     24  C   UNL     1       2.326   7.530  18.832  0.00  0.00    +0.000 A 
ATOM     25  C   UNL     1       2.384   8.451  17.773  0.00  0.00    +0.000 A 
ATOM     26  C   UNL     1       1.838   9.733  17.903  0.00  0.00    +0.000 A 
ATOM     27  C   UNL     1       1.211  10.110  19.096  0.00  0.00    +0.000 A 
ATOM     28  C   UNL     1       1.147   9.193  20.156  0.00  0.00    +0.000 A 
ATOM     29  C   UNL     1       1.699   7.913  20.023  0.00  0.00    +0.000 A 
BRANCH  27  30
ATOM     30  N   UNL     1       0.655  11.411  19.255  0.00  0.00    +0.000 N 
ATOM     31  C   UNL     1       1.014  12.576  18.607  0.00  0.00    +0.000 A 
ATOM     32  C   UNL     1       0.245  13.589  19.130  0.00  0.00    +0.000 A 
ATOM     33  C   UNL     1      -0.575  12.952  20.071  0.00  0.00    +0.000 A 
ATOM     34  N   UNL     1      -0.354  11.640  20.139  0.00  0.00    +0.000 NA
ENDBRANCH  27  30
ENDBRANCH  23  24
ENDBRANCH   3  23
TORSDOF 8
ENDMDL
MODEL 7
REMARK VINA RESULT:      -7.5      1.703      5.468
REMARK  Name = 
REMARK  9 active torsions:
REMARK  status: ('A' for Active; 'I' for Inactive)
REMARK    1  A    between atoms: C_1  and  C_2
REMARK    2  A    between atoms: C_2  and  O_3
REMARK    3  A    between atoms: C_2  and  C_4
REMARK    4  A    between atoms: C_2  and  C_30
REMARK    5  A    between atoms: C_4  and  N_5
REMARK    6  A    between atoms: C_6  and  C_8
REMARK    7  A    between atoms: N_10  and  C_11
REMARK    8  A    between atoms: C_11  and  C_12
REMARK    9  A    between atoms: C_15  and  N_16
REMARK                            x       y       z     vdW  Elec       q    Type
REMARK                         _______ _______ _______ _____ _____    ______ ____
ROOT
ATOM      1  C   UNL     1       2.567   3.130  17.286  0.00  0.00    +0.000 C 
ATOM      2  C   UNL     1       1.734   4.415  17.337  0.00  0.00    +0.000 C 
ATOM      3  N   UNL     1       1.859   5.104  18.645  0.00  0.00    +0.000 N 
ATOM      4  C   UNL     1       1.897   4.174  19.716  0.00  0.00    +0.000 A 
ATOM      5  C   UNL     1       1.877   4.593  21.052  0.00  0.00    +0.000 A 
ATOM      6  C   UNL     1       1.965   3.683  22.114  0.00  0.00    +0.000 A 
ATOM      7  C   UNL     1       2.000   2.316  21.866  0.00  0.00    +0.000 A 
ATOM      8  C   UNL     1       1.961   1.861  20.555  0.00  0.00    +0.000 A 
ATOM      9  C   UNL     1       1.946   2.778  19.499  0.00  0.00    +0.000 A 
ATOM     10  O   UNL     1       2.103   2.199  18.259  0.00  0.00    +0.000 OA
ENDROOT
BRANCH   1  12
ATOM     11  N   UNL     1       4.601   4.066  16.213  0.00  0.00    +0.000 N 
ATOM     12  C   UNL     1       4.076   3.465  17.337  0.00  0.00    +0.000 C 
ATOM     13  O   UNL     1       4.766   3.185  18.314  0.00  0.00    +0.000 OA
ATOM     14  H   UNL     1       3.990   4.197  15.415  0.00  0.00    +0.000 HD
BRANCH  11  15
ATOM     15  C   UNL     1       6.031   4.211  15.998  0.00  0.00    +0.000 C 
BRANCH  15  17
ATOM     16  C   UNL     1       5.508   5.898  14.154  0.00  0.00    +0.000 C 
ATOM     17  C   UNL     1       6.446   4.778  14.616  0.00  0.00    +0.000 C 
BRANCH  17  18
ATOM     18  C   UNL     1       6.491   3.677  13.569  0.00  0.00    +0.000 C 
ATOM     19  C   UNL     1       5.437   3.604  12.489  0.00  0.00    +0.000 C 
ATOM     20  C   UNL     1       6.858   3.927  12.122  0.00  0.00    +0.000 C 
ENDBRANCH  17  18
BRANCH  17  21
ATOM     21  O   UNL     1       7.758   5.345  14.758  0.00  0.00    +0.000 OA
ATOM     22  H   UNL     1       7.691   6.292  14.545  0.00  0.00    +0.000 HD
ENDBRANCH  17  21
ENDBRANCH  15  17
ENDBRANCH  11  15
ENDBRANCH   1  12
BRANCH   3  23
ATOM     23  C   UNL     1       2.869   6.188  18.674  0.00  0.00    +0.000 C 
BRANCH  23  24
ATOM     24  C   UNL     1       2.287   7.580  18.797  0.00  0.00    +0.000 A 
ATOM     25  C   UNL     1       1.637   7.969  19.980  0.00  0.00    +0.000 A 
ATOM     26  C   UNL     1       1.111   9.258  20.122  0.00  0.00    +0.000 A 
ATOM     27  C   UNL     1       1.240  10.186  19.082  0.00  0.00    +0.000 A 
ATOM     28  C   UNL     1       1.893   9.805  17.900  0.00  0.00    +0.000 A 
ATOM     29  C   UNL     1       2.413   8.513  17.760  0.00  0.00    +0.000 A 
BRANCH  27  30
ATOM     30  N   UNL     1       0.707  11.501  19.201  0.00  0.00    +0.000 N 
ATOM     31  C   UNL     1      -0.363  11.921  19.967  0.00  0.00    +0.000 A 
ATOM     32  C   UNL     1      -0.547  13.259  19.712  0.00  0.00    +0.000 A 
ATOM     33  C   UNL     1       0.467  13.583  18.802  0.00  0.00    +0.000 A 
ATOM     34  N   UNL     1       1.241  12.540  18.505  0.00  0.00    +0.000 NA
ENDBRANCH  27  30
ENDBRANCH  23  24
ENDBRANCH   3  23
TORSDOF 8
ENDMDL
MODEL 8
REMARK VINA RESULT:      -7.5      1.101      1.843
REMARK  Name = 
REMARK  9 active torsions:
REMARK  status: ('A' for Active; 'I' for Inactive)
REMARK    1  A    between atoms: C_1  and  C_2
REMARK    2  A    between atoms: C_2  and  O_3
REMARK    3  A    between atoms: C_2  and  C_4
REMARK    4  A    between atoms: C_2  and  C_30
REMARK    5  A    between atoms: C_4  and  N_5
REMARK    6  A    between atoms: C_6  and  C_8
REMARK    7  A    between atoms: N_10  and  C_11
REMARK    8  A    between atoms: C_11  and  C_12
REMARK    9  A    between atoms: C_15  and  N_16
REMARK                            x       y       z     vdW  Elec       q    Type
REMARK                         _______ _______ _______ _____ _____    ______ ____
ROOT
ATOM      1  C   UNL     1       6.193   5.798  18.962  0.00  0.00    +0.000 C 
ATOM      2  C   UNL     1       5.472   7.030  18.403  0.00  0.00    +0.000 C 
ATOM      3  N   UNL     1       4.645   6.697  17.218  0.00  0.00    +0.000 N 
ATOM      4  C   UNL     1       5.293   5.747  16.386  0.00  0.00    +0.000 A 
ATOM      5  C   UNL     1       4.764   5.380  15.142  0.00  0.00    +0.000 A 
ATOM      6  C   UNL     1       5.373   4.407  14.338  0.00  0.00    +0.000 A 
ATOM      7  C   UNL     1       6.573   3.825  14.728  0.00  0.00    +0.000 A 
ATOM      8  C   UNL     1       7.157   4.208  15.928  0.00  0.00    +0.000 A 
ATOM      9  C   UNL     1       6.507   5.127  16.757  0.00  0.00    +0.000 A 
ATOM     10  O   UNL     1       7.095   5.270  17.995  0.00  0.00    +0.000 OA
ENDROOT
BRANCH   1  12
ATOM     11  N   UNL     1       5.448   3.461  19.349  0.00  0.00    +0.000 N 
ATOM     12  C   UNL     1       5.169   4.796  19.547  0.00  0.00    +0.000 C 
ATOM     13  O   UNL     1       4.156   5.176  20.129  0.00  0.00    +0.000 OA
ATOM     14  H   UNL     1       6.261   3.223  18.794  0.00  0.00    +0.000 HD
BRANCH  11  15
ATOM     15  C   UNL     1       4.475   2.412  19.605  0.00  0.00    +0.000 C 
BRANCH  15  17
ATOM     16  C   UNL     1       3.903   2.852  17.156  0.00  0.00    +0.000 C 
ATOM     17  C   UNL     1       3.597   2.003  18.394  0.00  0.00    +0.000 C 
BRANCH  17  18
ATOM     18  C   UNL     1       2.120   2.104  18.737  0.00  0.00    +0.000 C 
ATOM     19  C   UNL     1       1.683   2.520  20.123  0.00  0.00    +0.000 C 
ATOM     20  C   UNL     1       1.410   3.423  18.954  0.00  0.00    +0.000 C 
ENDBRANCH  17  18
BRANCH  17  21
ATOM     21  O   UNL     1       3.912   0.640  18.071  0.00  0.00    +0.000 OA
ATOM     22  H   UNL     1       3.671   0.095  18.840  0.00  0.00    +0.000 HD
ENDBRANCH  17  21
ENDBRANCH  15  17
ENDBRANCH  11  15
ENDBRANCH   1  12
BRANCH   3  23
ATOM     23  C   UNL     1       3.215   6.447  17.518  0.00  0.00    +0.000 C 
BRANCH  23  24
ATOM     24  C   UNL     1       2.516   7.589  18.224  0.00  0.00    +0.000 A 
ATOM     25  C   UNL     1       2.253   8.785  17.537  0.00  0.00    +0.000 A 
ATOM     26  C   UNL     1       1.590   9.846  18.165  0.00  0.00    +0.000 A 
ATOM     27  C   UNL     1       1.165   9.718  19.493  0.00  0.00    +0.000 A 
ATOM     28  C   UNL     1       1.419   8.523  20.182  0.00  0.00    +0.000 A 
ATOM     29  C   UNL     1       2.089   7.468  19.552  0.00  0.00    +0.000 A 
BRANCH  27  30
ATOM     30  N   UNL     1       0.494  10.785  20.155  0.00  0.00    +0.000 N 
ATOM     31  C   UNL     1      -0.614  11.491  19.728  0.00  0.00    +0.000 A 
ATOM     32  C   UNL     1      -0.863  12.466  20.665  0.00  0.00    +0.000 A 
ATOM     33  C   UNL     1       0.121  12.269  21.642  0.00  0.00    +0.000 A 
ATOM     34  N   UNL     1       0.928  11.248  21.358  0.00  0.00    +0.000 NA
ENDBRANCH  27  30
ENDBRANCH  23  24
ENDBRANCH   3  23
TORSDOF 8
ENDMDL
MODEL 9
REMARK VINA RESULT:      -7.4      1.656      4.965
REMARK  Name = 
REMARK  9 active torsions:
REMARK  status: ('A' for Active; 'I' for Inactive)
REMARK    1  A    between atoms: C_1  and  C_2
REMARK    2  A    between atoms: C_2  and  O_3
REMARK    3  A    between atoms: C_2  and  C_4
REMARK    4  A    between atoms: C_2  and  C_30
REMARK    5  A    between atoms: C_4  and  N_5
REMARK    6  A    between atoms: C_6  and  C_8
REMARK    7  A    between atoms: N_10  and  C_11
REMARK    8  A    between atoms: C_11  and  C_12
REMARK    9  A    between atoms: C_15  and  N_16
REMARK                            x       y       z     vdW  Elec       q    Type
REMARK                         _______ _______ _______ _____ _____    ______ ____
ROOT
ATOM      1  C   UNL     1       2.557   3.034  17.215  0.00  0.00    +0.000 C 
ATOM      2  C   UNL     1       1.739   4.330  17.276  0.00  0.00    +0.000 C 
ATOM      3  N   UNL     1       1.864   5.002  18.592  0.00  0.00    +0.000 N 
ATOM      4  C   UNL     1       1.883   4.059  19.653  0.00  0.00    +0.000 A 
ATOM      5  C   UNL     1       1.860   4.464  20.994  0.00  0.00    +0.000 A 
ATOM      6  C   UNL     1       1.929   3.541  22.045  0.00  0.00    +0.000 A 
ATOM      7  C   UNL     1       1.949   2.177  21.782  0.00  0.00    +0.000 A 
ATOM      8  C   UNL     1       1.914   1.737  20.466  0.00  0.00    +0.000 A 
ATOM      9  C   UNL     1       1.917   2.666  19.420  0.00  0.00    +0.000 A 
ATOM     10  O   UNL     1       2.076   2.099  18.175  0.00  0.00    +0.000 OA
ENDROOT
BRANCH   1  12
ATOM     11  N   UNL     1       4.649   3.784  16.107  0.00  0.00    +0.000 N 
ATOM     12  C   UNL     1       4.070   3.351  17.281  0.00  0.00    +0.000 C 
ATOM     13  O   UNL     1       4.717   3.197  18.314  0.00  0.00    +0.000 OA
ATOM     14  H   UNL     1       4.071   3.814  15.275  0.00  0.00    +0.000 HD
BRANCH  11  15
ATOM     15  C   UNL     1       6.089   3.877  15.932  0.00  0.00    +0.000 C 
BRANCH  15  17
ATOM     16  C   UNL     1       7.642   4.754  17.758  0.00  0.00    +0.000 C 
ATOM     17  C   UNL     1       6.761   5.125  16.561  0.00  0.00    +0.000 C 
BRANCH  17  18
ATOM     18  C   UNL     1       5.720   6.148  16.982  0.00  0.00    +0.000 C 
ATOM     19  C   UNL     1       6.084   7.610  17.091  0.00  0.00    +0.000 C 
ATOM     20  C   UNL     1       5.123   7.160  16.028  0.00  0.00    +0.000 C 
ENDBRANCH  17  18
BRANCH  17  21
ATOM     21  O   UNL     1       7.614   5.706  15.562  0.00  0.00    +0.000 OA
ATOM     22  H   UNL     1       7.076   5.842  14.763  0.00  0.00    +0.000 HD
ENDBRANCH  17  21
ENDBRANCH  15  17
ENDBRANCH  11  15
ENDBRANCH   1  12
BRANCH   3  23
ATOM     23  C   UNL     1       2.887   6.073  18.640  0.00  0.00    +0.000 C 
BRANCH  23  24
ATOM     24  C   UNL     1       2.329   7.459  18.885  0.00  0.00    +0.000 A 
ATOM     25  C   UNL     1       2.284   8.394  17.838  0.00  0.00    +0.000 A 
ATOM     26  C   UNL     1       1.753   9.673  18.037  0.00  0.00    +0.000 A 
ATOM     27  C   UNL     1       1.244  10.033  19.291  0.00  0.00    +0.000 A 
ATOM     28  C   UNL     1       1.282   9.102  20.339  0.00  0.00    +0.000 A 
ATOM     29  C   UNL     1       1.819   7.825  20.136  0.00  0.00    +0.000 A 
BRANCH  27  30
ATOM     30  N   UNL     1       0.705  11.331  19.520  0.00  0.00    +0.000 N 
ATOM     31  C   UNL     1       0.431  12.316  18.591  0.00  0.00    +0.000 A 
ATOM     32  C   UNL     1      -0.016  13.417  19.284  0.00  0.00    +0.000 A 
ATOM     33  C   UNL     1      -0.010  13.011  20.624  0.00  0.00    +0.000 A 
ATOM     34  N   UNL     1       0.400  11.752  20.777  0.00  0.00    +0.000 NA
ENDBRANCH  27  30
ENDBRANCH  23  24
ENDBRANCH   3  23
TORSDOF 8
ENDMDL
