MODEL 1
REMARK VINA RESULT:      -8.9      0.000      0.000
REMARK  Name = 
REMARK  7 active torsions:
REMARK  status: ('A' for Active; 'I' for Inactive)
REMARK    1  A    between atoms: C_1  and  C_2
REMARK    2  A    between atoms: C_4  and  C_5
REMARK    3  A    between atoms: C_5  and  O_7
REMARK    4  A    between atoms: N_9  and  C_10
REMARK    5  A    between atoms: C_10  and  C_11
REMARK    6  A    between atoms: C_13  and  O_14
REMARK    7  A    between atoms: O_14  and  C_15
REMARK                            x       y       z     vdW  Elec       q    Type
REMARK                         _______ _______ _______ _____ _____    ______ ____
ROOT
ATOM      1  C   UNL     1       3.717   4.906  18.450  0.00  0.00    +0.000 A 
ATOM      2  C   UNL     1       3.734   4.234  19.662  0.00  0.00    +0.000 A 
ATOM      3  C   UNL     1       2.457   4.057  20.090  0.00  0.00    +0.000 A 
ATOM      4  C   UNL     1       2.143   5.192  20.748  0.00  0.00    +0.000 A 
ATOM      5  C   UNL     1       2.316   6.308  19.909  0.00  0.00    +0.000 A 
ATOM      6  S   UNL     1       1.788   7.864  20.293  0.00  0.00    +0.000 S 
ATOM      7  C   UNL     1       2.037   8.372  18.660  0.00  0.00    +0.000 A 
ATOM      8  N   UNL     1       1.473   9.607  18.350  0.00  0.00    +0.000 N 
ATOM      9  C   UNL     1       2.243  10.757  17.886  0.00  0.00    +0.000 C 
ATOM     10  C   UNL     1       1.793  12.058  18.549  0.00  0.00    +0.000 C 
ATOM     11  C   UNL     1       0.719  12.217  19.339  0.00  0.00    +0.000 C 
ATOM     12  C   UNL     1      -0.199  11.066  19.606  0.00  0.00    +0.000 C 
ATOM     13  C   UNL     1       0.041   9.885  18.636  0.00  0.00    +0.000 C 
ATOM     14  N   UNL     1       2.757   7.477  17.937  0.00  0.00    +0.000 NA
ATOM     15  C   UNL     1       2.988   6.219  18.653  0.00  0.00    +0.000 A 
ENDROOT
BRANCH   1  16
ATOM     16  C   UNL     1       4.245   3.919  17.315  0.00  0.00    +0.000 C 
BRANCH  16  22
ATOM     17  C   UNL     1       7.088   5.228  18.417  0.00  0.00    +0.000 C 
ATOM     18  C   UNL     1       6.712   4.957  17.013  0.00  0.00    +0.000 A 
ATOM     19  C   UNL     1       7.513   5.261  15.927  0.00  0.00    +0.000 A 
ATOM     20  C   UNL     1       6.868   4.737  14.806  0.00  0.00    +0.000 A 
ATOM     21  N   UNL     1       5.756   4.066  15.168  0.00  0.00    +0.000 NA
ATOM     22  N   UNL     1       5.544   4.365  16.525  0.00  0.00    +0.000 N 
BRANCH  20  23
ATOM     23  C   UNL     1       7.364   4.868  13.404  0.00  0.00    +0.000 C 
ATOM     24  O   UNL     1       6.953   4.216  12.457  0.00  0.00    +0.000 OA
BRANCH  23  25
ATOM     25  O   UNL     1       8.356   5.795  13.275  0.00  0.00    +0.000 OA
ATOM     26  H   UNL     1       9.196   5.432  13.637  0.00  0.00    +0.000 HD
ENDBRANCH  23  25
ENDBRANCH  20  23
ENDBRANCH  16  22
ENDBRANCH   1  16
BRANCH   3  27
ATOM     27  O   UNL     1       1.644   3.698  18.973  0.00  0.00    +0.000 OA
BRANCH  27  28
ATOM     28  C   UNL     1       1.304   2.355  18.738  0.00  0.00    +0.000 C 
ATOM     29  F   UNL     1      -0.018   2.234  18.538  0.00  0.00    +0.000 F 
ATOM     30  F   UNL     1       1.989   1.845  17.695  0.00  0.00    +0.000 F 
ATOM     31  F   UNL     1       1.642   1.645  19.841  0.00  0.00    +0.000 F 
ENDBRANCH  27  28
ENDBRANCH   3  27
TORSDOF 6
ENDMDL
MODEL 2
REMARK VINA RESULT:      -7.7      1.136      1.352
REMARK  Name = 
REMARK  7 active torsions:
REMARK  status: ('A' for Active; 'I' for Inactive)
REMARK    1  A    between atoms: C_1  and  C_2
REMARK    2  A    between atoms: C_4  and  C_5
REMARK    3  A    between atoms: C_5  and  O_7
REMARK    4  A    between atoms: N_9  and  C_10
REMARK    5  A    between atoms: C_10  and  C_11
REMARK    6  A    between atoms: C_13  and  O_14
REMARK    7  A    between atoms: O_14  and  C_15
REMARK                            x       y       z     vdW  Elec       q    Type
REMARK                         _______ _______ _______ _____ _____    ______ ____
ROOT
ATOM      1  C   UNL     1       4.212   5.007  19.210  0.00  0.00    +0.000 A 
ATOM      2  C   UNL     1       3.786   4.286  20.315  0.00  0.00    +0.000 A 
ATOM      3  C   UNL     1       2.477   3.960  20.155  0.00  0.00    +0.000 A 
ATOM      4  C   UNL     1       1.788   5.026  20.611  0.00  0.00    +0.000 A 
ATOM      5  C   UNL     1       2.175   6.191  19.923  0.00  0.00    +0.000 A 
ATOM      6  S   UNL     1       1.364   7.665  20.039  0.00  0.00    +0.000 S 
ATOM      7  C   UNL     1       2.226   8.269  18.669  0.00  0.00    +0.000 A 
ATOM      8  N   UNL     1       1.714   9.452  18.144  0.00  0.00    +0.000 N 
ATOM      9  C   UNL     1       2.474  10.695  18.051  0.00  0.00    +0.000 C 
ATOM     10  C   UNL     1       1.642  11.912  18.453  0.00  0.00    +0.000 C 
ATOM     11  C   UNL     1       0.323  11.925  18.706  0.00  0.00    +0.000 C 
ATOM     12  C   UNL     1      -0.485  10.674  18.557  0.00  0.00    +0.000 C 
ATOM     13  C   UNL     1       0.276   9.569  17.787  0.00  0.00    +0.000 C 
ATOM     14  N   UNL     1       3.281   7.486  18.327  0.00  0.00    +0.000 NA
ATOM     15  C   UNL     1       3.324   6.228  19.078  0.00  0.00    +0.000 A 
ENDROOT
BRANCH   1  16
ATOM     16  C   UNL     1       5.280   4.131  18.414  0.00  0.00    +0.000 C 
BRANCH  16  22
ATOM     17  C   UNL     1       6.411   6.983  17.150  0.00  0.00    +0.000 C 
ATOM     18  C   UNL     1       6.004   5.773  16.405  0.00  0.00    +0.000 A 
ATOM     19  C   UNL     1       6.003   5.680  15.025  0.00  0.00    +0.000 A 
ATOM     20  C   UNL     1       5.684   4.356  14.721  0.00  0.00    +0.000 A 
ATOM     21  N   UNL     1       5.565   3.625  15.849  0.00  0.00    +0.000 NA
ATOM     22  N   UNL     1       5.569   4.546  16.912  0.00  0.00    +0.000 N 
BRANCH  20  23
ATOM     23  C   UNL     1       5.535   3.815  13.338  0.00  0.00    +0.000 C 
ATOM     24  O   UNL     1       4.524   3.909  12.660  0.00  0.00    +0.000 OA
BRANCH  23  25
ATOM     25  O   UNL     1       6.653   3.173  12.894  0.00  0.00    +0.000 OA
ATOM     26  H   UNL     1       7.355   3.833  12.697  0.00  0.00    +0.000 HD
ENDBRANCH  23  25
ENDBRANCH  20  23
ENDBRANCH  16  22
ENDBRANCH   1  16
BRANCH   3  27
ATOM     27  O   UNL     1       2.264   3.570  18.798  0.00  0.00    +0.000 OA
BRANCH  27  28
ATOM     28  C   UNL     1       2.045   2.222  18.467  0.00  0.00    +0.000 C 
ATOM     29  F   UNL     1       2.337   2.003  17.175  0.00  0.00    +0.000 F 
ATOM     30  F   UNL     1       2.755   1.396  19.259  0.00  0.00    +0.000 F 
ATOM     31  F   UNL     1       0.732   1.958  18.665  0.00  0.00    +0.000 F 
ENDBRANCH  27  28
ENDBRANCH   3  27
TORSDOF 6
ENDMDL
MODEL 3
REMARK VINA RESULT:      -7.4      1.918      2.505
REMARK  Name = 
REMARK  7 active torsions:
REMARK  status: ('A' for Active; 'I' for Inactive)
REMARK    1  A    between atoms: C_1  and  C_2
REMARK    2  A    between atoms: C_4  and  C_5
REMARK    3  A    between atoms: C_5  and  O_7
REMARK    4  A    between atoms: N_9  and  C_10
REMARK    5  A    between atoms: C_10  and  C_11
REMARK    6  A    between atoms: C_13  and  O_14
REMARK    7  A    between atoms: O_14  and  C_15
REMARK                            x       y       z     vdW  Elec       q    Type
REMARK                         _______ _______ _______ _____ _____    ______ ____
ROOT
ATOM      1  C   UNL     1       3.407   5.439  19.269  0.00  0.00    +0.000 A 
ATOM      2  C   UNL     1       3.188   4.634  20.376  0.00  0.00    +0.000 A 
ATOM      3  C   UNL     1       1.868   4.324  20.447  0.00  0.00    +0.000 A 
ATOM      4  C   UNL     1       1.297   5.351  21.107  0.00  0.00    +0.000 A 
ATOM      5  C   UNL     1       1.565   6.566  20.450  0.00  0.00    +0.000 A 
ATOM      6  S   UNL     1       0.815   8.028  20.833  0.00  0.00    +0.000 S 
ATOM      7  C   UNL     1       1.409   8.737  19.373  0.00  0.00    +0.000 A 
ATOM      8  N   UNL     1       0.825   9.959  19.049  0.00  0.00    +0.000 N 
ATOM      9  C   UNL     1       1.574  11.204  18.907  0.00  0.00    +0.000 C 
ATOM     10  C   UNL     1       0.855  12.386  19.554  0.00  0.00    +0.000 C 
ATOM     11  C   UNL     1      -0.391  12.381  20.057  0.00  0.00    +0.000 C 
ATOM     12  C   UNL     1      -1.234  11.147  19.971  0.00  0.00    +0.000 C 
ATOM     13  C   UNL     1      -0.653  10.105  18.986  0.00  0.00    +0.000 C 
ATOM     14  N   UNL     1       2.365   7.982  18.775  0.00  0.00    +0.000 NA
ATOM     15  C   UNL     1       2.530   6.668  19.404  0.00  0.00    +0.000 A 
ENDROOT
BRANCH   1  16
ATOM     16  C   UNL     1       4.287   4.627  18.217  0.00  0.00    +0.000 C 
BRANCH  16  22
ATOM     17  C   UNL     1       6.175   3.899  15.587  0.00  0.00    +0.000 C 
ATOM     18  C   UNL     1       6.368   5.005  16.548  0.00  0.00    +0.000 A 
ATOM     19  C   UNL     1       7.426   5.895  16.499  0.00  0.00    +0.000 A 
ATOM     20  C   UNL     1       7.180   6.852  17.484  0.00  0.00    +0.000 A 
ATOM     21  N   UNL     1       5.988   6.628  18.077  0.00  0.00    +0.000 NA
ATOM     22  N   UNL     1       5.565   5.362  17.634  0.00  0.00    +0.000 N 
BRANCH  20  23
ATOM     23  C   UNL     1       8.091   7.988  17.810  0.00  0.00    +0.000 C 
ATOM     24  O   UNL     1       8.241   8.980  17.114  0.00  0.00    +0.000 OA
BRANCH  23  25
ATOM     25  O   UNL     1       8.772   7.807  18.977  0.00  0.00    +0.000 OA
ATOM     26  H   UNL     1       8.342   7.095  19.502  0.00  0.00    +0.000 HD
ENDBRANCH  23  25
ENDBRANCH  20  23
ENDBRANCH  16  22
ENDBRANCH   1  16
BRANCH   3  27
ATOM     27  O   UNL     1       1.392   4.042  19.130  0.00  0.00    +0.000 OA
BRANCH  27  28
ATOM     28  C   UNL     1       1.289   2.717  18.675  0.00  0.00    +0.000 C 
ATOM     29  F   UNL     1       1.911   1.881  19.522  0.00  0.00    +0.000 F 
ATOM     30  F   UNL     1       0.004   2.349  18.506  0.00  0.00    +0.000 F 
ATOM     31  F   UNL     1       1.901   2.647  17.469  0.00  0.00    +0.000 F 
ENDBRANCH  27  28
ENDBRANCH   3  27
TORSDOF 6
ENDMDL
MODEL 4
REMARK VINA RESULT:      -7.1      5.172      9.842
REMARK  Name = 
REMARK  7 active torsions:
REMARK  status: ('A' for Active; 'I' for Inactive)
REMARK    1  A    between atoms: C_1  and  C_2
REMARK    2  A    between atoms: C_4  and  C_5
REMARK    3  A    between atoms: C_5  and  O_7
REMARK    4  A    between atoms: N_9  and  C_10
REMARK    5  A    between atoms: C_10  and  C_11
REMARK    6  A    between atoms: C_13  and  O_14
REMARK    7  A    between atoms: O_14  and  C_15
REMARK                            x       y       z     vdW  Elec       q    Type
REMARK                         _______ _______ _______ _____ _____    ______ ____
ROOT
ATOM      1  C   UNL     1       0.439  10.148  20.681  0.00  0.00    +0.000 A 
ATOM      2  C   UNL     1       0.666  11.264  19.891  0.00  0.00    +0.000 A 
ATOM      3  C   UNL     1       0.212  11.020  18.635  0.00  0.00    +0.000 A 
ATOM      4  C   UNL     1       1.226  10.394  18.005  0.00  0.00    +0.000 A 
ATOM      5  C   UNL     1       1.603   9.237  18.712  0.00  0.00    +0.000 A 
ATOM      6  S   UNL     1       2.658   8.068  18.109  0.00  0.00    +0.000 S 
ATOM      7  C   UNL     1       2.201   6.977  19.368  0.00  0.00    +0.000 A 
ATOM      8  N   UNL     1       2.626   5.666  19.176  0.00  0.00    +0.000 N 
ATOM      9  C   UNL     1       3.507   4.954  20.098  0.00  0.00    +0.000 C 
ATOM     10  C   UNL     1       4.578   4.148  19.366  0.00  0.00    +0.000 C 
ATOM     11  C   UNL     1       4.652   3.941  18.041  0.00  0.00    +0.000 C 
ATOM     12  C   UNL     1       3.593   4.484  17.133  0.00  0.00    +0.000 C 
ATOM     13  C   UNL     1       2.335   4.948  17.907  0.00  0.00    +0.000 C 
ATOM     14  N   UNL     1       1.497   7.585  20.358  0.00  0.00    +0.000 NA
ATOM     15  C   UNL     1       1.135   8.968  20.033  0.00  0.00    +0.000 A 
ENDROOT
BRANCH   1  16
ATOM     16  C   UNL     1      -0.647  10.521  21.786  0.00  0.00    +0.000 C 
BRANCH  16  22
ATOM     17  C   UNL     1      -2.969  12.468  20.434  0.00  0.00    +0.000 C 
ATOM     18  C   UNL     1      -1.908  12.867  21.382  0.00  0.00    +0.000 A 
ATOM     19  C   UNL     1      -1.711  14.165  21.819  0.00  0.00    +0.000 A 
ATOM     20  C   UNL     1      -0.712  14.104  22.791  0.00  0.00    +0.000 A 
ATOM     21  N   UNL     1      -0.347  12.825  23.018  0.00  0.00    +0.000 NA
ATOM     22  N   UNL     1      -0.949  12.063  22.002  0.00  0.00    +0.000 N 
BRANCH  20  23
ATOM     23  C   UNL     1      -0.153  15.288  23.508  0.00  0.00    +0.000 C 
ATOM     24  O   UNL     1       0.703  16.032  23.058  0.00  0.00    +0.000 OA
BRANCH  23  25
ATOM     25  O   UNL     1      -0.687  15.458  24.751  0.00  0.00    +0.000 OA
ATOM     26  H   UNL     1      -1.394  14.790  24.901  0.00  0.00    +0.000 HD
ENDBRANCH  23  25
ENDBRANCH  20  23
ENDBRANCH  16  22
ENDBRANCH   1  16
BRANCH   3  27
ATOM     27  O   UNL     1      -1.034  10.327  18.724  0.00  0.00    +0.000 OA
BRANCH  27  28
ATOM     28  C   UNL     1      -1.924  10.313  17.638  0.00  0.00    +0.000 C 
ATOM     29  F   UNL     1      -2.022  11.538  17.095  0.00  0.00    +0.000 F 
ATOM     30  F   UNL     1      -1.556   9.411  16.707  0.00  0.00    +0.000 F 
ATOM     31  F   UNL     1      -3.142   9.949  18.107  0.00  0.00    +0.000 F 
ENDBRANCH  27  28
ENDBRANCH   3  27
TORSDOF 6
ENDMDL
MODEL 5
REMARK VINA RESULT:      -7.1      6.816      9.271
REMARK  Name = 
REMARK  7 active torsions:
REMARK  status: ('A' for Active; 'I' for Inactive)
REMARK    1  A    between atoms: C_1  and  C_2
REMARK    2  A    between atoms: C_4  and  C_5
REMARK    3  A    between atoms: C_5  and  O_7
REMARK    4  A    between atoms: N_9  and  C_10
REMARK    5  A    between atoms: C_10  and  C_11
REMARK    6  A    between atoms: C_13  and  O_14
REMARK    7  A    between atoms: O_14  and  C_15
REMARK                            x       y       z     vdW  Elec       q    Type
REMARK                         _______ _______ _______ _____ _____    ______ ____
ROOT
ATOM      1  C   UNL     1      -1.281  11.266  19.391  0.00  0.00    +0.000 A 
ATOM      2  C   UNL     1       0.076  11.460  19.186  0.00  0.00    +0.000 A 
ATOM      3  C   UNL     1       0.744  11.181  20.335  0.00  0.00    +0.000 A 
ATOM      4  C   UNL     1       0.711  12.324  21.051  0.00  0.00    +0.000 A 
ATOM      5  C   UNL     1      -0.618  12.740  21.248  0.00  0.00    +0.000 A 
ATOM      6  S   UNL     1      -1.070  13.978  22.301  0.00  0.00    +0.000 S 
ATOM      7  C   UNL     1      -2.726  13.500  22.184  0.00  0.00    +0.000 A 
ATOM      8  N   UNL     1      -3.561  14.085  23.132  0.00  0.00    +0.000 N 
ATOM      9  C   UNL     1      -4.707  14.925  22.796  0.00  0.00    +0.000 C 
ATOM     10  C   UNL     1      -4.804  16.155  23.697  0.00  0.00    +0.000 C 
ATOM     11  C   UNL     1      -4.060  16.402  24.789  0.00  0.00    +0.000 C 
ATOM     12  C   UNL     1      -3.049  15.402  25.254  0.00  0.00    +0.000 C 
ATOM     13  C   UNL     1      -3.234  14.021  24.580  0.00  0.00    +0.000 C 
ATOM     14  N   UNL     1      -2.949  12.625  21.170  0.00  0.00    +0.000 NA
ATOM     15  C   UNL     1      -1.711  12.155  20.540  0.00  0.00    +0.000 A 
ENDROOT
BRANCH   1  16
ATOM     16  C   UNL     1      -1.755  10.025  18.510  0.00  0.00    +0.000 C 
BRANCH  16  22
ATOM     17  C   UNL     1      -4.557  11.790  18.293  0.00  0.00    +0.000 C 
ATOM     18  C   UNL     1      -3.875  11.057  17.206  0.00  0.00    +0.000 A 
ATOM     19  C   UNL     1      -4.355  10.974  15.911  0.00  0.00    +0.000 A 
ATOM     20  C   UNL     1      -3.372  10.317  15.170  0.00  0.00    +0.000 A 
ATOM     21  N   UNL     1      -2.290  10.064  15.935  0.00  0.00    +0.000 NA
ATOM     22  N   UNL     1      -2.673  10.346  17.258  0.00  0.00    +0.000 N 
BRANCH  20  23
ATOM     23  C   UNL     1      -3.488   9.976  13.722  0.00  0.00    +0.000 C 
ATOM     24  O   UNL     1      -4.541   9.892  13.109  0.00  0.00    +0.000 OA
BRANCH  23  25
ATOM     25  O   UNL     1      -2.281   9.745  13.132  0.00  0.00    +0.000 OA
ATOM     26  H   UNL     1      -1.594   9.614  13.824  0.00  0.00    +0.000 HD
ENDBRANCH  23  25
ENDBRANCH  20  23
ENDBRANCH  16  22
ENDBRANCH   1  16
BRANCH   3  27
ATOM     27  O   UNL     1       0.170  10.016  20.929  0.00  0.00    +0.000 OA
BRANCH  27  28
ATOM     28  C   UNL     1       0.950   8.868  21.150  0.00  0.00    +0.000 C 
ATOM     29  F   UNL     1       1.681   8.582  20.061  0.00  0.00    +0.000 F 
ATOM     30  F   UNL     1       1.744   9.008  22.230  0.00  0.00    +0.000 F 
ATOM     31  F   UNL     1       0.105   7.837  21.389  0.00  0.00    +0.000 F 
ENDBRANCH  27  28
ENDBRANCH   3  27
TORSDOF 6
ENDMDL
MODEL 6
REMARK VINA RESULT:      -7.0      5.075      9.592
REMARK  Name = 
REMARK  7 active torsions:
REMARK  status: ('A' for Active; 'I' for Inactive)
REMARK    1  A    between atoms: C_1  and  C_2
REMARK    2  A    between atoms: C_4  and  C_5
REMARK    3  A    between atoms: C_5  and  O_7
REMARK    4  A    between atoms: N_9  and  C_10
REMARK    5  A    between atoms: C_10  and  C_11
REMARK    6  A    between atoms: C_13  and  O_14
REMARK    7  A    between atoms: O_14  and  C_15
REMARK                            x       y       z     vdW  Elec       q    Type
REMARK                         _______ _______ _______ _____ _____    ______ ____
ROOT
ATOM      1  C   UNL     1       0.794  10.040  20.614  0.00  0.00    +0.000 A 
ATOM      2  C   UNL     1       1.117  11.057  19.729  0.00  0.00    +0.000 A 
ATOM      3  C   UNL     1       0.578  10.777  18.514  0.00  0.00    +0.000 A 
ATOM      4  C   UNL     1       1.481   9.985  17.900  0.00  0.00    +0.000 A 
ATOM      5  C   UNL     1       1.748   8.847  18.684  0.00  0.00    +0.000 A 
ATOM      6  S   UNL     1       2.627   7.515  18.138  0.00  0.00    +0.000 S 
ATOM      7  C   UNL     1       2.100   6.587  19.497  0.00  0.00    +0.000 A 
ATOM      8  N   UNL     1       2.356   5.222  19.395  0.00  0.00    +0.000 N 
ATOM      9  C   UNL     1       3.187   4.479  20.339  0.00  0.00    +0.000 C 
ATOM     10  C   UNL     1       4.119   3.495  19.636  0.00  0.00    +0.000 C 
ATOM     11  C   UNL     1       4.106   3.181  18.329  0.00  0.00    +0.000 C 
ATOM     12  C   UNL     1       3.079   3.780  17.421  0.00  0.00    +0.000 C 
ATOM     13  C   UNL     1       1.923   4.452  18.200  0.00  0.00    +0.000 C 
ATOM     14  N   UNL     1       1.521   7.349  20.460  0.00  0.00    +0.000 NA
ATOM     15  C   UNL     1       1.313   8.738  20.039  0.00  0.00    +0.000 A 
ENDROOT
BRANCH   1  16
ATOM     16  C   UNL     1      -0.187  10.626  21.725  0.00  0.00    +0.000 C 
BRANCH  16  22
ATOM     17  C   UNL     1      -2.817  12.389  20.728  0.00  0.00    +0.000 C 
ATOM     18  C   UNL     1      -1.533  12.910  21.243  0.00  0.00    +0.000 A 
ATOM     19  C   UNL     1      -1.232  14.256  21.345  0.00  0.00    +0.000 A 
ATOM     20  C   UNL     1       0.004  14.334  21.988  0.00  0.00    +0.000 A 
ATOM     21  N   UNL     1       0.430  13.106  22.348  0.00  0.00    +0.000 NA
ATOM     22  N   UNL     1      -0.429  12.193  21.712  0.00  0.00    +0.000 N 
BRANCH  20  23
ATOM     23  C   UNL     1       0.733  15.604  22.273  0.00  0.00    +0.000 C 
ATOM     24  O   UNL     1       1.634  15.721  23.089  0.00  0.00    +0.000 OA
BRANCH  23  25
ATOM     25  O   UNL     1       0.279  16.656  21.534  0.00  0.00    +0.000 OA
ATOM     26  H   UNL     1       0.125  16.366  20.607  0.00  0.00    +0.000 HD
ENDBRANCH  23  25
ENDBRANCH  20  23
ENDBRANCH  16  22
ENDBRANCH   1  16
BRANCH   3  27
ATOM     27  O   UNL     1      -0.736  10.251  18.705  0.00  0.00    +0.000 OA
BRANCH  27  28
ATOM     28  C   UNL     1      -1.734  10.452  17.737  0.00  0.00    +0.000 C 
ATOM     29  F   UNL     1      -2.937  10.114  18.227  0.00  0.00    +0.000 F 
ATOM     30  F   UNL     1      -1.745  11.724  17.292  0.00  0.00    +0.000 F 
ATOM     31  F   UNL     1      -1.453   9.648  16.683  0.00  0.00    +0.000 F 
ENDBRANCH  27  28
ENDBRANCH   3  27
TORSDOF 6
ENDMDL
MODEL 7
REMARK VINA RESULT:      -7.0      5.079      9.178
REMARK  Name = 
REMARK  7 active torsions:
REMARK  status: ('A' for Active; 'I' for Inactive)
REMARK    1  A    between atoms: C_1  and  C_2
REMARK    2  A    between atoms: C_4  and  C_5
REMARK    3  A    between atoms: C_5  and  O_7
REMARK    4  A    between atoms: N_9  and  C_10
REMARK    5  A    between atoms: C_10  and  C_11
REMARK    6  A    between atoms: C_13  and  O_14
REMARK    7  A    between atoms: O_14  and  C_15
REMARK                            x       y       z     vdW  Elec       q    Type
REMARK                         _______ _______ _______ _____ _____    ______ ____
ROOT
ATOM      1  C   UNL     1       0.975   9.464  20.353  0.00  0.00    +0.000 A 
ATOM      2  C   UNL     1       1.433  10.352  19.393  0.00  0.00    +0.000 A 
ATOM      3  C   UNL     1       0.946   9.985  18.180  0.00  0.00    +0.000 A 
ATOM      4  C   UNL     1       1.814   9.066  17.712  0.00  0.00    +0.000 A 
ATOM      5  C   UNL     1       1.939   8.001  18.624  0.00  0.00    +0.000 A 
ATOM      6  S   UNL     1       2.736   6.555  18.278  0.00  0.00    +0.000 S 
ATOM      7  C   UNL     1       2.054   5.821  19.685  0.00  0.00    +0.000 A 
ATOM      8  N   UNL     1       2.201   4.437  19.741  0.00  0.00    +0.000 N 
ATOM      9  C   UNL     1       2.910   3.739  20.809  0.00  0.00    +0.000 C 
ATOM     10  C   UNL     1       3.797   2.616  20.275  0.00  0.00    +0.000 C 
ATOM     11  C   UNL     1       3.836   2.166  19.009  0.00  0.00    +0.000 C 
ATOM     12  C   UNL     1       2.918   2.741  17.977  0.00  0.00    +0.000 C 
ATOM     13  C   UNL     1       1.778   3.579  18.604  0.00  0.00    +0.000 C 
ATOM     14  N   UNL     1       1.483   6.724  20.524  0.00  0.00    +0.000 NA
ATOM     15  C   UNL     1       1.417   8.071  19.950  0.00  0.00    +0.000 A 
ENDROOT
BRANCH   1  16
ATOM     16  C   UNL     1      -0.019  10.238  21.329  0.00  0.00    +0.000 C 
BRANCH  16  22
ATOM     17  C   UNL     1      -2.470  12.404  20.766  0.00  0.00    +0.000 C 
ATOM     18  C   UNL     1      -1.039  12.707  20.980  0.00  0.00    +0.000 A 
ATOM     19  C   UNL     1      -0.505  13.982  20.934  0.00  0.00    +0.000 A 
ATOM     20  C   UNL     1       0.833  13.861  21.312  0.00  0.00    +0.000 A 
ATOM     21  N   UNL     1       1.115  12.588  21.657  0.00  0.00    +0.000 NA
ATOM     22  N   UNL     1       0.004  11.822  21.265  0.00  0.00    +0.000 N 
BRANCH  20  23
ATOM     23  C   UNL     1       1.805  14.992  21.364  0.00  0.00    +0.000 C 
ATOM     24  O   UNL     1       1.871  15.892  20.541  0.00  0.00    +0.000 OA
BRANCH  23  25
ATOM     25  O   UNL     1       2.648  14.921  22.434  0.00  0.00    +0.000 OA
ATOM     26  H   UNL     1       2.496  15.691  23.026  0.00  0.00    +0.000 HD
ENDBRANCH  23  25
ENDBRANCH  20  23
ENDBRANCH  16  22
ENDBRANCH   1  16
BRANCH   3  27
ATOM     27  O   UNL     1      -0.416   9.585  18.334  0.00  0.00    +0.000 OA
BRANCH  27  28
ATOM     28  C   UNL     1      -1.454  10.349  17.773  0.00  0.00    +0.000 C 
ATOM     29  F   UNL     1      -2.606  10.126  18.426  0.00  0.00    +0.000 F 
ATOM     30  F   UNL     1      -1.157  11.663  17.771  0.00  0.00    +0.000 F 
ATOM     31  F   UNL     1      -1.603   9.957  16.485  0.00  0.00    +0.000 F 
ENDBRANCH  27  28
ENDBRANCH   3  27
TORSDOF 6
ENDMDL
MODEL 8
REMARK VINA RESULT:      -7.0      4.140      6.005
REMARK  Name = 
REMARK  7 active torsions:
REMARK  status: ('A' for Active; 'I' for Inactive)
REMARK    1  A    between atoms: C_1  and  C_2
REMARK    2  A    between atoms: C_4  and  C_5
REMARK    3  A    between atoms: C_5  and  O_7
REMARK    4  A    between atoms: N_9  and  C_10
REMARK    5  A    between atoms: C_10  and  C_11
REMARK    6  A    between atoms: C_13  and  O_14
REMARK    7  A    between atoms: O_14  and  C_15
REMARK                            x       y       z     vdW  Elec       q    Type
REMARK                         _______ _______ _______ _____ _____    ______ ____
ROOT
ATOM      1  C   UNL     1       1.617   9.613  18.522  0.00  0.00    +0.000 A 
ATOM      2  C   UNL     1       0.681   9.336  19.506  0.00  0.00    +0.000 A 
ATOM      3  C   UNL     1      -0.415  10.112  19.308  0.00  0.00    +0.000 A 
ATOM      4  C   UNL     1      -0.142  11.278  19.927  0.00  0.00    +0.000 A 
ATOM      5  C   UNL     1       1.050  11.832  19.423  0.00  0.00    +0.000 A 
ATOM      6  S   UNL     1       1.581  13.395  19.770  0.00  0.00    +0.000 S 
ATOM      7  C   UNL     1       2.751  13.299  18.503  0.00  0.00    +0.000 A 
ATOM      8  N   UNL     1       3.338  14.517  18.169  0.00  0.00    +0.000 N 
ATOM      9  C   UNL     1       4.770  14.781  18.262  0.00  0.00    +0.000 C 
ATOM     10  C   UNL     1       5.066  16.159  18.852  0.00  0.00    +0.000 C 
ATOM     11  C   UNL     1       4.166  17.122  19.114  0.00  0.00    +0.000 C 
ATOM     12  C   UNL     1       2.722  16.915  18.781  0.00  0.00    +0.000 C 
ATOM     13  C   UNL     1       2.502  15.703  17.845  0.00  0.00    +0.000 C 
ATOM     14  N   UNL     1       2.917  12.035  18.037  0.00  0.00    +0.000 NA
ATOM     15  C   UNL     1       1.938  11.093  18.585  0.00  0.00    +0.000 A 
ENDROOT
BRANCH   1  16
ATOM     16  C   UNL     1       1.773   8.327  17.593  0.00  0.00    +0.000 C 
BRANCH  16  22
ATOM     17  C   UNL     1       2.060   5.992  19.934  0.00  0.00    +0.000 C 
ATOM     18  C   UNL     1       3.082   6.401  18.948  0.00  0.00    +0.000 A 
ATOM     19  C   UNL     1       4.358   5.870  18.894  0.00  0.00    +0.000 A 
ATOM     20  C   UNL     1       4.962   6.415  17.760  0.00  0.00    +0.000 A 
ATOM     21  N   UNL     1       4.090   7.190  17.084  0.00  0.00    +0.000 NA
ATOM     22  N   UNL     1       2.973   7.345  17.924  0.00  0.00    +0.000 N 
BRANCH  20  23
ATOM     23  C   UNL     1       6.366   6.144  17.333  0.00  0.00    +0.000 C 
ATOM     24  O   UNL     1       7.081   6.941  16.747  0.00  0.00    +0.000 OA
BRANCH  23  25
ATOM     25  O   UNL     1       6.786   4.886  17.651  0.00  0.00    +0.000 OA
ATOM     26  H   UNL     1       6.845   4.794  18.628  0.00  0.00    +0.000 HD
ENDBRANCH  23  25
ENDBRANCH  20  23
ENDBRANCH  16  22
ENDBRANCH   1  16
BRANCH   3  27
ATOM     27  O   UNL     1      -0.697  10.160  17.909  0.00  0.00    +0.000 OA
BRANCH  27  28
ATOM     28  C   UNL     1      -2.019  10.277  17.449  0.00  0.00    +0.000 C 
ATOM     29  F   UNL     1      -2.853   9.578  18.236  0.00  0.00    +0.000 F 
ATOM     30  F   UNL     1      -2.406  11.565  17.375  0.00  0.00    +0.000 F 
ATOM     31  F   UNL     1      -2.068   9.759  16.198  0.00  0.00    +0.000 F 
ENDBRANCH  27  28
ENDBRANCH   3  27
TORSDOF 6
ENDMDL
MODEL 9
REMARK VINA RESULT:      -7.0      8.053     11.543
REMARK  Name = 
REMARK  7 active torsions:
REMARK  status: ('A' for Active; 'I' for Inactive)
REMARK    1  A    between atoms: C_1  and  C_2
REMARK    2  A    between atoms: C_4  and  C_5
REMARK    3  A    between atoms: C_5  and  O_7
REMARK    4  A    between atoms: N_9  and  C_10
REMARK    5  A    between atoms: C_10  and  C_11
REMARK    6  A    between atoms: C_13  and  O_14
REMARK    7  A    between atoms: O_14  and  C_15
REMARK                            x       y       z     vdW  Elec       q    Type
REMARK                         _______ _______ _______ _____ _____    ______ ____
ROOT
ATOM      1  C   UNL     1      -0.804  12.758  22.185  0.00  0.00    +0.000 A 
ATOM      2  C   UNL     1      -1.242  11.883  21.202  0.00  0.00    +0.000 A 
ATOM      3  C   UNL     1      -0.264  10.977  20.946  0.00  0.00    +0.000 A 
ATOM      4  C   UNL     1       0.535  11.566  20.034  0.00  0.00    +0.000 A 
ATOM      5  C   UNL     1       1.010  12.798  20.522  0.00  0.00    +0.000 A 
ATOM      6  S   UNL     1       2.226  13.699  19.777  0.00  0.00    +0.000 S 
ATOM      7  C   UNL     1       2.381  14.689  21.184  0.00  0.00    +0.000 A 
ATOM      8  N   UNL     1       3.512  15.501  21.194  0.00  0.00    +0.000 N 
ATOM      9  C   UNL     1       3.465  16.958  21.264  0.00  0.00    +0.000 C 
ATOM     10  C   UNL     1       4.465  17.614  20.313  0.00  0.00    +0.000 C 
ATOM     11  C   UNL     1       5.416  16.986  19.601  0.00  0.00    +0.000 C 
ATOM     12  C   UNL     1       5.602  15.507  19.733  0.00  0.00    +0.000 C 
ATOM     13  C   UNL     1       4.864  14.928  20.964  0.00  0.00    +0.000 C 
ATOM     14  N   UNL     1       1.358  14.519  22.060  0.00  0.00    +0.000 NA
ATOM     15  C   UNL     1       0.473  13.409  21.694  0.00  0.00    +0.000 A 
ENDROOT
BRANCH   1  16
ATOM     16  C   UNL     1      -1.680  12.528  23.496  0.00  0.00    +0.000 C 
BRANCH  16  22
ATOM     17  C   UNL     1      -2.820  15.531  22.665  0.00  0.00    +0.000 C 
ATOM     18  C   UNL     1      -3.605  14.383  23.166  0.00  0.00    +0.000 A 
ATOM     19  C   UNL     1      -4.968  14.423  23.400  0.00  0.00    +0.000 A 
ATOM     20  C   UNL     1      -5.346  13.123  23.735  0.00  0.00    +0.000 A 
ATOM     21  N   UNL     1      -4.295  12.283  23.642  0.00  0.00    +0.000 NA
ATOM     22  N   UNL     1      -3.160  13.096  23.479  0.00  0.00    +0.000 N 
BRANCH  20  23
ATOM     23  C   UNL     1      -6.732  12.712  24.106  0.00  0.00    +0.000 C 
ATOM     24  O   UNL     1      -7.203  11.601  23.915  0.00  0.00    +0.000 OA
BRANCH  23  25
ATOM     25  O   UNL     1      -7.451  13.720  24.678  0.00  0.00    +0.000 OA
ATOM     26  H   UNL     1      -7.109  14.587  24.365  0.00  0.00    +0.000 HD
ENDBRANCH  23  25
ENDBRANCH  20  23
ENDBRANCH  16  22
ENDBRANCH   1  16
BRANCH   3  27
ATOM     27  O   UNL     1       0.329  10.579  22.182  0.00  0.00    +0.000 OA
BRANCH  27  28
ATOM     28  C   UNL     1       0.280   9.239  22.601  0.00  0.00    +0.000 C 
ATOM     29  F   UNL     1      -0.705   8.585  21.965  0.00  0.00    +0.000 F 
ATOM     30  F   UNL     1       1.460   8.617  22.410  0.00  0.00    +0.000 F 
ATOM     31  F   UNL     1       0.019   9.232  23.929  0.00  0.00    +0.000 F 
ENDBRANCH  27  28
ENDBRANCH   3  27
TORSDOF 6
ENDMDL
