MODEL 1
REMARK VINA RESULT:      -8.0      0.000      0.000
REMARK  Name = 
REMARK  15 active torsions:
REMARK  status: ('A' for Active; 'I' for Inactive)
REMARK    1  A    between atoms: C_1  and  C_2
REMARK    2  A    between atoms: C_2  and  C_3
REMARK    3  A    between atoms: C_3  and  C_4
REMARK    4  A    between atoms: C_4  and  C_5
REMARK    5  A    between atoms: C_5  and  C_6
REMARK    6  A    between atoms: C_6  and  C_7
REMARK    7  A    between atoms: C_7  and  C_8
REMARK    8  A    between atoms: C_8  and  O_9
REMARK    9  A    between atoms: O_9  and  C_10
REMARK   10  A    between atoms: C_13  and  C_14
REMARK   11  A    between atoms: C_17  and  C_18
REMARK   12  A    between atoms: N_20  and  C_21
REMARK   13  A    between atoms: C_26  and  P_27
REMARK   14  A    between atoms: P_27  and  O_29
REMARK   15  A    between atoms: P_27  and  O_30
REMARK                            x       y       z     vdW  Elec       q    Type
REMARK                         _______ _______ _______ _____ _____    ______ ____
ROOT
ATOM      1  C   UNL     1       1.877   8.465  19.065  0.00  0.00    +0.000 A 
ATOM      2  C   UNL     1       1.664   8.599  20.451  0.00  0.00    +0.000 A 
ATOM      3  C   UNL     1       0.798   9.564  20.971  0.00  0.00    +0.000 A 
ATOM      4  C   UNL     1       0.125  10.444  20.117  0.00  0.00    +0.000 A 
ATOM      5  C   UNL     1       0.403  10.397  18.747  0.00  0.00    +0.000 A 
ATOM      6  C   UNL     1       1.269   9.416  18.230  0.00  0.00    +0.000 A 
ENDROOT
BRANCH   1  10
ATOM      7  C   UNL     1       3.888   4.988  17.468  0.00  0.00    +0.000 A 
ATOM      8  C   UNL     1       2.872   4.875  18.412  0.00  0.00    +0.000 A 
ATOM      9  C   UNL     1       2.248   6.009  18.922  0.00  0.00    +0.000 A 
ATOM     10  C   UNL     1       2.624   7.303  18.529  0.00  0.00    +0.000 A 
ATOM     11  C   UNL     1       3.665   7.408  17.590  0.00  0.00    +0.000 A 
ATOM     12  C   UNL     1       4.287   6.262  17.061  0.00  0.00    +0.000 A 
BRANCH   7  13
ATOM     13  O   UNL     1       4.528   3.916  16.894  0.00  0.00    +0.000 OA
BRANCH  13  14
ATOM     14  C   UNL     1       5.801   4.246  16.330  0.00  0.00    +0.000 C 
BRANCH  14  15
ATOM     15  C   UNL     1       6.076   3.433  15.078  0.00  0.00    +0.000 C 
BRANCH  15  16
ATOM     16  C   UNL     1       5.738   4.285  13.854  0.00  0.00    +0.000 C 
BRANCH  16  17
ATOM     17  C   UNL     1       6.420   3.754  12.604  0.00  0.00    +0.000 C 
BRANCH  17  18
ATOM     18  C   UNL     1       5.489   2.835  11.817  0.00  0.00    +0.000 C 
BRANCH  18  19
ATOM     19  C   UNL     1       4.093   3.444  11.729  0.00  0.00    +0.000 C 
BRANCH  19  21
ATOM     20  C   UNL     1       2.960   4.309   9.665  0.00  0.00    +0.000 C 
ATOM     21  C   UNL     1       3.397   3.067  10.425  0.00  0.00    +0.000 C 
ENDBRANCH  19  21
ENDBRANCH  18  19
ENDBRANCH  17  18
ENDBRANCH  16  17
ENDBRANCH  15  16
ENDBRANCH  14  15
ENDBRANCH  13  14
ENDBRANCH   7  13
ENDBRANCH   1  10
BRANCH   4  22
ATOM     22  C   UNL     1      -0.873  11.367  20.741  0.00  0.00    +0.000 C 
ATOM     23  O   UNL     1      -1.880  11.673  20.114  0.00  0.00    +0.000 OA
ATOM     24  N   UNL     1      -0.582  11.811  22.024  0.00  0.00    +0.000 N 
ATOM     25  H   UNL     1      -0.031  11.168  22.578  0.00  0.00    +0.000 HD
BRANCH  24  26
ATOM     26  C   UNL     1      -1.506  12.604  22.742  0.00  0.00    +0.000 A 
ATOM     27  C   UNL     1      -2.583  11.891  23.310  0.00  0.00    +0.000 A 
ATOM     28  C   UNL     1      -3.566  12.542  24.053  0.00  0.00    +0.000 A 
ATOM     29  C   UNL     1      -3.472  13.908  24.258  0.00  0.00    +0.000 A 
ATOM     30  C   UNL     1      -2.401  14.608  23.710  0.00  0.00    +0.000 A 
ATOM     31  C   UNL     1      -1.388  13.984  22.941  0.00  0.00    +0.000 A 
BRANCH  31  32
ATOM     32  P   UNL     1      -0.064  15.090  22.581  0.00  0.00    +0.000 P 
ATOM     33  O   UNL     1       0.411  16.018  23.661  0.00  0.00    +0.000 OA
BRANCH  32  34
ATOM     34  O   UNL     1       1.153  14.132  22.129  0.00  0.00    +0.000 OA
ATOM     35  H   UNL     1       1.182  14.029  21.161  0.00  0.00    +0.000 HD
ENDBRANCH  32  34
BRANCH  32  36
ATOM     36  O   UNL     1      -0.151  15.907  21.210  0.00  0.00    +0.000 OA
ATOM     37  H   UNL     1       0.705  15.788  20.751  0.00  0.00    +0.000 HD
ENDBRANCH  32  36
ENDBRANCH  31  32
ENDBRANCH  24  26
ENDBRANCH   4  22
TORSDOF 14
ENDMDL
MODEL 2
REMARK VINA RESULT:      -7.9      1.175      1.712
REMARK  Name = 
REMARK  15 active torsions:
REMARK  status: ('A' for Active; 'I' for Inactive)
REMARK    1  A    between atoms: C_1  and  C_2
REMARK    2  A    between atoms: C_2  and  C_3
REMARK    3  A    between atoms: C_3  and  C_4
REMARK    4  A    between atoms: C_4  and  C_5
REMARK    5  A    between atoms: C_5  and  C_6
REMARK    6  A    between atoms: C_6  and  C_7
REMARK    7  A    between atoms: C_7  and  C_8
REMARK    8  A    between atoms: C_8  and  O_9
REMARK    9  A    between atoms: O_9  and  C_10
REMARK   10  A    between atoms: C_13  and  C_14
REMARK   11  A    between atoms: C_17  and  C_18
REMARK   12  A    between atoms: N_20  and  C_21
REMARK   13  A    between atoms: C_26  and  P_27
REMARK   14  A    between atoms: P_27  and  O_29
REMARK   15  A    between atoms: P_27  and  O_30
REMARK                            x       y       z     vdW  Elec       q    Type
REMARK                         _______ _______ _______ _____ _____    ______ ____
ROOT
ATOM      1  C   UNL     1       2.529   7.498  18.519  0.00  0.00    +0.000 A 
ATOM      2  C   UNL     1       2.007   8.528  17.712  0.00  0.00    +0.000 A 
ATOM      3  C   UNL     1       1.180   9.525  18.236  0.00  0.00    +0.000 A 
ATOM      4  C   UNL     1       0.831   9.514  19.590  0.00  0.00    +0.000 A 
ATOM      5  C   UNL     1       1.251   8.442  20.385  0.00  0.00    +0.000 A 
ATOM      6  C   UNL     1       2.092   7.448  19.853  0.00  0.00    +0.000 A 
ENDROOT
BRANCH   1  10
ATOM      7  C   UNL     1       5.435   4.757  16.868  0.00  0.00    +0.000 A 
ATOM      8  C   UNL     1       4.188   4.323  17.306  0.00  0.00    +0.000 A 
ATOM      9  C   UNL     1       3.274   5.222  17.846  0.00  0.00    +0.000 A 
ATOM     10  C   UNL     1       3.570   6.586  17.992  0.00  0.00    +0.000 A 
ATOM     11  C   UNL     1       4.841   7.012  17.565  0.00  0.00    +0.000 A 
ATOM     12  C   UNL     1       5.761   6.107  17.003  0.00  0.00    +0.000 A 
BRANCH   7  13
ATOM     13  O   UNL     1       6.377   3.939  16.292  0.00  0.00    +0.000 OA
BRANCH  13  14
ATOM     14  C   UNL     1       6.823   4.393  15.011  0.00  0.00    +0.000 C 
BRANCH  14  15
ATOM     15  C   UNL     1       5.767   4.158  13.946  0.00  0.00    +0.000 C 
BRANCH  15  16
ATOM     16  C   UNL     1       6.446   3.599  12.695  0.00  0.00    +0.000 C 
BRANCH  16  17
ATOM     17  C   UNL     1       5.545   3.717  11.476  0.00  0.00    +0.000 C 
BRANCH  17  18
ATOM     18  C   UNL     1       4.722   2.446  11.275  0.00  0.00    +0.000 C 
BRANCH  18  19
ATOM     19  C   UNL     1       3.342   2.791  10.724  0.00  0.00    +0.000 C 
BRANCH  19  21
ATOM     20  C   UNL     1       2.748   4.430   8.919  0.00  0.00    +0.000 C 
ATOM     21  C   UNL     1       3.241   4.266  10.348  0.00  0.00    +0.000 C 
ENDBRANCH  19  21
ENDBRANCH  18  19
ENDBRANCH  17  18
ENDBRANCH  16  17
ENDBRANCH  15  16
ENDBRANCH  14  15
ENDBRANCH  13  14
ENDBRANCH   7  13
ENDBRANCH   1  10
BRANCH   4  22
ATOM     22  C   UNL     1       0.042  10.678  20.098  0.00  0.00    +0.000 C 
ATOM     23  O   UNL     1      -0.742  11.245  19.346  0.00  0.00    +0.000 OA
ATOM     24  N   UNL     1       0.252  11.032  21.424  0.00  0.00    +0.000 N 
ATOM     25  H   UNL     1       0.522  10.266  22.027  0.00  0.00    +0.000 HD
BRANCH  24  26
ATOM     26  C   UNL     1      -0.516  12.051  22.032  0.00  0.00    +0.000 A 
ATOM     27  C   UNL     1      -1.655  11.599  22.730  0.00  0.00    +0.000 A 
ATOM     28  C   UNL     1      -2.500  12.492  23.385  0.00  0.00    +0.000 A 
ATOM     29  C   UNL     1      -2.205  13.844  23.372  0.00  0.00    +0.000 A 
ATOM     30  C   UNL     1      -1.073  14.288  22.695  0.00  0.00    +0.000 A 
ATOM     31  C   UNL     1      -0.195  13.414  22.009  0.00  0.00    +0.000 A 
BRANCH  31  32
ATOM     32  P   UNL     1       1.253  14.246  21.448  0.00  0.00    +0.000 P 
ATOM     33  O   UNL     1       1.853  15.310  22.321  0.00  0.00    +0.000 OA
BRANCH  32  34
ATOM     34  O   UNL     1       2.334  13.070  21.223  0.00  0.00    +0.000 OA
ATOM     35  H   UNL     1       2.340  12.767  20.297  0.00  0.00    +0.000 HD
ENDBRANCH  32  34
BRANCH  32  36
ATOM     36  O   UNL     1       1.255  14.767  19.938  0.00  0.00    +0.000 OA
ATOM     37  H   UNL     1       0.339  14.682  19.605  0.00  0.00    +0.000 HD
ENDBRANCH  32  36
ENDBRANCH  31  32
ENDBRANCH  24  26
ENDBRANCH   4  22
TORSDOF 14
ENDMDL
MODEL 3
REMARK VINA RESULT:      -7.8      3.117      4.700
REMARK  Name = 
REMARK  15 active torsions:
REMARK  status: ('A' for Active; 'I' for Inactive)
REMARK    1  A    between atoms: C_1  and  C_2
REMARK    2  A    between atoms: C_2  and  C_3
REMARK    3  A    between atoms: C_3  and  C_4
REMARK    4  A    between atoms: C_4  and  C_5
REMARK    5  A    between atoms: C_5  and  C_6
REMARK    6  A    between atoms: C_6  and  C_7
REMARK    7  A    between atoms: C_7  and  C_8
REMARK    8  A    between atoms: C_8  and  O_9
REMARK    9  A    between atoms: O_9  and  C_10
REMARK   10  A    between atoms: C_13  and  C_14
REMARK   11  A    between atoms: C_17  and  C_18
REMARK   12  A    between atoms: N_20  and  C_21
REMARK   13  A    between atoms: C_26  and  P_27
REMARK   14  A    between atoms: P_27  and  O_29
REMARK   15  A    between atoms: P_27  and  O_30
REMARK                            x       y       z     vdW  Elec       q    Type
REMARK                         _______ _______ _______ _____ _____    ______ ____
ROOT
ATOM      1  C   UNL     1       0.462  10.072  20.630  0.00  0.00    +0.000 A 
ATOM      2  C   UNL     1       0.095   9.815  21.965  0.00  0.00    +0.000 A 
ATOM      3  C   UNL     1      -0.829  10.616  22.641  0.00  0.00    +0.000 A 
ATOM      4  C   UNL     1      -1.405  11.720  22.004  0.00  0.00    +0.000 A 
ATOM      5  C   UNL     1      -0.975  12.055  20.716  0.00  0.00    +0.000 A 
ATOM      6  C   UNL     1      -0.053  11.238  20.039  0.00  0.00    +0.000 A 
ENDROOT
BRANCH   1  10
ATOM      7  C   UNL     1       2.701   7.067  18.475  0.00  0.00    +0.000 A 
ATOM      8  C   UNL     1       2.332   6.890  19.805  0.00  0.00    +0.000 A 
ATOM      9  C   UNL     1       1.623   7.877  20.482  0.00  0.00    +0.000 A 
ATOM     10  C   UNL     1       1.270   9.090  19.871  0.00  0.00    +0.000 A 
ATOM     11  C   UNL     1       1.664   9.269  18.532  0.00  0.00    +0.000 A 
ATOM     12  C   UNL     1       2.367   8.264  17.840  0.00  0.00    +0.000 A 
BRANCH   7  13
ATOM     13  O   UNL     1       3.370   6.127  17.730  0.00  0.00    +0.000 OA
BRANCH  13  14
ATOM     14  C   UNL     1       3.949   5.081  18.516  0.00  0.00    +0.000 C 
BRANCH  14  15
ATOM     15  C   UNL     1       4.068   3.795  17.719  0.00  0.00    +0.000 C 
BRANCH  15  16
ATOM     16  C   UNL     1       2.669   3.351  17.290  0.00  0.00    +0.000 C 
BRANCH  16  17
ATOM     17  C   UNL     1       2.214   2.125  18.065  0.00  0.00    +0.000 C 
BRANCH  17  18
ATOM     18  C   UNL     1       0.846   2.353  18.703  0.00  0.00    +0.000 C 
BRANCH  18  19
ATOM     19  C   UNL     1       0.928   3.458  19.752  0.00  0.00    +0.000 C 
BRANCH  19  21
ATOM     20  C   UNL     1       2.583   3.085  21.601  0.00  0.00    +0.000 C 
ATOM     21  C   UNL     1       1.145   2.887  21.151  0.00  0.00    +0.000 C 
ENDBRANCH  19  21
ENDBRANCH  18  19
ENDBRANCH  17  18
ENDBRANCH  16  17
ENDBRANCH  15  16
ENDBRANCH  14  15
ENDBRANCH  13  14
ENDBRANCH   7  13
ENDBRANCH   1  10
BRANCH   4  22
ATOM     22  C   UNL     1      -2.471  12.456  22.753  0.00  0.00    +0.000 C 
ATOM     23  O   UNL     1      -3.051  11.896  23.676  0.00  0.00    +0.000 OA
ATOM     24  N   UNL     1      -2.723  13.758  22.342  0.00  0.00    +0.000 N 
ATOM     25  H   UNL     1      -1.926  14.235  21.942  0.00  0.00    +0.000 HD
BRANCH  24  26
ATOM     26  C   UNL     1      -3.637  14.575  23.046  0.00  0.00    +0.000 A 
ATOM     27  C   UNL     1      -4.985  14.427  22.658  0.00  0.00    +0.000 A 
ATOM     28  C   UNL     1      -5.997  15.162  23.272  0.00  0.00    +0.000 A 
ATOM     29  C   UNL     1      -5.678  16.035  24.297  0.00  0.00    +0.000 A 
ATOM     30  C   UNL     1      -4.350  16.170  24.690  0.00  0.00    +0.000 A 
ATOM     31  C   UNL     1      -3.292  15.448  24.085  0.00  0.00    +0.000 A 
BRANCH  31  32
ATOM     32  P   UNL     1      -1.771  15.668  24.946  0.00  0.00    +0.000 P 
ATOM     33  O   UNL     1      -0.519  15.087  24.354  0.00  0.00    +0.000 OA
BRANCH  32  34
ATOM     34  O   UNL     1      -1.605  17.267  25.075  0.00  0.00    +0.000 OA
ATOM     35  H   UNL     1      -1.472  17.536  26.002  0.00  0.00    +0.000 HD
ENDBRANCH  32  34
BRANCH  32  36
ATOM     36  O   UNL     1      -1.774  15.373  26.516  0.00  0.00    +0.000 OA
ATOM     37  H   UNL     1      -2.310  14.566  26.655  0.00  0.00    +0.000 HD
ENDBRANCH  32  36
ENDBRANCH  31  32
ENDBRANCH  24  26
ENDBRANCH   4  22
TORSDOF 14
ENDMDL
MODEL 4
REMARK VINA RESULT:      -7.6      3.556     11.436
REMARK  Name = 
REMARK  15 active torsions:
REMARK  status: ('A' for Active; 'I' for Inactive)
REMARK    1  A    between atoms: C_1  and  C_2
REMARK    2  A    between atoms: C_2  and  C_3
REMARK    3  A    between atoms: C_3  and  C_4
REMARK    4  A    between atoms: C_4  and  C_5
REMARK    5  A    between atoms: C_5  and  C_6
REMARK    6  A    between atoms: C_6  and  C_7
REMARK    7  A    between atoms: C_7  and  C_8
REMARK    8  A    between atoms: C_8  and  O_9
REMARK    9  A    between atoms: O_9  and  C_10
REMARK   10  A    between atoms: C_13  and  C_14
REMARK   11  A    between atoms: C_17  and  C_18
REMARK   12  A    between atoms: N_20  and  C_21
REMARK   13  A    between atoms: C_26  and  P_27
REMARK   14  A    between atoms: P_27  and  O_29
REMARK   15  A    between atoms: P_27  and  O_30
REMARK                            x       y       z     vdW  Elec       q    Type
REMARK                         _______ _______ _______ _____ _____    ______ ____
ROOT
ATOM      1  C   UNL     1       0.975   9.718  20.633  0.00  0.00    +0.000 A 
ATOM      2  C   UNL     1       1.319   9.922  19.282  0.00  0.00    +0.000 A 
ATOM      3  C   UNL     1       1.889   8.908  18.508  0.00  0.00    +0.000 A 
ATOM      4  C   UNL     1       2.153   7.655  19.069  0.00  0.00    +0.000 A 
ATOM      5  C   UNL     1       1.917   7.464  20.435  0.00  0.00    +0.000 A 
ATOM      6  C   UNL     1       1.333   8.486  21.205  0.00  0.00    +0.000 A 
ENDROOT
BRANCH   1  10
ATOM      7  C   UNL     1      -1.314  12.573  22.934  0.00  0.00    +0.000 A 
ATOM      8  C   UNL     1      -1.485  11.201  23.093  0.00  0.00    +0.000 A 
ATOM      9  C   UNL     1      -0.746  10.301  22.332  0.00  0.00    +0.000 A 
ATOM     10  C   UNL     1       0.178  10.729  21.365  0.00  0.00    +0.000 A 
ATOM     11  C   UNL     1       0.330  12.117  21.198  0.00  0.00    +0.000 A 
ATOM     12  C   UNL     1      -0.405  13.029  21.979  0.00  0.00    +0.000 A 
BRANCH   7  13
ATOM     13  O   UNL     1      -1.979  13.522  23.671  0.00  0.00    +0.000 OA
BRANCH  13  14
ATOM     14  C   UNL     1      -3.367  13.229  23.861  0.00  0.00    +0.000 C 
BRANCH  14  15
ATOM     15  C   UNL     1      -4.243  14.161  23.045  0.00  0.00    +0.000 C 
BRANCH  15  16
ATOM     16  C   UNL     1      -3.983  13.907  21.560  0.00  0.00    +0.000 C 
BRANCH  16  17
ATOM     17  C   UNL     1      -4.822  12.752  21.040  0.00  0.00    +0.000 C 
BRANCH  17  18
ATOM     18  C   UNL     1      -4.399  12.357  19.626  0.00  0.00    +0.000 C 
BRANCH  18  19
ATOM     19  C   UNL     1      -2.883  12.211  19.548  0.00  0.00    +0.000 C 
BRANCH  19  21
ATOM     20  C   UNL     1      -2.148  10.186  18.262  0.00  0.00    +0.000 C 
ATOM     21  C   UNL     1      -2.440  11.676  18.190  0.00  0.00    +0.000 C 
ENDBRANCH  19  21
ENDBRANCH  18  19
ENDBRANCH  17  18
ENDBRANCH  16  17
ENDBRANCH  15  16
ENDBRANCH  14  15
ENDBRANCH  13  14
ENDBRANCH   7  13
ENDBRANCH   1  10
BRANCH   4  22
ATOM     22  C   UNL     1       2.653   6.589  18.146  0.00  0.00    +0.000 C 
ATOM     23  O   UNL     1       1.846   5.872  17.565  0.00  0.00    +0.000 OA
ATOM     24  N   UNL     1       4.031   6.496  18.003  0.00  0.00    +0.000 N 
ATOM     25  H   UNL     1       4.527   7.367  18.130  0.00  0.00    +0.000 HD
BRANCH  24  26
ATOM     26  C   UNL     1       4.603   5.591  17.079  0.00  0.00    +0.000 A 
ATOM     27  C   UNL     1       5.152   6.190  15.926  0.00  0.00    +0.000 A 
ATOM     28  C   UNL     1       5.757   5.421  14.934  0.00  0.00    +0.000 A 
ATOM     29  C   UNL     1       5.843   4.049  15.093  0.00  0.00    +0.000 A 
ATOM     30  C   UNL     1       5.315   3.461  16.238  0.00  0.00    +0.000 A 
ATOM     31  C   UNL     1       4.683   4.206  17.264  0.00  0.00    +0.000 A 
BRANCH  31  32
ATOM     32  P   UNL     1       4.323   3.210  18.672  0.00  0.00    +0.000 P 
ATOM     33  O   UNL     1       5.239   3.286  19.859  0.00  0.00    +0.000 OA
BRANCH  32  34
ATOM     34  O   UNL     1       2.838   3.657  19.116  0.00  0.00    +0.000 OA
ATOM     35  H   UNL     1       2.747   3.669  20.085  0.00  0.00    +0.000 HD
ENDBRANCH  32  34
BRANCH  32  36
ATOM     36  O   UNL     1       3.963   1.676  18.405  0.00  0.00    +0.000 OA
ATOM     37  H   UNL     1       2.991   1.593  18.475  0.00  0.00    +0.000 HD
ENDBRANCH  32  36
ENDBRANCH  31  32
ENDBRANCH  24  26
ENDBRANCH   4  22
TORSDOF 14
ENDMDL
MODEL 5
REMARK VINA RESULT:      -7.5      3.238      4.816
REMARK  Name = 
REMARK  15 active torsions:
REMARK  status: ('A' for Active; 'I' for Inactive)
REMARK    1  A    between atoms: C_1  and  C_2
REMARK    2  A    between atoms: C_2  and  C_3
REMARK    3  A    between atoms: C_3  and  C_4
REMARK    4  A    between atoms: C_4  and  C_5
REMARK    5  A    between atoms: C_5  and  C_6
REMARK    6  A    between atoms: C_6  and  C_7
REMARK    7  A    between atoms: C_7  and  C_8
REMARK    8  A    between atoms: C_8  and  O_9
REMARK    9  A    between atoms: O_9  and  C_10
REMARK   10  A    between atoms: C_13  and  C_14
REMARK   11  A    between atoms: C_17  and  C_18
REMARK   12  A    between atoms: N_20  and  C_21
REMARK   13  A    between atoms: C_26  and  P_27
REMARK   14  A    between atoms: P_27  and  O_29
REMARK   15  A    between atoms: P_27  and  O_30
REMARK                            x       y       z     vdW  Elec       q    Type
REMARK                         _______ _______ _______ _____ _____    ______ ____
ROOT
ATOM      1  C   UNL     1       0.708   9.454  19.557  0.00  0.00    +0.000 A 
ATOM      2  C   UNL     1      -0.006  10.246  18.637  0.00  0.00    +0.000 A 
ATOM      3  C   UNL     1      -0.859  11.271  19.056  0.00  0.00    +0.000 A 
ATOM      4  C   UNL     1      -1.040  11.526  20.418  0.00  0.00    +0.000 A 
ATOM      5  C   UNL     1      -0.424  10.683  21.350  0.00  0.00    +0.000 A 
ATOM      6  C   UNL     1       0.440   9.660  20.921  0.00  0.00    +0.000 A 
ENDROOT
BRANCH   1  10
ATOM      7  C   UNL     1       3.671   6.600  18.232  0.00  0.00    +0.000 A 
ATOM      8  C   UNL     1       3.001   6.448  19.442  0.00  0.00    +0.000 A 
ATOM      9  C   UNL     1       2.060   7.387  19.854  0.00  0.00    +0.000 A 
ATOM     10  C   UNL     1       1.763   8.526  19.089  0.00  0.00    +0.000 A 
ATOM     11  C   UNL     1       2.460   8.681  17.878  0.00  0.00    +0.000 A 
ATOM     12  C   UNL     1       3.400   7.724  17.451  0.00  0.00    +0.000 A 
BRANCH   7  13
ATOM     13  O   UNL     1       4.586   5.700  17.741  0.00  0.00    +0.000 OA
BRANCH  13  14
ATOM     14  C   UNL     1       4.447   4.386  18.290  0.00  0.00    +0.000 C 
BRANCH  14  15
ATOM     15  C   UNL     1       4.160   3.364  17.206  0.00  0.00    +0.000 C 
BRANCH  15  16
ATOM     16  C   UNL     1       2.657   3.082  17.180  0.00  0.00    +0.000 C 
BRANCH  16  17
ATOM     17  C   UNL     1       2.213   2.331  18.425  0.00  0.00    +0.000 C 
BRANCH  17  18
ATOM     18  C   UNL     1       0.772   2.679  18.793  0.00  0.00    +0.000 C 
BRANCH  18  19
ATOM     19  C   UNL     1       0.746   3.642  19.976  0.00  0.00    +0.000 C 
BRANCH  19  21
ATOM     20  C   UNL     1       1.656   2.482  22.006  0.00  0.00    +0.000 C 
ATOM     21  C   UNL     1       1.962   3.454  20.879  0.00  0.00    +0.000 C 
ENDBRANCH  19  21
ENDBRANCH  18  19
ENDBRANCH  17  18
ENDBRANCH  16  17
ENDBRANCH  15  16
ENDBRANCH  14  15
ENDBRANCH  13  14
ENDBRANCH   7  13
ENDBRANCH   1  10
BRANCH   4  22
ATOM     22  C   UNL     1      -1.874  12.713  20.783  0.00  0.00    +0.000 C 
ATOM     23  O   UNL     1      -2.831  13.012  20.078  0.00  0.00    +0.000 OA
ATOM     24  N   UNL     1      -1.499  13.400  21.930  0.00  0.00    +0.000 N 
ATOM     25  H   UNL     1      -1.046  12.831  22.633  0.00  0.00    +0.000 HD
BRANCH  24  26
ATOM     26  C   UNL     1      -2.279  14.473  22.419  0.00  0.00    +0.000 A 
ATOM     27  C   UNL     1      -1.827  15.754  22.039  0.00  0.00    +0.000 A 
ATOM     28  C   UNL     1      -2.503  16.904  22.441  0.00  0.00    +0.000 A 
ATOM     29  C   UNL     1      -3.651  16.788  23.205  0.00  0.00    +0.000 A 
ATOM     30  C   UNL     1      -4.104  15.523  23.567  0.00  0.00    +0.000 A 
ATOM     31  C   UNL     1      -3.440  14.331  23.187  0.00  0.00    +0.000 A 
BRANCH  31  32
ATOM     32  P   UNL     1      -4.375  12.897  23.606  0.00  0.00    +0.000 P 
ATOM     33  O   UNL     1      -5.427  12.421  22.647  0.00  0.00    +0.000 OA
BRANCH  32  34
ATOM     34  O   UNL     1      -3.272  11.738  23.806  0.00  0.00    +0.000 OA
ATOM     35  H   UNL     1      -2.447  12.094  24.181  0.00  0.00    +0.000 HD
ENDBRANCH  32  34
BRANCH  32  36
ATOM     36  O   UNL     1      -4.967  12.822  25.088  0.00  0.00    +0.000 OA
ATOM     37  H   UNL     1      -5.906  13.093  25.036  0.00  0.00    +0.000 HD
ENDBRANCH  32  36
ENDBRANCH  31  32
ENDBRANCH  24  26
ENDBRANCH   4  22
TORSDOF 14
ENDMDL
MODEL 6
REMARK VINA RESULT:      -7.5      1.693      2.451
REMARK  Name = 
REMARK  15 active torsions:
REMARK  status: ('A' for Active; 'I' for Inactive)
REMARK    1  A    between atoms: C_1  and  C_2
REMARK    2  A    between atoms: C_2  and  C_3
REMARK    3  A    between atoms: C_3  and  C_4
REMARK    4  A    between atoms: C_4  and  C_5
REMARK    5  A    between atoms: C_5  and  C_6
REMARK    6  A    between atoms: C_6  and  C_7
REMARK    7  A    between atoms: C_7  and  C_8
REMARK    8  A    between atoms: C_8  and  O_9
REMARK    9  A    between atoms: O_9  and  C_10
REMARK   10  A    between atoms: C_13  and  C_14
REMARK   11  A    between atoms: C_17  and  C_18
REMARK   12  A    between atoms: N_20  and  C_21
REMARK   13  A    between atoms: C_26  and  P_27
REMARK   14  A    between atoms: P_27  and  O_29
REMARK   15  A    between atoms: P_27  and  O_30
REMARK                            x       y       z     vdW  Elec       q    Type
REMARK                         _______ _______ _______ _____ _____    ______ ____
ROOT
ATOM      1  C   UNL     1       2.599   7.037  18.669  0.00  0.00    +0.000 A 
ATOM      2  C   UNL     1       2.190   8.268  18.118  0.00  0.00    +0.000 A 
ATOM      3  C   UNL     1       1.510   9.223  18.877  0.00  0.00    +0.000 A 
ATOM      4  C   UNL     1       1.198   8.970  20.216  0.00  0.00    +0.000 A 
ATOM      5  C   UNL     1       1.501   7.714  20.753  0.00  0.00    +0.000 A 
ATOM      6  C   UNL     1       2.195   6.761  19.986  0.00  0.00    +0.000 A 
ENDROOT
BRANCH   1  10
ATOM      7  C   UNL     1       5.081   4.334  16.386  0.00  0.00    +0.000 A 
ATOM      8  C   UNL     1       3.979   3.882  17.106  0.00  0.00    +0.000 A 
ATOM      9  C   UNL     1       3.202   4.769  17.844  0.00  0.00    +0.000 A 
ATOM     10  C   UNL     1       3.503   6.139  17.914  0.00  0.00    +0.000 A 
ATOM     11  C   UNL     1       4.630   6.583  17.200  0.00  0.00    +0.000 A 
ATOM     12  C   UNL     1       5.407   5.690  16.439  0.00  0.00    +0.000 A 
BRANCH   7  13
ATOM     13  O   UNL     1       5.875   3.527  15.606  0.00  0.00    +0.000 OA
BRANCH  13  14
ATOM     14  C   UNL     1       6.758   4.254  14.747  0.00  0.00    +0.000 C 
BRANCH  14  15
ATOM     15  C   UNL     1       6.095   4.575  13.421  0.00  0.00    +0.000 C 
BRANCH  15  16
ATOM     16  C   UNL     1       5.084   3.475  13.097  0.00  0.00    +0.000 C 
BRANCH  16  17
ATOM     17  C   UNL     1       4.794   3.411  11.606  0.00  0.00    +0.000 C 
BRANCH  17  18
ATOM     18  C   UNL     1       3.291   3.380  11.338  0.00  0.00    +0.000 C 
BRANCH  18  19
ATOM     19  C   UNL     1       3.020   3.008   9.883  0.00  0.00    +0.000 C 
BRANCH  19  21
ATOM     20  C   UNL     1       2.032   5.141   9.006  0.00  0.00    +0.000 C 
ATOM     21  C   UNL     1       3.224   4.200   8.952  0.00  0.00    +0.000 C 
ENDBRANCH  19  21
ENDBRANCH  18  19
ENDBRANCH  17  18
ENDBRANCH  16  17
ENDBRANCH  15  16
ENDBRANCH  14  15
ENDBRANCH  13  14
ENDBRANCH   7  13
ENDBRANCH   1  10
BRANCH   4  22
ATOM     22  C   UNL     1       0.576  10.088  20.992  0.00  0.00    +0.000 C 
ATOM     23  O   UNL     1       1.053  10.404  22.075  0.00  0.00    +0.000 OA
ATOM     24  N   UNL     1      -0.519  10.709  20.405  0.00  0.00    +0.000 N 
ATOM     25  H   UNL     1      -0.518  10.698  19.393  0.00  0.00    +0.000 HD
BRANCH  24  26
ATOM     26  C   UNL     1      -1.117  11.840  21.005  0.00  0.00    +0.000 A 
ATOM     27  C   UNL     1      -1.792  11.581  22.216  0.00  0.00    +0.000 A 
ATOM     28  C   UNL     1      -2.422  12.603  22.924  0.00  0.00    +0.000 A 
ATOM     29  C   UNL     1      -2.364  13.899  22.443  0.00  0.00    +0.000 A 
ATOM     30  C   UNL     1      -1.685  14.157  21.256  0.00  0.00    +0.000 A 
ATOM     31  C   UNL     1      -1.041  13.145  20.503  0.00  0.00    +0.000 A 
BRANCH  31  32
ATOM     32  P   UNL     1      -0.088  13.815  19.182  0.00  0.00    +0.000 P 
ATOM     33  O   UNL     1       1.403  13.895  19.340  0.00  0.00    +0.000 OA
BRANCH  32  34
ATOM     34  O   UNL     1      -0.440  12.882  17.914  0.00  0.00    +0.000 OA
ATOM     35  H   UNL     1      -1.100  12.205  18.145  0.00  0.00    +0.000 HD
ENDBRANCH  32  34
BRANCH  32  36
ATOM     36  O   UNL     1      -0.604  15.181  18.532  0.00  0.00    +0.000 OA
ATOM     37  H   UNL     1       0.140  15.552  18.017  0.00  0.00    +0.000 HD
ENDBRANCH  32  36
ENDBRANCH  31  32
ENDBRANCH  24  26
ENDBRANCH   4  22
TORSDOF 14
ENDMDL
MODEL 7
REMARK VINA RESULT:      -7.5      3.120      4.622
REMARK  Name = 
REMARK  15 active torsions:
REMARK  status: ('A' for Active; 'I' for Inactive)
REMARK    1  A    between atoms: C_1  and  C_2
REMARK    2  A    between atoms: C_2  and  C_3
REMARK    3  A    between atoms: C_3  and  C_4
REMARK    4  A    between atoms: C_4  and  C_5
REMARK    5  A    between atoms: C_5  and  C_6
REMARK    6  A    between atoms: C_6  and  C_7
REMARK    7  A    between atoms: C_7  and  C_8
REMARK    8  A    between atoms: C_8  and  O_9
REMARK    9  A    between atoms: O_9  and  C_10
REMARK   10  A    between atoms: C_13  and  C_14
REMARK   11  A    between atoms: C_17  and  C_18
REMARK   12  A    between atoms: N_20  and  C_21
REMARK   13  A    between atoms: C_26  and  P_27
REMARK   14  A    between atoms: P_27  and  O_29
REMARK   15  A    between atoms: P_27  and  O_30
REMARK                            x       y       z     vdW  Elec       q    Type
REMARK                         _______ _______ _______ _____ _____    ______ ____
ROOT
ATOM      1  C   UNL     1       0.688   9.237  20.266  0.00  0.00    +0.000 A 
ATOM      2  C   UNL     1      -0.124  10.235  19.693  0.00  0.00    +0.000 A 
ATOM      3  C   UNL     1      -0.914  11.079  20.477  0.00  0.00    +0.000 A 
ATOM      4  C   UNL     1      -0.933  10.939  21.867  0.00  0.00    +0.000 A 
ATOM      5  C   UNL     1      -0.217   9.886  22.449  0.00  0.00    +0.000 A 
ATOM      6  C   UNL     1       0.585   9.048  21.654  0.00  0.00    +0.000 A 
ENDROOT
BRANCH   1  10
ATOM      7  C   UNL     1       3.477   6.939  17.894  0.00  0.00    +0.000 A 
ATOM      8  C   UNL     1       3.114   6.547  19.179  0.00  0.00    +0.000 A 
ATOM      9  C   UNL     1       2.225   7.310  19.928  0.00  0.00    +0.000 A 
ATOM     10  C   UNL     1       1.676   8.506  19.439  0.00  0.00    +0.000 A 
ATOM     11  C   UNL     1       2.063   8.904  18.147  0.00  0.00    +0.000 A 
ATOM     12  C   UNL     1       2.950   8.125  17.381  0.00  0.00    +0.000 A 
BRANCH   7  13
ATOM     13  O   UNL     1       4.321   6.223  17.079  0.00  0.00    +0.000 OA
BRANCH  13  14
ATOM     14  C   UNL     1       4.786   5.005  17.669  0.00  0.00    +0.000 C 
BRANCH  14  15
ATOM     15  C   UNL     1       4.057   3.803  17.097  0.00  0.00    +0.000 C 
BRANCH  15  16
ATOM     16  C   UNL     1       3.590   2.915  18.251  0.00  0.00    +0.000 C 
BRANCH  16  17
ATOM     17  C   UNL     1       2.363   2.104  17.866  0.00  0.00    +0.000 C 
BRANCH  17  18
ATOM     18  C   UNL     1       1.346   2.070  19.005  0.00  0.00    +0.000 C 
BRANCH  18  19
ATOM     19  C   UNL     1       0.926   3.487  19.382  0.00  0.00    +0.000 C 
BRANCH  19  21
ATOM     20  C   UNL     1       1.524   2.521  21.619  0.00  0.00    +0.000 C 
ATOM     21  C   UNL     1       1.246   3.797  20.842  0.00  0.00    +0.000 C 
ENDBRANCH  19  21
ENDBRANCH  18  19
ENDBRANCH  17  18
ENDBRANCH  16  17
ENDBRANCH  15  16
ENDBRANCH  14  15
ENDBRANCH  13  14
ENDBRANCH   7  13
ENDBRANCH   1  10
BRANCH   4  22
ATOM     22  C   UNL     1      -1.711  11.954  22.643  0.00  0.00    +0.000 C 
ATOM     23  O   UNL     1      -2.535  11.577  23.467  0.00  0.00    +0.000 OA
ATOM     24  N   UNL     1      -1.426  13.286  22.371  0.00  0.00    +0.000 N 
ATOM     25  H   UNL     1      -0.478  13.460  22.066  0.00  0.00    +0.000 HD
BRANCH  24  26
ATOM     26  C   UNL     1      -2.030  14.323  23.119  0.00  0.00    +0.000 A 
ATOM     27  C   UNL     1      -1.376  14.639  24.328  0.00  0.00    +0.000 A 
ATOM     28  C   UNL     1      -1.855  15.647  25.163  0.00  0.00    +0.000 A 
ATOM     29  C   UNL     1      -2.977  16.365  24.789  0.00  0.00    +0.000 A 
ATOM     30  C   UNL     1      -3.613  16.062  23.589  0.00  0.00    +0.000 A 
ATOM     31  C   UNL     1      -3.163  15.040  22.718  0.00  0.00    +0.000 A 
BRANCH  31  32
ATOM     32  P   UNL     1      -4.037  15.050  21.188  0.00  0.00    +0.000 P 
ATOM     33  O   UNL     1      -5.524  15.254  21.212  0.00  0.00    +0.000 OA
BRANCH  32  34
ATOM     34  O   UNL     1      -3.350  16.236  20.337  0.00  0.00    +0.000 OA
ATOM     35  H   UNL     1      -3.244  15.985  19.402  0.00  0.00    +0.000 HD
ENDBRANCH  32  34
BRANCH  32  36
ATOM     36  O   UNL     1      -3.701  13.883  20.150  0.00  0.00    +0.000 OA
ATOM     37  H   UNL     1      -4.436  13.853  19.505  0.00  0.00    +0.000 HD
ENDBRANCH  32  36
ENDBRANCH  31  32
ENDBRANCH  24  26
ENDBRANCH   4  22
TORSDOF 14
ENDMDL
MODEL 8
REMARK VINA RESULT:      -7.4      3.484      5.192
REMARK  Name = 
REMARK  15 active torsions:
REMARK  status: ('A' for Active; 'I' for Inactive)
REMARK    1  A    between atoms: C_1  and  C_2
REMARK    2  A    between atoms: C_2  and  C_3
REMARK    3  A    between atoms: C_3  and  C_4
REMARK    4  A    between atoms: C_4  and  C_5
REMARK    5  A    between atoms: C_5  and  C_6
REMARK    6  A    between atoms: C_6  and  C_7
REMARK    7  A    between atoms: C_7  and  C_8
REMARK    8  A    between atoms: C_8  and  O_9
REMARK    9  A    between atoms: O_9  and  C_10
REMARK   10  A    between atoms: C_13  and  C_14
REMARK   11  A    between atoms: C_17  and  C_18
REMARK   12  A    between atoms: N_20  and  C_21
REMARK   13  A    between atoms: C_26  and  P_27
REMARK   14  A    between atoms: P_27  and  O_29
REMARK   15  A    between atoms: P_27  and  O_30
REMARK                            x       y       z     vdW  Elec       q    Type
REMARK                         _______ _______ _______ _____ _____    ______ ____
ROOT
ATOM      1  C   UNL     1      -0.064  10.534  20.611  0.00  0.00    +0.000 A 
ATOM      2  C   UNL     1      -0.359  10.332  21.973  0.00  0.00    +0.000 A 
ATOM      3  C   UNL     1      -1.324  11.092  22.637  0.00  0.00    +0.000 A 
ATOM      4  C   UNL     1      -2.018  12.100  21.960  0.00  0.00    +0.000 A 
ATOM      5  C   UNL     1      -1.666  12.389  20.637  0.00  0.00    +0.000 A 
ATOM      6  C   UNL     1      -0.700  11.612  19.973  0.00  0.00    +0.000 A 
ENDROOT
BRANCH   1  10
ATOM      7  C   UNL     1       2.561   7.895  18.414  0.00  0.00    +0.000 A 
ATOM      8  C   UNL     1       2.032   9.046  17.837  0.00  0.00    +0.000 A 
ATOM      9  C   UNL     1       1.179   9.873  18.560  0.00  0.00    +0.000 A 
ATOM     10  C   UNL     1       0.799   9.579  19.879  0.00  0.00    +0.000 A 
ATOM     11  C   UNL     1       1.322   8.403  20.446  0.00  0.00    +0.000 A 
ATOM     12  C   UNL     1       2.199   7.573  19.723  0.00  0.00    +0.000 A 
BRANCH   7  13
ATOM     13  O   UNL     1       3.436   7.047  17.778  0.00  0.00    +0.000 OA
BRANCH  13  14
ATOM     14  C   UNL     1       3.546   5.766  18.404  0.00  0.00    +0.000 C 
BRANCH  14  15
ATOM     15  C   UNL     1       3.269   4.645  17.419  0.00  0.00    +0.000 C 
BRANCH  15  16
ATOM     16  C   UNL     1       3.525   3.306  18.110  0.00  0.00    +0.000 C 
BRANCH  16  17
ATOM     17  C   UNL     1       2.453   2.287  17.759  0.00  0.00    +0.000 C 
BRANCH  17  18
ATOM     18  C   UNL     1       1.726   1.799  19.010  0.00  0.00    +0.000 C 
BRANCH  18  19
ATOM     19  C   UNL     1       0.919   2.935  19.631  0.00  0.00    +0.000 C 
BRANCH  19  21
ATOM     20  C   UNL     1       2.252   4.057  21.437  0.00  0.00    +0.000 C 
ATOM     21  C   UNL     1       1.163   3.040  21.134  0.00  0.00    +0.000 C 
ENDBRANCH  19  21
ENDBRANCH  18  19
ENDBRANCH  17  18
ENDBRANCH  16  17
ENDBRANCH  15  16
ENDBRANCH  14  15
ENDBRANCH  13  14
ENDBRANCH   7  13
ENDBRANCH   1  10
BRANCH   4  22
ATOM     22  C   UNL     1      -3.117  12.788  22.707  0.00  0.00    +0.000 C 
ATOM     23  O   UNL     1      -2.841  13.465  23.690  0.00  0.00    +0.000 OA
ATOM     24  N   UNL     1      -4.402  12.613  22.209  0.00  0.00    +0.000 N 
ATOM     25  H   UNL     1      -4.450  12.459  21.210  0.00  0.00    +0.000 HD
BRANCH  24  26
ATOM     26  C   UNL     1      -5.498  13.301  22.778  0.00  0.00    +0.000 A 
ATOM     27  C   UNL     1      -6.245  12.554  23.713  0.00  0.00    +0.000 A 
ATOM     28  C   UNL     1      -7.348  13.107  24.360  0.00  0.00    +0.000 A 
ATOM     29  C   UNL     1      -7.703  14.419  24.099  0.00  0.00    +0.000 A 
ATOM     30  C   UNL     1      -6.957  15.160  23.188  0.00  0.00    +0.000 A 
ATOM     31  C   UNL     1      -5.836  14.631  22.503  0.00  0.00    +0.000 A 
BRANCH  31  32
ATOM     32  P   UNL     1      -4.976  15.873  21.595  0.00  0.00    +0.000 P 
ATOM     33  O   UNL     1      -5.710  17.129  21.225  0.00  0.00    +0.000 OA
BRANCH  32  34
ATOM     34  O   UNL     1      -3.710  16.248  22.520  0.00  0.00    +0.000 OA
ATOM     35  H   UNL     1      -3.386  15.471  23.010  0.00  0.00    +0.000 HD
ENDBRANCH  32  34
BRANCH  32  36
ATOM     36  O   UNL     1      -4.123  15.392  20.332  0.00  0.00    +0.000 OA
ATOM     37  H   UNL     1      -4.309  16.020  19.605  0.00  0.00    +0.000 HD
ENDBRANCH  32  36
ENDBRANCH  31  32
ENDBRANCH  24  26
ENDBRANCH   4  22
TORSDOF 14
ENDMDL
MODEL 9
REMARK VINA RESULT:      -7.4      4.316     11.410
REMARK  Name = 
REMARK  15 active torsions:
REMARK  status: ('A' for Active; 'I' for Inactive)
REMARK    1  A    between atoms: C_1  and  C_2
REMARK    2  A    between atoms: C_2  and  C_3
REMARK    3  A    between atoms: C_3  and  C_4
REMARK    4  A    between atoms: C_4  and  C_5
REMARK    5  A    between atoms: C_5  and  C_6
REMARK    6  A    between atoms: C_6  and  C_7
REMARK    7  A    between atoms: C_7  and  C_8
REMARK    8  A    between atoms: C_8  and  O_9
REMARK    9  A    between atoms: O_9  and  C_10
REMARK   10  A    between atoms: C_13  and  C_14
REMARK   11  A    between atoms: C_17  and  C_18
REMARK   12  A    between atoms: N_20  and  C_21
REMARK   13  A    between atoms: C_26  and  P_27
REMARK   14  A    between atoms: P_27  and  O_29
REMARK   15  A    between atoms: P_27  and  O_30
REMARK                            x       y       z     vdW  Elec       q    Type
REMARK                         _______ _______ _______ _____ _____    ______ ____
ROOT
ATOM      1  C   UNL     1       1.281  11.069  18.968  0.00  0.00    +0.000 A 
ATOM      2  C   UNL     1       0.860  10.286  20.061  0.00  0.00    +0.000 A 
ATOM      3  C   UNL     1       1.139   8.919  20.136  0.00  0.00    +0.000 A 
ATOM      4  C   UNL     1       1.836   8.282  19.105  0.00  0.00    +0.000 A 
ATOM      5  C   UNL     1       2.170   9.018  17.962  0.00  0.00    +0.000 A 
ATOM      6  C   UNL     1       1.895  10.395  17.898  0.00  0.00    +0.000 A 
ENDROOT
BRANCH   1  10
ATOM      7  C   UNL     1       0.775  15.356  19.183  0.00  0.00    +0.000 A 
ATOM      8  C   UNL     1      -0.234  14.524  18.708  0.00  0.00    +0.000 A 
ATOM      9  C   UNL     1      -0.044  13.148  18.635  0.00  0.00    +0.000 A 
ATOM     10  C   UNL     1       1.167  12.544  19.012  0.00  0.00    +0.000 A 
ATOM     11  C   UNL     1       2.188  13.395  19.473  0.00  0.00    +0.000 A 
ATOM     12  C   UNL     1       1.991  14.786  19.562  0.00  0.00    +0.000 A 
BRANCH   7  13
ATOM     13  O   UNL     1       0.651  16.718  19.317  0.00  0.00    +0.000 OA
BRANCH  13  14
ATOM     14  C   UNL     1      -0.346  17.110  20.265  0.00  0.00    +0.000 C 
BRANCH  14  15
ATOM     15  C   UNL     1       0.180  17.020  21.686  0.00  0.00    +0.000 C 
BRANCH  15  16
ATOM     16  C   UNL     1      -0.942  16.521  22.596  0.00  0.00    +0.000 C 
BRANCH  16  17
ATOM     17  C   UNL     1      -0.657  15.119  23.109  0.00  0.00    +0.000 C 
BRANCH  17  18
ATOM     18  C   UNL     1      -1.323  14.063  22.229  0.00  0.00    +0.000 C 
BRANCH  18  19
ATOM     19  C   UNL     1      -0.537  12.757  22.280  0.00  0.00    +0.000 C 
BRANCH  19  21
ATOM     20  C   UNL     1      -2.772  12.070  23.189  0.00  0.00    +0.000 C 
ATOM     21  C   UNL     1      -1.325  11.655  22.982  0.00  0.00    +0.000 C 
ENDBRANCH  19  21
ENDBRANCH  18  19
ENDBRANCH  17  18
ENDBRANCH  16  17
ENDBRANCH  15  16
ENDBRANCH  14  15
ENDBRANCH  13  14
ENDBRANCH   7  13
ENDBRANCH   1  10
BRANCH   4  22
ATOM     22  C   UNL     1       2.197   6.846  19.314  0.00  0.00    +0.000 C 
ATOM     23  O   UNL     1       2.114   6.365  20.438  0.00  0.00    +0.000 OA
ATOM     24  N   UNL     1       2.599   6.142  18.187  0.00  0.00    +0.000 N 
ATOM     25  H   UNL     1       2.195   6.469  17.319  0.00  0.00    +0.000 HD
BRANCH  24  26
ATOM     26  C   UNL     1       2.865   4.755  18.256  0.00  0.00    +0.000 A 
ATOM     27  C   UNL     1       1.740   3.926  18.065  0.00  0.00    +0.000 A 
ATOM     28  C   UNL     1       1.854   2.538  18.098  0.00  0.00    +0.000 A 
ATOM     29  C   UNL     1       3.096   1.961  18.298  0.00  0.00    +0.000 A 
ATOM     30  C   UNL     1       4.208   2.780  18.471  0.00  0.00    +0.000 A 
ATOM     31  C   UNL     1       4.132   4.194  18.454  0.00  0.00    +0.000 A 
BRANCH  31  32
ATOM     32  P   UNL     1       5.729   4.938  18.477  0.00  0.00    +0.000 P 
ATOM     33  O   UNL     1       6.480   4.987  19.776  0.00  0.00    +0.000 OA
BRANCH  32  34
ATOM     34  O   UNL     1       6.584   4.095  17.400  0.00  0.00    +0.000 OA
ATOM     35  H   UNL     1       7.460   4.495  17.252  0.00  0.00    +0.000 HD
ENDBRANCH  32  34
BRANCH  32  36
ATOM     36  O   UNL     1       5.885   6.350  17.747  0.00  0.00    +0.000 OA
ATOM     37  H   UNL     1       5.084   6.871  17.957  0.00  0.00    +0.000 HD
ENDBRANCH  32  36
ENDBRANCH  31  32
ENDBRANCH  24  26
ENDBRANCH   4  22
TORSDOF 14
ENDMDL
