MODEL 1
REMARK VINA RESULT:      -7.2      0.000      0.000
REMARK  Name = 
REMARK  8 active torsions:
REMARK  status: ('A' for Active; 'I' for Inactive)
REMARK    1  A    between atoms: C_1  and  C_2
REMARK    2  A    between atoms: C_2  and  C_3
REMARK    3  A    between atoms: C_6  and  O_7
REMARK    4  A    between atoms: O_7  and  C_8
REMARK    5  A    between atoms: C_8  and  C_9
REMARK    6  A    between atoms: C_9  and  O_10
REMARK    7  A    between atoms: C_9  and  C_11
REMARK    8  A    between atoms: C_11  and  O_12
REMARK                            x       y       z     vdW  Elec       q    Type
REMARK                         _______ _______ _______ _____ _____    ______ ____
ROOT
ATOM      1  C   UNL     1      -0.551   8.276  21.567  0.00  0.00    +0.000 C 
ATOM      2  C   UNL     1       0.810   8.901  21.200  0.00  0.00    +0.000 C 
ATOM      3  C   UNL     1       1.696   9.041  22.454  0.00  0.00    +0.000 C 
ATOM      4  C   UNL     1       1.538   8.025  20.158  0.00  0.00    +0.000 A 
ATOM      5  C   UNL     1       1.840   6.685  20.467  0.00  0.00    +0.000 A 
ATOM      6  C   UNL     1       2.520   5.855  19.573  0.00  0.00    +0.000 A 
ATOM      7  C   UNL     1       2.915   6.357  18.339  0.00  0.00    +0.000 A 
ATOM      8  C   UNL     1       2.629   7.684  18.000  0.00  0.00    +0.000 A 
ATOM      9  C   UNL     1       1.944   8.522  18.895  0.00  0.00    +0.000 A 
ATOM     10  C   UNL     1       1.674   9.936  18.460  0.00  0.00    +0.000 C 
ATOM     11  O   UNL     1       2.040  10.345  17.366  0.00  0.00    +0.000 OA
ATOM     12  C   UNL     1       0.963  10.760  19.409  0.00  0.00    +0.000 A 
ATOM     13  C   UNL     1       0.579  10.264  20.629  0.00  0.00    +0.000 A 
ATOM     14  O   UNL     1      -0.073  11.201  21.364  0.00  0.00    +0.000 OA
ATOM     15  C   UNL     1      -0.102  12.331  20.601  0.00  0.00    +0.000 A 
ATOM     16  C   UNL     1      -0.674  13.541  20.981  0.00  0.00    +0.000 A 
ATOM     17  C   UNL     1      -0.589  14.588  20.058  0.00  0.00    +0.000 A 
ATOM     18  C   UNL     1       0.036  14.412  18.821  0.00  0.00    +0.000 A 
ATOM     19  C   UNL     1       0.600  13.178  18.463  0.00  0.00    +0.000 A 
ATOM     20  C   UNL     1       0.531  12.111  19.376  0.00  0.00    +0.000 A 
ENDROOT
BRANCH   6  21
ATOM     21  O   UNL     1       2.726   4.588  20.039  0.00  0.00    +0.000 OA
BRANCH  21  22
ATOM     22  C   UNL     1       2.103   3.521  19.328  0.00  0.00    +0.000 C 
BRANCH  22  23
ATOM     23  C   UNL     1       2.922   2.243  19.532  0.00  0.00    +0.000 C 
BRANCH  23  24
ATOM     24  O   UNL     1       2.978   1.519  18.298  0.00  0.00    +0.000 OA
ATOM     25  H   UNL     1       3.799   1.768  17.839  0.00  0.00    +0.000 HD
ENDBRANCH  23  24
BRANCH  23  26
ATOM     26  C   UNL     1       4.336   2.552  20.052  0.00  0.00    +0.000 C 
BRANCH  26  27
ATOM     27  O   UNL     1       5.150   3.132  19.035  0.00  0.00    +0.000 OA
ATOM     28  H   UNL     1       6.070   3.130  19.353  0.00  0.00    +0.000 HD
ENDBRANCH  26  27
ENDBRANCH  23  26
ENDBRANCH  22  23
ENDBRANCH  21  22
ENDBRANCH   6  21
TORSDOF 6
ENDMDL
MODEL 2
REMARK VINA RESULT:      -7.2      1.064      1.454
REMARK  Name = 
REMARK  8 active torsions:
REMARK  status: ('A' for Active; 'I' for Inactive)
REMARK    1  A    between atoms: C_1  and  C_2
REMARK    2  A    between atoms: C_2  and  C_3
REMARK    3  A    between atoms: C_6  and  O_7
REMARK    4  A    between atoms: O_7  and  C_8
REMARK    5  A    between atoms: C_8  and  C_9
REMARK    6  A    between atoms: C_9  and  O_10
REMARK    7  A    between atoms: C_9  and  C_11
REMARK    8  A    between atoms: C_11  and  O_12
REMARK                            x       y       z     vdW  Elec       q    Type
REMARK                         _______ _______ _______ _____ _____    ______ ____
ROOT
ATOM      1  C   UNL     1      -0.555   8.323  21.532  0.00  0.00    +0.000 C 
ATOM      2  C   UNL     1       0.778   9.015  21.181  0.00  0.00    +0.000 C 
ATOM      3  C   UNL     1       1.644   9.192  22.445  0.00  0.00    +0.000 C 
ATOM      4  C   UNL     1       1.558   8.180  20.143  0.00  0.00    +0.000 A 
ATOM      5  C   UNL     1       1.921   6.854  20.451  0.00  0.00    +0.000 A 
ATOM      6  C   UNL     1       2.649   6.062  19.560  0.00  0.00    +0.000 A 
ATOM      7  C   UNL     1       3.032   6.588  18.332  0.00  0.00    +0.000 A 
ATOM      8  C   UNL     1       2.685   7.901  17.996  0.00  0.00    +0.000 A 
ATOM      9  C   UNL     1       1.952   8.701  18.886  0.00  0.00    +0.000 A 
ATOM     10  C   UNL     1       1.618  10.103  18.454  0.00  0.00    +0.000 C 
ATOM     11  O   UNL     1       1.974  10.534  17.365  0.00  0.00    +0.000 OA
ATOM     12  C   UNL     1       0.858  10.887  19.399  0.00  0.00    +0.000 A 
ATOM     13  C   UNL     1       0.486  10.368  20.613  0.00  0.00    +0.000 A 
ATOM     14  O   UNL     1      -0.217  11.269  21.345  0.00  0.00    +0.000 OA
ATOM     15  C   UNL     1      -0.293  12.399  20.586  0.00  0.00    +0.000 A 
ATOM     16  C   UNL     1      -0.927  13.578  20.964  0.00  0.00    +0.000 A 
ATOM     17  C   UNL     1      -0.884  14.632  20.047  0.00  0.00    +0.000 A 
ATOM     18  C   UNL     1      -0.238  14.492  18.815  0.00  0.00    +0.000 A 
ATOM     19  C   UNL     1       0.388  13.289  18.459  0.00  0.00    +0.000 A 
ATOM     20  C   UNL     1       0.361  12.215  19.367  0.00  0.00    +0.000 A 
ENDROOT
BRANCH   6  21
ATOM     21  O   UNL     1       2.912   4.805  20.023  0.00  0.00    +0.000 OA
BRANCH  21  22
ATOM     22  C   UNL     1       2.213   4.379  21.190  0.00  0.00    +0.000 C 
BRANCH  22  23
ATOM     23  C   UNL     1       2.229   2.849  21.249  0.00  0.00    +0.000 C 
BRANCH  23  24
ATOM     24  O   UNL     1       1.382   2.410  22.317  0.00  0.00    +0.000 OA
ATOM     25  H   UNL     1       0.510   2.199  21.941  0.00  0.00    +0.000 HD
ENDBRANCH  23  24
BRANCH  23  26
ATOM     26  C   UNL     1       1.795   2.225  19.912  0.00  0.00    +0.000 C 
BRANCH  26  27
ATOM     27  O   UNL     1       0.694   2.930  19.341  0.00  0.00    +0.000 OA
ATOM     28  H   UNL     1       0.687   3.827  19.718  0.00  0.00    +0.000 HD
ENDBRANCH  26  27
ENDBRANCH  23  26
ENDBRANCH  22  23
ENDBRANCH  21  22
ENDBRANCH   6  21
TORSDOF 6
ENDMDL
MODEL 3
REMARK VINA RESULT:      -7.0      0.822      1.139
REMARK  Name = 
REMARK  8 active torsions:
REMARK  status: ('A' for Active; 'I' for Inactive)
REMARK    1  A    between atoms: C_1  and  C_2
REMARK    2  A    between atoms: C_2  and  C_3
REMARK    3  A    between atoms: C_6  and  O_7
REMARK    4  A    between atoms: O_7  and  C_8
REMARK    5  A    between atoms: C_8  and  C_9
REMARK    6  A    between atoms: C_9  and  O_10
REMARK    7  A    between atoms: C_9  and  C_11
REMARK    8  A    between atoms: C_11  and  O_12
REMARK                            x       y       z     vdW  Elec       q    Type
REMARK                         _______ _______ _______ _____ _____    ______ ____
ROOT
ATOM      1  C   UNL     1      -0.605   8.398  21.553  0.00  0.00    +0.000 C 
ATOM      2  C   UNL     1       0.729   9.089  21.206  0.00  0.00    +0.000 C 
ATOM      3  C   UNL     1       1.588   9.272  22.474  0.00  0.00    +0.000 C 
ATOM      4  C   UNL     1       1.515   8.249  20.177  0.00  0.00    +0.000 A 
ATOM      5  C   UNL     1       1.877   6.925  20.494  0.00  0.00    +0.000 A 
ATOM      6  C   UNL     1       2.611   6.128  19.611  0.00  0.00    +0.000 A 
ATOM      7  C   UNL     1       3.000   6.648  18.382  0.00  0.00    +0.000 A 
ATOM      8  C   UNL     1       2.655   7.960  18.038  0.00  0.00    +0.000 A 
ATOM      9  C   UNL     1       1.916   8.764  18.920  0.00  0.00    +0.000 A 
ATOM     10  C   UNL     1       1.584  10.163  18.479  0.00  0.00    +0.000 C 
ATOM     11  O   UNL     1       1.946  10.589  17.390  0.00  0.00    +0.000 OA
ATOM     12  C   UNL     1       0.819  10.952  19.415  0.00  0.00    +0.000 A 
ATOM     13  C   UNL     1       0.440  10.438  20.631  0.00  0.00    +0.000 A 
ATOM     14  O   UNL     1      -0.268  11.343  21.354  0.00  0.00    +0.000 OA
ATOM     15  C   UNL     1      -0.340  12.469  20.589  0.00  0.00    +0.000 A 
ATOM     16  C   UNL     1      -0.976  13.650  20.958  0.00  0.00    +0.000 A 
ATOM     17  C   UNL     1      -0.929  14.700  20.035  0.00  0.00    +0.000 A 
ATOM     18  C   UNL     1      -0.276  14.553  18.808  0.00  0.00    +0.000 A 
ATOM     19  C   UNL     1       0.353  13.348  18.461  0.00  0.00    +0.000 A 
ATOM     20  C   UNL     1       0.322  12.280  19.374  0.00  0.00    +0.000 A 
ENDROOT
BRANCH   6  21
ATOM     21  O   UNL     1       2.871   4.874  20.082  0.00  0.00    +0.000 OA
BRANCH  21  22
ATOM     22  C   UNL     1       2.915   3.815  19.129  0.00  0.00    +0.000 C 
BRANCH  22  23
ATOM     23  C   UNL     1       2.841   2.476  19.870  0.00  0.00    +0.000 C 
BRANCH  23  24
ATOM     24  O   UNL     1       4.141   2.144  20.372  0.00  0.00    +0.000 OA
ATOM     25  H   UNL     1       4.371   2.791  21.061  0.00  0.00    +0.000 HD
ENDBRANCH  23  24
BRANCH  23  26
ATOM     26  C   UNL     1       1.806   2.513  21.007  0.00  0.00    +0.000 C 
BRANCH  26  27
ATOM     27  O   UNL     1       2.403   2.904  22.242  0.00  0.00    +0.000 OA
ATOM     28  H   UNL     1       2.500   3.872  22.232  0.00  0.00    +0.000 HD
ENDBRANCH  26  27
ENDBRANCH  23  26
ENDBRANCH  22  23
ENDBRANCH  21  22
ENDBRANCH   6  21
TORSDOF 6
ENDMDL
MODEL 4
REMARK VINA RESULT:      -6.9      1.775      3.229
REMARK  Name = 
REMARK  8 active torsions:
REMARK  status: ('A' for Active; 'I' for Inactive)
REMARK    1  A    between atoms: C_1  and  C_2
REMARK    2  A    between atoms: C_2  and  C_3
REMARK    3  A    between atoms: C_6  and  O_7
REMARK    4  A    between atoms: O_7  and  C_8
REMARK    5  A    between atoms: C_8  and  C_9
REMARK    6  A    between atoms: C_9  and  O_10
REMARK    7  A    between atoms: C_9  and  C_11
REMARK    8  A    between atoms: C_11  and  O_12
REMARK                            x       y       z     vdW  Elec       q    Type
REMARK                         _______ _______ _______ _____ _____    ______ ____
ROOT
ATOM      1  C   UNL     1       1.963  11.219  18.106  0.00  0.00    +0.000 C 
ATOM      2  C   UNL     1       0.817  10.355  18.670  0.00  0.00    +0.000 C 
ATOM      3  C   UNL     1      -0.246  10.091  17.584  0.00  0.00    +0.000 C 
ATOM      4  C   UNL     1       1.365   9.006  19.182  0.00  0.00    +0.000 A 
ATOM      5  C   UNL     1       2.045   8.150  18.293  0.00  0.00    +0.000 A 
ATOM      6  C   UNL     1       2.539   6.908  18.696  0.00  0.00    +0.000 A 
ATOM      7  C   UNL     1       2.360   6.493  20.011  0.00  0.00    +0.000 A 
ATOM      8  C   UNL     1       1.691   7.321  20.919  0.00  0.00    +0.000 A 
ATOM      9  C   UNL     1       1.194   8.572  20.520  0.00  0.00    +0.000 A 
ATOM     10  C   UNL     1       0.485   9.404  21.553  0.00  0.00    +0.000 C 
ATOM     11  O   UNL     1       0.343   9.005  22.702  0.00  0.00    +0.000 OA
ATOM     12  C   UNL     1      -0.004  10.684  21.100  0.00  0.00    +0.000 A 
ATOM     13  C   UNL     1       0.168  11.089  19.800  0.00  0.00    +0.000 A 
ATOM     14  O   UNL     1      -0.366  12.318  19.587  0.00  0.00    +0.000 OA
ATOM     15  C   UNL     1      -0.903  12.712  20.777  0.00  0.00    +0.000 A 
ATOM     16  C   UNL     1      -1.560  13.917  21.001  0.00  0.00    +0.000 A 
ATOM     17  C   UNL     1      -2.052  14.129  22.293  0.00  0.00    +0.000 A 
ATOM     18  C   UNL     1      -1.880  13.173  23.297  0.00  0.00    +0.000 A 
ATOM     19  C   UNL     1      -1.207  11.969  23.043  0.00  0.00    +0.000 A 
ATOM     20  C   UNL     1      -0.707  11.731  21.751  0.00  0.00    +0.000 A 
ENDROOT
BRANCH   6  21
ATOM     21  O   UNL     1       3.170   6.213  17.704  0.00  0.00    +0.000 OA
BRANCH  21  22
ATOM     22  C   UNL     1       4.029   5.147  18.097  0.00  0.00    +0.000 C 
BRANCH  22  23
ATOM     23  C   UNL     1       3.647   3.886  17.315  0.00  0.00    +0.000 C 
BRANCH  23  24
ATOM     24  O   UNL     1       4.722   2.943  17.391  0.00  0.00    +0.000 OA
ATOM     25  H   UNL     1       5.407   3.216  16.757  0.00  0.00    +0.000 HD
ENDBRANCH  23  24
BRANCH  23  26
ATOM     26  C   UNL     1       2.338   3.271  17.836  0.00  0.00    +0.000 C 
BRANCH  26  27
ATOM     27  O   UNL     1       1.198   3.961  17.327  0.00  0.00    +0.000 OA
ATOM     28  H   UNL     1       1.275   4.895  17.588  0.00  0.00    +0.000 HD
ENDBRANCH  26  27
ENDBRANCH  23  26
ENDBRANCH  22  23
ENDBRANCH  21  22
ENDBRANCH   6  21
TORSDOF 6
ENDMDL
MODEL 5
REMARK VINA RESULT:      -6.9      0.559      1.071
REMARK  Name = 
REMARK  8 active torsions:
REMARK  status: ('A' for Active; 'I' for Inactive)
REMARK    1  A    between atoms: C_1  and  C_2
REMARK    2  A    between atoms: C_2  and  C_3
REMARK    3  A    between atoms: C_6  and  O_7
REMARK    4  A    between atoms: O_7  and  C_8
REMARK    5  A    between atoms: C_8  and  C_9
REMARK    6  A    between atoms: C_9  and  O_10
REMARK    7  A    between atoms: C_9  and  C_11
REMARK    8  A    between atoms: C_11  and  O_12
REMARK                            x       y       z     vdW  Elec       q    Type
REMARK                         _______ _______ _______ _____ _____    ______ ____
ROOT
ATOM      1  C   UNL     1      -0.566   8.376  21.533  0.00  0.00    +0.000 C 
ATOM      2  C   UNL     1       0.766   9.066  21.176  0.00  0.00    +0.000 C 
ATOM      3  C   UNL     1       1.650   9.218  22.431  0.00  0.00    +0.000 C 
ATOM      4  C   UNL     1       1.528   8.245  20.115  0.00  0.00    +0.000 A 
ATOM      5  C   UNL     1       1.888   6.912  20.396  0.00  0.00    +0.000 A 
ATOM      6  C   UNL     1       2.600   6.131  19.482  0.00  0.00    +0.000 A 
ATOM      7  C   UNL     1       2.969   6.675  18.258  0.00  0.00    +0.000 A 
ATOM      8  C   UNL     1       2.625   7.996  17.948  0.00  0.00    +0.000 A 
ATOM      9  C   UNL     1       1.908   8.785  18.862  0.00  0.00    +0.000 A 
ATOM     10  C   UNL     1       1.576  10.195  18.457  0.00  0.00    +0.000 C 
ATOM     11  O   UNL     1       1.921  10.642  17.370  0.00  0.00    +0.000 OA
ATOM     12  C   UNL     1       0.833  10.967  19.424  0.00  0.00    +0.000 A 
ATOM     13  C   UNL     1       0.475  10.430  20.635  0.00  0.00    +0.000 A 
ATOM     14  O   UNL     1      -0.214  11.323  21.390  0.00  0.00    +0.000 OA
ATOM     15  C   UNL     1      -0.294  12.465  20.651  0.00  0.00    +0.000 A 
ATOM     16  C   UNL     1      -0.916  13.642  21.058  0.00  0.00    +0.000 A 
ATOM     17  C   UNL     1      -0.879  14.711  20.157  0.00  0.00    +0.000 A 
ATOM     18  C   UNL     1      -0.251  14.587  18.915  0.00  0.00    +0.000 A 
ATOM     19  C   UNL     1       0.364  13.387  18.530  0.00  0.00    +0.000 A 
ATOM     20  C   UNL     1       0.344  12.299  19.421  0.00  0.00    +0.000 A 
ENDROOT
BRANCH   6  21
ATOM     21  O   UNL     1       2.861   4.865  19.921  0.00  0.00    +0.000 OA
BRANCH  21  22
ATOM     22  C   UNL     1       4.206   4.404  19.824  0.00  0.00    +0.000 C 
BRANCH  22  23
ATOM     23  C   UNL     1       4.217   3.043  19.123  0.00  0.00    +0.000 C 
BRANCH  23  24
ATOM     24  O   UNL     1       5.112   2.165  19.813  0.00  0.00    +0.000 OA
ATOM     25  H   UNL     1       5.171   2.462  20.738  0.00  0.00    +0.000 HD
ENDBRANCH  23  24
BRANCH  23  26
ATOM     26  C   UNL     1       2.806   2.436  19.042  0.00  0.00    +0.000 C 
BRANCH  26  27
ATOM     27  O   UNL     1       2.816   1.180  18.366  0.00  0.00    +0.000 OA
ATOM     28  H   UNL     1       1.977   0.728  18.565  0.00  0.00    +0.000 HD
ENDBRANCH  26  27
ENDBRANCH  23  26
ENDBRANCH  22  23
ENDBRANCH  21  22
ENDBRANCH   6  21
TORSDOF 6
ENDMDL
MODEL 6
REMARK VINA RESULT:      -6.8      1.662      2.146
REMARK  Name = 
REMARK  8 active torsions:
REMARK  status: ('A' for Active; 'I' for Inactive)
REMARK    1  A    between atoms: C_1  and  C_2
REMARK    2  A    between atoms: C_2  and  C_3
REMARK    3  A    between atoms: C_6  and  O_7
REMARK    4  A    between atoms: O_7  and  C_8
REMARK    5  A    between atoms: C_8  and  C_9
REMARK    6  A    between atoms: C_9  and  O_10
REMARK    7  A    between atoms: C_9  and  C_11
REMARK    8  A    between atoms: C_11  and  O_12
REMARK                            x       y       z     vdW  Elec       q    Type
REMARK                         _______ _______ _______ _____ _____    ______ ____
ROOT
ATOM      1  C   UNL     1      -0.500   8.164  21.932  0.00  0.00    +0.000 C 
ATOM      2  C   UNL     1       0.601   9.182  21.574  0.00  0.00    +0.000 C 
ATOM      3  C   UNL     1       1.643   9.272  22.708  0.00  0.00    +0.000 C 
ATOM      4  C   UNL     1       1.308   8.768  20.266  0.00  0.00    +0.000 A 
ATOM      5  C   UNL     1       1.949   7.516  20.190  0.00  0.00    +0.000 A 
ATOM      6  C   UNL     1       2.626   7.101  19.041  0.00  0.00    +0.000 A 
ATOM      7  C   UNL     1       2.675   7.941  17.934  0.00  0.00    +0.000 A 
ATOM      8  C   UNL     1       2.046   9.190  17.978  0.00  0.00    +0.000 A 
ATOM      9  C   UNL     1       1.363   9.611  19.130  0.00  0.00    +0.000 A 
ATOM     10  C   UNL     1       0.714  10.968  19.100  0.00  0.00    +0.000 C 
ATOM     11  O   UNL     1       0.780  11.683  18.109  0.00  0.00    +0.000 OA
ATOM     12  C   UNL     1       0.018  11.357  20.304  0.00  0.00    +0.000 A 
ATOM     13  C   UNL     1      -0.023  10.529  21.397  0.00  0.00    +0.000 A 
ATOM     14  O   UNL     1      -0.725  11.086  22.417  0.00  0.00    +0.000 OA
ATOM     15  C   UNL     1      -1.138  12.307  21.972  0.00  0.00    +0.000 A 
ATOM     16  C   UNL     1      -1.887  13.218  22.710  0.00  0.00    +0.000 A 
ATOM     17  C   UNL     1      -2.202  14.425  22.077  0.00  0.00    +0.000 A 
ATOM     18  C   UNL     1      -1.783  14.686  20.770  0.00  0.00    +0.000 A 
ATOM     19  C   UNL     1      -1.033  13.745  20.048  0.00  0.00    +0.000 A 
ATOM     20  C   UNL     1      -0.701  12.526  20.664  0.00  0.00    +0.000 A 
ENDROOT
BRANCH   6  21
ATOM     21  O   UNL     1       3.186   5.860  19.144  0.00  0.00    +0.000 OA
BRANCH  21  22
ATOM     22  C   UNL     1       4.355   5.604  18.370  0.00  0.00    +0.000 C 
BRANCH  22  23
ATOM     23  C   UNL     1       5.428   4.993  19.276  0.00  0.00    +0.000 C 
BRANCH  23  24
ATOM     24  O   UNL     1       5.514   3.587  19.020  0.00  0.00    +0.000 OA
ATOM     25  H   UNL     1       6.070   3.189  19.712  0.00  0.00    +0.000 HD
ENDBRANCH  23  24
BRANCH  23  26
ATOM     26  C   UNL     1       6.793   5.672  19.075  0.00  0.00    +0.000 C 
BRANCH  26  27
ATOM     27  O   UNL     1       7.650   5.462  20.196  0.00  0.00    +0.000 OA
ATOM     28  H   UNL     1       7.622   6.264  20.746  0.00  0.00    +0.000 HD
ENDBRANCH  26  27
ENDBRANCH  23  26
ENDBRANCH  22  23
ENDBRANCH  21  22
ENDBRANCH   6  21
TORSDOF 6
ENDMDL
MODEL 7
REMARK VINA RESULT:      -6.8      1.402      2.078
REMARK  Name = 
REMARK  8 active torsions:
REMARK  status: ('A' for Active; 'I' for Inactive)
REMARK    1  A    between atoms: C_1  and  C_2
REMARK    2  A    between atoms: C_2  and  C_3
REMARK    3  A    between atoms: C_6  and  O_7
REMARK    4  A    between atoms: O_7  and  C_8
REMARK    5  A    between atoms: C_8  and  C_9
REMARK    6  A    between atoms: C_9  and  O_10
REMARK    7  A    between atoms: C_9  and  C_11
REMARK    8  A    between atoms: C_11  and  O_12
REMARK                            x       y       z     vdW  Elec       q    Type
REMARK                         _______ _______ _______ _____ _____    ______ ____
ROOT
ATOM      1  C   UNL     1      -0.531   8.382  22.098  0.00  0.00    +0.000 C 
ATOM      2  C   UNL     1       0.657   9.294  21.730  0.00  0.00    +0.000 C 
ATOM      3  C   UNL     1       1.764   9.196  22.800  0.00  0.00    +0.000 C 
ATOM      4  C   UNL     1       1.238   8.890  20.359  0.00  0.00    +0.000 A 
ATOM      5  C   UNL     1       1.728   7.583  20.170  0.00  0.00    +0.000 A 
ATOM      6  C   UNL     1       2.288   7.171  18.959  0.00  0.00    +0.000 A 
ATOM      7  C   UNL     1       2.369   8.070  17.902  0.00  0.00    +0.000 A 
ATOM      8  C   UNL     1       1.890   9.376  18.057  0.00  0.00    +0.000 A 
ATOM      9  C   UNL     1       1.325   9.794  19.272  0.00  0.00    +0.000 A 
ATOM     10  C   UNL     1       0.832  11.213  19.362  0.00  0.00    +0.000 C 
ATOM     11  O   UNL     1       0.923  11.978  18.411  0.00  0.00    +0.000 OA
ATOM     12  C   UNL     1       0.254  11.598  20.627  0.00  0.00    +0.000 A 
ATOM     13  C   UNL     1       0.180  10.710  21.671  0.00  0.00    +0.000 A 
ATOM     14  O   UNL     1      -0.396  11.274  22.763  0.00  0.00    +0.000 OA
ATOM     15  C   UNL     1      -0.693  12.559  22.416  0.00  0.00    +0.000 A 
ATOM     16  C   UNL     1      -1.291  13.497  23.251  0.00  0.00    +0.000 A 
ATOM     17  C   UNL     1      -1.501  14.770  22.711  0.00  0.00    +0.000 A 
ATOM     18  C   UNL     1      -1.129  15.067  21.396  0.00  0.00    +0.000 A 
ATOM     19  C   UNL     1      -0.533  14.098  20.576  0.00  0.00    +0.000 A 
ATOM     20  C   UNL     1      -0.307  12.812  21.099  0.00  0.00    +0.000 A 
ENDROOT
BRANCH   6  21
ATOM     21  O   UNL     1       2.709   5.873  18.955  0.00  0.00    +0.000 OA
BRANCH  21  22
ATOM     22  C   UNL     1       4.109   5.640  18.824  0.00  0.00    +0.000 C 
BRANCH  22  23
ATOM     23  C   UNL     1       4.328   4.253  18.211  0.00  0.00    +0.000 C 
BRANCH  23  24
ATOM     24  O   UNL     1       5.441   3.626  18.855  0.00  0.00    +0.000 OA
ATOM     25  H   UNL     1       5.945   3.139  18.180  0.00  0.00    +0.000 HD
ENDBRANCH  23  24
BRANCH  23  26
ATOM     26  C   UNL     1       3.066   3.380  18.321  0.00  0.00    +0.000 C 
BRANCH  26  27
ATOM     27  O   UNL     1       2.183   3.601  17.223  0.00  0.00    +0.000 OA
ATOM     28  H   UNL     1       1.954   4.546  17.211  0.00  0.00    +0.000 HD
ENDBRANCH  26  27
ENDBRANCH  23  26
ENDBRANCH  22  23
ENDBRANCH  21  22
ENDBRANCH   6  21
TORSDOF 6
ENDMDL
MODEL 8
REMARK VINA RESULT:      -6.8      1.832      3.217
REMARK  Name = 
REMARK  8 active torsions:
REMARK  status: ('A' for Active; 'I' for Inactive)
REMARK    1  A    between atoms: C_1  and  C_2
REMARK    2  A    between atoms: C_2  and  C_3
REMARK    3  A    between atoms: C_6  and  O_7
REMARK    4  A    between atoms: O_7  and  C_8
REMARK    5  A    between atoms: C_8  and  C_9
REMARK    6  A    between atoms: C_9  and  O_10
REMARK    7  A    between atoms: C_9  and  C_11
REMARK    8  A    between atoms: C_11  and  O_12
REMARK                            x       y       z     vdW  Elec       q    Type
REMARK                         _______ _______ _______ _____ _____    ______ ____
ROOT
ATOM      1  C   UNL     1       2.063  10.836  18.066  0.00  0.00    +0.000 C 
ATOM      2  C   UNL     1       0.930   9.925  18.579  0.00  0.00    +0.000 C 
ATOM      3  C   UNL     1      -0.083   9.637  17.452  0.00  0.00    +0.000 C 
ATOM      4  C   UNL     1       1.508   8.591  19.096  0.00  0.00    +0.000 A 
ATOM      5  C   UNL     1       2.250   7.771  18.223  0.00  0.00    +0.000 A 
ATOM      6  C   UNL     1       2.774   6.542  18.630  0.00  0.00    +0.000 A 
ATOM      7  C   UNL     1       2.563   6.105  19.933  0.00  0.00    +0.000 A 
ATOM      8  C   UNL     1       1.832   6.897  20.825  0.00  0.00    +0.000 A 
ATOM      9  C   UNL     1       1.304   8.134  20.422  0.00  0.00    +0.000 A 
ATOM     10  C   UNL     1       0.529   8.928  21.437  0.00  0.00    +0.000 C 
ATOM     11  O   UNL     1       0.360   8.510  22.576  0.00  0.00    +0.000 OA
ATOM     12  C   UNL     1       0.010  10.195  20.981  0.00  0.00    +0.000 A 
ATOM     13  C   UNL     1       0.215  10.622  19.692  0.00  0.00    +0.000 A 
ATOM     14  O   UNL     1      -0.356  11.834  19.474  0.00  0.00    +0.000 OA
ATOM     15  C   UNL     1      -0.949  12.193  20.647  0.00  0.00    +0.000 A 
ATOM     16  C   UNL     1      -1.657  13.371  20.860  0.00  0.00    +0.000 A 
ATOM     17  C   UNL     1      -2.203  13.550  22.135  0.00  0.00    +0.000 A 
ATOM     18  C   UNL     1      -2.032  12.589  23.135  0.00  0.00    +0.000 A 
ATOM     19  C   UNL     1      -1.308  11.412  22.893  0.00  0.00    +0.000 A 
ATOM     20  C   UNL     1      -0.753  11.208  21.617  0.00  0.00    +0.000 A 
ENDROOT
BRANCH   6  21
ATOM     21  O   UNL     1       3.465   5.883  17.654  0.00  0.00    +0.000 OA
BRANCH  21  22
ATOM     22  C   UNL     1       3.835   4.532  17.915  0.00  0.00    +0.000 C 
BRANCH  22  23
ATOM     23  C   UNL     1       5.241   4.510  18.522  0.00  0.00    +0.000 C 
BRANCH  23  24
ATOM     24  O   UNL     1       5.449   3.256  19.180  0.00  0.00    +0.000 OA
ATOM     25  H   UNL     1       5.243   2.546  18.549  0.00  0.00    +0.000 HD
ENDBRANCH  23  24
BRANCH  23  26
ATOM     26  C   UNL     1       6.323   4.756  17.456  0.00  0.00    +0.000 C 
BRANCH  26  27
ATOM     27  O   UNL     1       7.605   4.324  17.905  0.00  0.00    +0.000 OA
ATOM     28  H   UNL     1       7.472   3.570  18.506  0.00  0.00    +0.000 HD
ENDBRANCH  26  27
ENDBRANCH  23  26
ENDBRANCH  22  23
ENDBRANCH  21  22
ENDBRANCH   6  21
TORSDOF 6
ENDMDL
MODEL 9
REMARK VINA RESULT:      -6.7      5.582      7.843
REMARK  Name = 
REMARK  8 active torsions:
REMARK  status: ('A' for Active; 'I' for Inactive)
REMARK    1  A    between atoms: C_1  and  C_2
REMARK    2  A    between atoms: C_2  and  C_3
REMARK    3  A    between atoms: C_6  and  O_7
REMARK    4  A    between atoms: O_7  and  C_8
REMARK    5  A    between atoms: C_8  and  C_9
REMARK    6  A    between atoms: C_9  and  O_10
REMARK    7  A    between atoms: C_9  and  C_11
REMARK    8  A    between atoms: C_11  and  O_12
REMARK                            x       y       z     vdW  Elec       q    Type
REMARK                         _______ _______ _______ _____ _____    ______ ____
ROOT
ATOM      1  C   UNL     1      -0.493  10.751  19.291  0.00  0.00    +0.000 C 
ATOM      2  C   UNL     1      -1.320  12.019  18.994  0.00  0.00    +0.000 C 
ATOM      3  C   UNL     1      -0.437  13.095  18.329  0.00  0.00    +0.000 C 
ATOM      4  C   UNL     1      -2.501  11.682  18.060  0.00  0.00    +0.000 A 
ATOM      5  C   UNL     1      -2.246  11.124  16.792  0.00  0.00    +0.000 A 
ATOM      6  C   UNL     1      -3.275  10.823  15.896  0.00  0.00    +0.000 A 
ATOM      7  C   UNL     1      -4.593  11.079  16.257  0.00  0.00    +0.000 A 
ATOM      8  C   UNL     1      -4.879  11.631  17.510  0.00  0.00    +0.000 A 
ATOM      9  C   UNL     1      -3.849  11.933  18.415  0.00  0.00    +0.000 A 
ATOM     10  C   UNL     1      -4.236  12.525  19.743  0.00  0.00    +0.000 C 
ATOM     11  O   UNL     1      -5.408  12.739  20.025  0.00  0.00    +0.000 OA
ATOM     12  C   UNL     1      -3.146  12.814  20.643  0.00  0.00    +0.000 A 
ATOM     13  C   UNL     1      -1.845  12.567  20.282  0.00  0.00    +0.000 A 
ATOM     14  O   UNL     1      -0.981  12.912  21.271  0.00  0.00    +0.000 OA
ATOM     15  C   UNL     1      -1.744  13.400  22.290  0.00  0.00    +0.000 A 
ATOM     16  C   UNL     1      -1.254  13.876  23.502  0.00  0.00    +0.000 A 
ATOM     17  C   UNL     1      -2.201  14.348  24.416  0.00  0.00    +0.000 A 
ATOM     18  C   UNL     1      -3.566  14.331  24.116  0.00  0.00    +0.000 A 
ATOM     19  C   UNL     1      -4.031  13.840  22.887  0.00  0.00    +0.000 A 
ATOM     20  C   UNL     1      -3.097  13.364  21.950  0.00  0.00    +0.000 A 
ENDROOT
BRANCH   6  21
ATOM     21  O   UNL     1      -2.844  10.289  14.716  0.00  0.00    +0.000 OA
BRANCH  21  22
ATOM     22  C   UNL     1      -3.790   9.547  13.951  0.00  0.00    +0.000 C 
BRANCH  22  23
ATOM     23  C   UNL     1      -3.712   9.998  12.489  0.00  0.00    +0.000 C 
BRANCH  23  24
ATOM     24  O   UNL     1      -2.497   9.508  11.911  0.00  0.00    +0.000 OA
ATOM     25  H   UNL     1      -1.811   9.513  12.601  0.00  0.00    +0.000 HD
ENDBRANCH  23  24
BRANCH  23  26
ATOM     26  C   UNL     1      -4.934   9.526  11.684  0.00  0.00    +0.000 C 
BRANCH  26  27
ATOM     27  O   UNL     1      -4.545   8.942  10.442  0.00  0.00    +0.000 OA
ATOM     28  H   UNL     1      -3.573   8.913  10.418  0.00  0.00    +0.000 HD
ENDBRANCH  26  27
ENDBRANCH  23  26
ENDBRANCH  22  23
ENDBRANCH  21  22
ENDBRANCH   6  21
TORSDOF 6
ENDMDL
