MODEL 1
REMARK VINA RESULT:      -7.5      0.000      0.000
REMARK  Name = 
REMARK  8 active torsions:
REMARK  status: ('A' for Active; 'I' for Inactive)
REMARK    1  A    between atoms: C_1  and  O_2
REMARK    2  A    between atoms: O_2  and  C_3
REMARK    3  A    between atoms: C_4  and  C_5
REMARK    4  A    between atoms: C_7  and  C_8
REMARK    5  A    between atoms: N_15  and  C_16
REMARK    6  A    between atoms: C_19  and  S_20
REMARK    7  A    between atoms: S_20  and  N_21
REMARK    8  A    between atoms: C_26  and  O_27
REMARK                            x       y       z     vdW  Elec       q    Type
REMARK                         _______ _______ _______ _____ _____    ______ ____
ROOT
ATOM      1  C   UNL     1       0.200  12.251  19.215  0.00  0.00    +0.000 A 
ATOM      2  C   UNL     1      -1.088  12.770  19.132  0.00  0.00    +0.000 A 
ATOM      3  C   UNL     1      -1.950  11.739  18.697  0.00  0.00    +0.000 A 
ATOM      4  N   UNL     1      -1.239  10.623  18.482  0.00  0.00    +0.000 NA
ATOM      5  N   UNL     1       0.016  10.883  18.947  0.00  0.00    +0.000 N 
ENDROOT
BRANCH   1   7
ATOM      6  C   UNL     1       1.789  13.517  20.772  0.00  0.00    +0.000 A 
ATOM      7  C   UNL     1       1.482  12.989  19.470  0.00  0.00    +0.000 A 
ATOM      8  C   UNL     1       2.411  13.248  18.435  0.00  0.00    +0.000 A 
ATOM      9  C   UNL     1       3.668  13.812  18.656  0.00  0.00    +0.000 A 
ATOM     10  C   UNL     1       3.928  14.263  19.937  0.00  0.00    +0.000 A 
ATOM     11  O   UNL     1       5.071  14.900  20.306  0.00  0.00    +0.000 OA
ATOM     12  C   UNL     1       4.933  15.236  21.608  0.00  0.00    +0.000 A 
ATOM     13  C   UNL     1       3.723  14.793  22.088  0.00  0.00    +0.000 A 
ATOM     14  C   UNL     1       3.041  14.161  21.002  0.00  0.00    +0.000 A 
BRANCH   6  16
ATOM     15  C   UNL     1       0.150  14.488  22.206  0.00  0.00    +0.000 C 
ATOM     16  O   UNL     1       0.848  13.322  21.776  0.00  0.00    +0.000 OA
ENDBRANCH   6  16
BRANCH   8  17
ATOM     17  O   UNL     1       2.168  13.019  17.103  0.00  0.00    +0.000 OA
ATOM     18  H   UNL     1       1.721  12.165  16.991  0.00  0.00    +0.000 HD
ENDBRANCH   8  17
ENDBRANCH   1   7
BRANCH   3  19
ATOM     19  C   UNL     1      -3.387  11.795  18.471  0.00  0.00    +0.000 A 
ATOM     20  C   UNL     1      -4.267  12.205  19.477  0.00  0.00    +0.000 A 
ATOM     21  C   UNL     1      -5.639  12.195  19.242  0.00  0.00    +0.000 A 
ATOM     22  C   UNL     1      -6.093  11.773  18.004  0.00  0.00    +0.000 A 
ATOM     23  N   UNL     1      -5.276  11.381  17.003  0.00  0.00    +0.000 NA
ATOM     24  C   UNL     1      -3.945  11.407  17.257  0.00  0.00    +0.000 A 
ENDBRANCH   3  19
BRANCH   5  25
ATOM     25  C   UNL     1       0.959   9.812  18.973  0.00  0.00    +0.000 A 
ATOM     26  C   UNL     1       1.052   9.017  20.132  0.00  0.00    +0.000 A 
ATOM     27  C   UNL     1       1.796   7.833  20.108  0.00  0.00    +0.000 A 
ATOM     28  C   UNL     1       2.471   7.468  18.940  0.00  0.00    +0.000 A 
ATOM     29  C   UNL     1       2.457   8.301  17.817  0.00  0.00    +0.000 A 
ATOM     30  C   UNL     1       1.702   9.477  17.835  0.00  0.00    +0.000 A 
BRANCH  28  31
ATOM     31  S   UNL     1       3.395   5.960  18.896  0.00  0.00    +0.000 S 
ATOM     32  O   UNL     1       4.662   6.198  18.246  0.00  0.00    +0.000 OA
ATOM     33  O   UNL     1       3.290   5.304  20.179  0.00  0.00    +0.000 OA
BRANCH  31  34
ATOM     34  N   UNL     1       2.502   5.024  17.827  0.00  0.00    +0.000 NA
ATOM     35  H   UNL     1       3.015   4.906  16.953  0.00  0.00    +0.000 HD
ATOM     36  H   UNL     1       2.241   4.144  18.272  0.00  0.00    +0.000 HD
ENDBRANCH  31  34
ENDBRANCH  28  31
ENDBRANCH   5  25
TORSDOF 7
ENDMDL
MODEL 2
REMARK VINA RESULT:      -7.5      0.794      1.104
REMARK  Name = 
REMARK  8 active torsions:
REMARK  status: ('A' for Active; 'I' for Inactive)
REMARK    1  A    between atoms: C_1  and  O_2
REMARK    2  A    between atoms: O_2  and  C_3
REMARK    3  A    between atoms: C_4  and  C_5
REMARK    4  A    between atoms: C_7  and  C_8
REMARK    5  A    between atoms: N_15  and  C_16
REMARK    6  A    between atoms: C_19  and  S_20
REMARK    7  A    between atoms: S_20  and  N_21
REMARK    8  A    between atoms: C_26  and  O_27
REMARK                            x       y       z     vdW  Elec       q    Type
REMARK                         _______ _______ _______ _____ _____    ______ ____
ROOT
ATOM      1  C   UNL     1       0.232  12.232  19.219  0.00  0.00    +0.000 A 
ATOM      2  C   UNL     1      -1.052  12.760  19.140  0.00  0.00    +0.000 A 
ATOM      3  C   UNL     1      -1.923  11.736  18.709  0.00  0.00    +0.000 A 
ATOM      4  N   UNL     1      -1.220  10.614  18.493  0.00  0.00    +0.000 NA
ATOM      5  N   UNL     1       0.038  10.866  18.953  0.00  0.00    +0.000 N 
ENDROOT
BRANCH   1   7
ATOM      6  C   UNL     1       1.838  13.487  20.770  0.00  0.00    +0.000 A 
ATOM      7  C   UNL     1       1.520  12.962  19.468  0.00  0.00    +0.000 A 
ATOM      8  C   UNL     1       2.447  13.216  18.429  0.00  0.00    +0.000 A 
ATOM      9  C   UNL     1       3.708  13.772  18.645  0.00  0.00    +0.000 A 
ATOM     10  C   UNL     1       3.977  14.220  19.925  0.00  0.00    +0.000 A 
ATOM     11  O   UNL     1       5.126  14.849  20.289  0.00  0.00    +0.000 OA
ATOM     12  C   UNL     1       4.996  15.184  21.593  0.00  0.00    +0.000 A 
ATOM     13  C   UNL     1       3.786  14.748  22.078  0.00  0.00    +0.000 A 
ATOM     14  C   UNL     1       3.095  14.123  20.994  0.00  0.00    +0.000 A 
BRANCH   6  16
ATOM     15  C   UNL     1       0.181  14.460  22.183  0.00  0.00    +0.000 C 
ATOM     16  O   UNL     1       0.899  13.297  21.778  0.00  0.00    +0.000 OA
ENDBRANCH   6  16
BRANCH   8  17
ATOM     17  O   UNL     1       2.196  12.989  17.099  0.00  0.00    +0.000 OA
ATOM     18  H   UNL     1       1.240  12.918  16.950  0.00  0.00    +0.000 HD
ENDBRANCH   8  17
ENDBRANCH   1   7
BRANCH   3  19
ATOM     19  C   UNL     1      -3.360  11.801  18.487  0.00  0.00    +0.000 A 
ATOM     20  C   UNL     1      -3.926  11.426  17.265  0.00  0.00    +0.000 A 
ATOM     21  C   UNL     1      -5.299  11.552  17.071  0.00  0.00    +0.000 A 
ATOM     22  C   UNL     1      -6.068  12.053  18.107  0.00  0.00    +0.000 A 
ATOM     23  N   UNL     1      -5.562  12.415  19.305  0.00  0.00    +0.000 NA
ATOM     24  C   UNL     1      -4.224  12.276  19.470  0.00  0.00    +0.000 A 
ENDBRANCH   3  19
BRANCH   5  25
ATOM     25  C   UNL     1       0.974   9.788  18.978  0.00  0.00    +0.000 A 
ATOM     26  C   UNL     1       1.074   9.001  20.141  0.00  0.00    +0.000 A 
ATOM     27  C   UNL     1       1.809   7.812  20.118  0.00  0.00    +0.000 A 
ATOM     28  C   UNL     1       2.469   7.433  18.946  0.00  0.00    +0.000 A 
ATOM     29  C   UNL     1       2.448   8.257  17.816  0.00  0.00    +0.000 A 
ATOM     30  C   UNL     1       1.702   9.439  17.833  0.00  0.00    +0.000 A 
BRANCH  28  31
ATOM     31  S   UNL     1       3.380   5.918  18.904  0.00  0.00    +0.000 S 
ATOM     32  O   UNL     1       2.759   5.016  17.964  0.00  0.00    +0.000 OA
ATOM     33  O   UNL     1       4.793   6.217  18.877  0.00  0.00    +0.000 OA
BRANCH  31  34
ATOM     34  N   UNL     1       3.075   5.275  20.424  0.00  0.00    +0.000 NA
ATOM     35  H   UNL     1       2.749   4.312  20.336  0.00  0.00    +0.000 HD
ATOM     36  H   UNL     1       3.902   5.375  21.014  0.00  0.00    +0.000 HD
ENDBRANCH  31  34
ENDBRANCH  28  31
ENDBRANCH   5  25
TORSDOF 7
ENDMDL
MODEL 3
REMARK VINA RESULT:      -7.1      3.620      7.423
REMARK  Name = 
REMARK  8 active torsions:
REMARK  status: ('A' for Active; 'I' for Inactive)
REMARK    1  A    between atoms: C_1  and  O_2
REMARK    2  A    between atoms: O_2  and  C_3
REMARK    3  A    between atoms: C_4  and  C_5
REMARK    4  A    between atoms: C_7  and  C_8
REMARK    5  A    between atoms: N_15  and  C_16
REMARK    6  A    between atoms: C_19  and  S_20
REMARK    7  A    between atoms: S_20  and  N_21
REMARK    8  A    between atoms: C_26  and  O_27
REMARK                            x       y       z     vdW  Elec       q    Type
REMARK                         _______ _______ _______ _____ _____    ______ ____
ROOT
ATOM      1  C   UNL     1       0.366  10.618  19.450  0.00  0.00    +0.000 A 
ATOM      2  C   UNL     1       0.669   9.263  19.379  0.00  0.00    +0.000 A 
ATOM      3  C   UNL     1       1.792   9.107  18.537  0.00  0.00    +0.000 A 
ATOM      4  N   UNL     1       2.168  10.305  18.068  0.00  0.00    +0.000 NA
ATOM      5  N   UNL     1       1.418  11.224  18.741  0.00  0.00    +0.000 N 
ENDROOT
BRANCH   1   7
ATOM      6  C   UNL     1      -0.923  11.431  21.508  0.00  0.00    +0.000 A 
ATOM      7  C   UNL     1      -0.831  11.268  20.082  0.00  0.00    +0.000 A 
ATOM      8  C   UNL     1      -1.941  11.693  19.313  0.00  0.00    +0.000 A 
ATOM      9  C   UNL     1      -3.009  12.417  19.843  0.00  0.00    +0.000 A 
ATOM     10  C   UNL     1      -3.025  12.583  21.216  0.00  0.00    +0.000 A 
ATOM     11  O   UNL     1      -4.025  13.198  21.900  0.00  0.00    +0.000 OA
ATOM     12  C   UNL     1      -3.715  13.113  23.214  0.00  0.00    +0.000 A 
ATOM     13  C   UNL     1      -2.508  12.476  23.378  0.00  0.00    +0.000 A 
ATOM     14  C   UNL     1      -2.043  12.107  22.076  0.00  0.00    +0.000 A 
BRANCH   6  16
ATOM     15  C   UNL     1      -0.123   9.770  23.019  0.00  0.00    +0.000 C 
ATOM     16  O   UNL     1       0.137  10.955  22.271  0.00  0.00    +0.000 OA
ENDBRANCH   6  16
BRANCH   8  17
ATOM     17  O   UNL     1      -2.113  11.406  17.981  0.00  0.00    +0.000 OA
ATOM     18  H   UNL     1      -2.318  10.465  17.870  0.00  0.00    +0.000 HD
ENDBRANCH   8  17
ENDBRANCH   1   7
BRANCH   3  19
ATOM     19  C   UNL     1       2.483   7.881  18.166  0.00  0.00    +0.000 A 
ATOM     20  C   UNL     1       2.040   6.632  18.613  0.00  0.00    +0.000 A 
ATOM     21  C   UNL     1       2.757   5.485  18.282  0.00  0.00    +0.000 A 
ATOM     22  C   UNL     1       3.899   5.621  17.511  0.00  0.00    +0.000 A 
ATOM     23  N   UNL     1       4.352   6.806  17.050  0.00  0.00    +0.000 NA
ATOM     24  C   UNL     1       3.632   7.905  17.382  0.00  0.00    +0.000 A 
ENDBRANCH   3  19
BRANCH   5  25
ATOM     25  C   UNL     1       1.709  12.607  18.542  0.00  0.00    +0.000 A 
ATOM     26  C   UNL     1       0.713  13.559  18.829  0.00  0.00    +0.000 A 
ATOM     27  C   UNL     1       1.035  14.919  18.861  0.00  0.00    +0.000 A 
ATOM     28  C   UNL     1       2.341  15.323  18.572  0.00  0.00    +0.000 A 
ATOM     29  C   UNL     1       3.312  14.389  18.197  0.00  0.00    +0.000 A 
ATOM     30  C   UNL     1       2.994  13.028  18.178  0.00  0.00    +0.000 A 
BRANCH  28  31
ATOM     31  S   UNL     1       2.761  17.040  18.634  0.00  0.00    +0.000 S 
ATOM     32  O   UNL     1       1.809  17.733  19.469  0.00  0.00    +0.000 OA
ATOM     33  O   UNL     1       4.189  17.172  18.810  0.00  0.00    +0.000 OA
BRANCH  31  34
ATOM     34  N   UNL     1       2.442  17.544  17.064  0.00  0.00    +0.000 NA
ATOM     35  H   UNL     1       1.568  17.133  16.737  0.00  0.00    +0.000 HD
ATOM     36  H   UNL     1       2.460  18.563  17.018  0.00  0.00    +0.000 HD
ENDBRANCH  31  34
ENDBRANCH  28  31
ENDBRANCH   5  25
TORSDOF 7
ENDMDL
MODEL 4
REMARK VINA RESULT:      -7.1      2.498      6.248
REMARK  Name = 
REMARK  8 active torsions:
REMARK  status: ('A' for Active; 'I' for Inactive)
REMARK    1  A    between atoms: C_1  and  O_2
REMARK    2  A    between atoms: O_2  and  C_3
REMARK    3  A    between atoms: C_4  and  C_5
REMARK    4  A    between atoms: C_7  and  C_8
REMARK    5  A    between atoms: N_15  and  C_16
REMARK    6  A    between atoms: C_19  and  S_20
REMARK    7  A    between atoms: S_20  and  N_21
REMARK    8  A    between atoms: C_26  and  O_27
REMARK                            x       y       z     vdW  Elec       q    Type
REMARK                         _______ _______ _______ _____ _____    ______ ____
ROOT
ATOM      1  C   UNL     1      -0.020  12.589  18.683  0.00  0.00    +0.000 A 
ATOM      2  C   UNL     1       0.525  13.856  18.505  0.00  0.00    +0.000 A 
ATOM      3  C   UNL     1       1.920  13.767  18.707  0.00  0.00    +0.000 A 
ATOM      4  N   UNL     1       2.245  12.507  19.030  0.00  0.00    +0.000 NA
ATOM      5  N   UNL     1       1.110  11.771  18.857  0.00  0.00    +0.000 N 
ENDROOT
BRANCH   1   7
ATOM      6  C   UNL     1      -2.314  12.637  19.819  0.00  0.00    +0.000 A 
ATOM      7  C   UNL     1      -1.470  12.203  18.738  0.00  0.00    +0.000 A 
ATOM      8  C   UNL     1      -2.053  11.354  17.768  0.00  0.00    +0.000 A 
ATOM      9  C   UNL     1      -3.420  11.081  17.709  0.00  0.00    +0.000 A 
ATOM     10  C   UNL     1      -4.193  11.560  18.752  0.00  0.00    +0.000 A 
ATOM     11  O   UNL     1      -5.524  11.324  18.887  0.00  0.00    +0.000 OA
ATOM     12  C   UNL     1      -5.911  11.899  20.048  0.00  0.00    +0.000 A 
ATOM     13  C   UNL     1      -4.845  12.530  20.645  0.00  0.00    +0.000 A 
ATOM     14  C   UNL     1      -3.702  12.308  19.815  0.00  0.00    +0.000 A 
BRANCH   6  16
ATOM     15  C   UNL     1      -2.114  14.790  20.826  0.00  0.00    +0.000 C 
ATOM     16  O   UNL     1      -1.728  13.417  20.810  0.00  0.00    +0.000 OA
ENDBRANCH   6  16
BRANCH   8  17
ATOM     17  O   UNL     1      -1.342  10.674  16.810  0.00  0.00    +0.000 OA
ATOM     18  H   UNL     1      -1.154  11.259  16.060  0.00  0.00    +0.000 HD
ENDBRANCH   8  17
ENDBRANCH   1   7
BRANCH   3  19
ATOM     19  C   UNL     1       2.917  14.824  18.620  0.00  0.00    +0.000 A 
ATOM     20  C   UNL     1       4.240  14.548  18.264  0.00  0.00    +0.000 A 
ATOM     21  C   UNL     1       5.180  15.575  18.243  0.00  0.00    +0.000 A 
ATOM     22  C   UNL     1       4.767  16.853  18.580  0.00  0.00    +0.000 A 
ATOM     23  N   UNL     1       3.497  17.163  18.917  0.00  0.00    +0.000 NA
ATOM     24  C   UNL     1       2.602  16.145  18.924  0.00  0.00    +0.000 A 
ENDBRANCH   3  19
BRANCH   5  25
ATOM     25  C   UNL     1       1.200  10.353  18.996  0.00  0.00    +0.000 A 
ATOM     26  C   UNL     1       1.690   9.594  17.917  0.00  0.00    +0.000 A 
ATOM     27  C   UNL     1       2.000   8.243  18.098  0.00  0.00    +0.000 A 
ATOM     28  C   UNL     1       1.787   7.649  19.344  0.00  0.00    +0.000 A 
ATOM     29  C   UNL     1       1.214   8.375  20.393  0.00  0.00    +0.000 A 
ATOM     30  C   UNL     1       0.917   9.730  20.218  0.00  0.00    +0.000 A 
BRANCH  28  31
ATOM     31  S   UNL     1       2.199   5.946  19.586  0.00  0.00    +0.000 S 
ATOM     32  O   UNL     1       1.696   5.513  20.868  0.00  0.00    +0.000 OA
ATOM     33  O   UNL     1       1.943   5.219  18.365  0.00  0.00    +0.000 OA
BRANCH  31  34
ATOM     34  N   UNL     1       3.869   6.002  19.747  0.00  0.00    +0.000 NA
ATOM     35  H   UNL     1       4.122   6.135  20.726  0.00  0.00    +0.000 HD
ATOM     36  H   UNL     1       4.285   5.170  19.326  0.00  0.00    +0.000 HD
ENDBRANCH  31  34
ENDBRANCH  28  31
ENDBRANCH   5  25
TORSDOF 7
ENDMDL
MODEL 5
REMARK VINA RESULT:      -7.1      3.719      7.563
REMARK  Name = 
REMARK  8 active torsions:
REMARK  status: ('A' for Active; 'I' for Inactive)
REMARK    1  A    between atoms: C_1  and  O_2
REMARK    2  A    between atoms: O_2  and  C_3
REMARK    3  A    between atoms: C_4  and  C_5
REMARK    4  A    between atoms: C_7  and  C_8
REMARK    5  A    between atoms: N_15  and  C_16
REMARK    6  A    between atoms: C_19  and  S_20
REMARK    7  A    between atoms: S_20  and  N_21
REMARK    8  A    between atoms: C_26  and  O_27
REMARK                            x       y       z     vdW  Elec       q    Type
REMARK                         _______ _______ _______ _____ _____    ______ ____
ROOT
ATOM      1  C   UNL     1       0.074  10.864  19.981  0.00  0.00    +0.000 A 
ATOM      2  C   UNL     1       0.363   9.505  19.915  0.00  0.00    +0.000 A 
ATOM      3  C   UNL     1       1.556   9.345  19.176  0.00  0.00    +0.000 A 
ATOM      4  N   UNL     1       1.990  10.544  18.762  0.00  0.00    +0.000 NA
ATOM      5  N   UNL     1       1.195  11.464  19.379  0.00  0.00    +0.000 N 
ENDROOT
BRANCH   1   7
ATOM      6  C   UNL     1      -1.366  11.704  21.924  0.00  0.00    +0.000 A 
ATOM      7  C   UNL     1      -1.167  11.523  20.511  0.00  0.00    +0.000 A 
ATOM      8  C   UNL     1      -2.214  11.939  19.655  0.00  0.00    +0.000 A 
ATOM      9  C   UNL     1      -3.318  12.670  20.094  0.00  0.00    +0.000 A 
ATOM     10  C   UNL     1      -3.437  12.854  21.460  0.00  0.00    +0.000 A 
ATOM     11  O   UNL     1      -4.485  13.478  22.058  0.00  0.00    +0.000 OA
ATOM     12  C   UNL     1      -4.276  13.410  23.393  0.00  0.00    +0.000 A 
ATOM     13  C   UNL     1      -3.086  12.773  23.655  0.00  0.00    +0.000 A 
ATOM     14  C   UNL     1      -2.524  12.388  22.398  0.00  0.00    +0.000 A 
BRANCH   6  16
ATOM     15  C   UNL     1      -0.589   9.947  23.336  0.00  0.00    +0.000 C 
ATOM     16  O   UNL     1      -0.367  11.237  22.772  0.00  0.00    +0.000 OA
ENDBRANCH   6  16
BRANCH   8  17
ATOM     17  O   UNL     1      -2.285  11.635  18.318  0.00  0.00    +0.000 OA
ATOM     18  H   UNL     1      -1.400  11.437  17.977  0.00  0.00    +0.000 HD
ENDBRANCH   8  17
ENDBRANCH   1   7
BRANCH   3  19
ATOM     19  C   UNL     1       2.260   8.114  18.849  0.00  0.00    +0.000 A 
ATOM     20  C   UNL     1       3.012   7.996  17.676  0.00  0.00    +0.000 A 
ATOM     21  C   UNL     1       3.628   6.785  17.369  0.00  0.00    +0.000 A 
ATOM     22  C   UNL     1       3.474   5.726  18.247  0.00  0.00    +0.000 A 
ATOM     23  N   UNL     1       2.768   5.803  19.394  0.00  0.00    +0.000 NA
ATOM     24  C   UNL     1       2.183   6.994  19.671  0.00  0.00    +0.000 A 
ENDBRANCH   3  19
BRANCH   5  25
ATOM     25  C   UNL     1       1.522  12.845  19.230  0.00  0.00    +0.000 A 
ATOM     26  C   UNL     1       2.456  13.220  18.246  0.00  0.00    +0.000 A 
ATOM     27  C   UNL     1       2.628  14.569  17.924  0.00  0.00    +0.000 A 
ATOM     28  C   UNL     1       1.892  15.539  18.609  0.00  0.00    +0.000 A 
ATOM     29  C   UNL     1       1.030  15.179  19.650  0.00  0.00    +0.000 A 
ATOM     30  C   UNL     1       0.848  13.829  19.964  0.00  0.00    +0.000 A 
BRANCH  28  31
ATOM     31  S   UNL     1       2.087  17.247  18.190  0.00  0.00    +0.000 S 
ATOM     32  O   UNL     1       2.340  18.005  19.393  0.00  0.00    +0.000 OA
ATOM     33  O   UNL     1       2.920  17.353  17.015  0.00  0.00    +0.000 OA
BRANCH  31  34
ATOM     34  N   UNL     1       0.540  17.674  17.699  0.00  0.00    +0.000 NA
ATOM     35  H   UNL     1       0.030  16.845  17.390  0.00  0.00    +0.000 HD
ATOM     36  H   UNL     1       0.071  18.190  18.444  0.00  0.00    +0.000 HD
ENDBRANCH  31  34
ENDBRANCH  28  31
ENDBRANCH   5  25
TORSDOF 7
ENDMDL
MODEL 6
REMARK VINA RESULT:      -7.0      3.841      7.935
REMARK  Name = 
REMARK  8 active torsions:
REMARK  status: ('A' for Active; 'I' for Inactive)
REMARK    1  A    between atoms: C_1  and  O_2
REMARK    2  A    between atoms: O_2  and  C_3
REMARK    3  A    between atoms: C_4  and  C_5
REMARK    4  A    between atoms: C_7  and  C_8
REMARK    5  A    between atoms: N_15  and  C_16
REMARK    6  A    between atoms: C_19  and  S_20
REMARK    7  A    between atoms: S_20  and  N_21
REMARK    8  A    between atoms: C_26  and  O_27
REMARK                            x       y       z     vdW  Elec       q    Type
REMARK                         _______ _______ _______ _____ _____    ______ ____
ROOT
ATOM      1  C   UNL     1      -0.416  11.235  20.257  0.00  0.00    +0.000 A 
ATOM      2  C   UNL     1      -0.049   9.894  20.203  0.00  0.00    +0.000 A 
ATOM      3  C   UNL     1       1.110   9.788  19.404  0.00  0.00    +0.000 A 
ATOM      4  N   UNL     1       1.448  11.001  18.943  0.00  0.00    +0.000 NA
ATOM      5  N   UNL     1       0.633  11.886  19.584  0.00  0.00    +0.000 N 
ENDROOT
BRANCH   1   7
ATOM      6  C   UNL     1      -2.764  12.222  20.001  0.00  0.00    +0.000 A 
ATOM      7  C   UNL     1      -1.664  11.831  20.841  0.00  0.00    +0.000 A 
ATOM      8  C   UNL     1      -1.791  12.086  22.227  0.00  0.00    +0.000 A 
ATOM      9  C   UNL     1      -2.977  12.513  22.823  0.00  0.00    +0.000 A 
ATOM     10  C   UNL     1      -4.018  12.834  21.970  0.00  0.00    +0.000 A 
ATOM     11  O   UNL     1      -5.214  13.333  22.379  0.00  0.00    +0.000 OA
ATOM     12  C   UNL     1      -5.943  13.575  21.266  0.00  0.00    +0.000 A 
ATOM     13  C   UNL     1      -5.235  13.206  20.146  0.00  0.00    +0.000 A 
ATOM     14  C   UNL     1      -3.962  12.729  20.586  0.00  0.00    +0.000 A 
BRANCH   6  16
ATOM     15  C   UNL     1      -3.345  10.942  18.075  0.00  0.00    +0.000 C 
ATOM     16  O   UNL     1      -2.616  12.034  18.631  0.00  0.00    +0.000 OA
ENDBRANCH   6  16
BRANCH   8  17
ATOM     17  O   UNL     1      -0.759  11.987  23.128  0.00  0.00    +0.000 OA
ATOM     18  H   UNL     1       0.027  12.436  22.780  0.00  0.00    +0.000 HD
ENDBRANCH   8  17
ENDBRANCH   1   7
BRANCH   3  19
ATOM     19  C   UNL     1       1.870   8.593  19.064  0.00  0.00    +0.000 A 
ATOM     20  C   UNL     1       2.499   8.460  17.822  0.00  0.00    +0.000 A 
ATOM     21  C   UNL     1       3.171   7.281  17.511  0.00  0.00    +0.000 A 
ATOM     22  C   UNL     1       3.196   6.267  18.454  0.00  0.00    +0.000 A 
ATOM     23  N   UNL     1       2.612   6.361  19.667  0.00  0.00    +0.000 NA
ATOM     24  C   UNL     1       1.969   7.522  19.946  0.00  0.00    +0.000 A 
ENDBRANCH   3  19
BRANCH   5  25
ATOM     25  C   UNL     1       0.867  13.280  19.388  0.00  0.00    +0.000 A 
ATOM     26  C   UNL     1       2.109  13.695  18.871  0.00  0.00    +0.000 A 
ATOM     27  C   UNL     1       2.287  15.019  18.460  0.00  0.00    +0.000 A 
ATOM     28  C   UNL     1       1.237  15.930  18.599  0.00  0.00    +0.000 A 
ATOM     29  C   UNL     1       0.032  15.545  19.196  0.00  0.00    +0.000 A 
ATOM     30  C   UNL     1      -0.152  14.218  19.595  0.00  0.00    +0.000 A 
BRANCH  28  31
ATOM     31  S   UNL     1       1.447  17.600  18.058  0.00  0.00    +0.000 S 
ATOM     32  O   UNL     1       0.306  17.990  17.265  0.00  0.00    +0.000 OA
ATOM     33  O   UNL     1       1.937  18.396  19.160  0.00  0.00    +0.000 OA
BRANCH  31  34
ATOM     34  N   UNL     1       2.728  17.469  16.980  0.00  0.00    +0.000 NA
ATOM     35  H   UNL     1       2.994  16.490  16.873  0.00  0.00    +0.000 HD
ATOM     36  H   UNL     1       2.488  17.927  16.100  0.00  0.00    +0.000 HD
ENDBRANCH  31  34
ENDBRANCH  28  31
ENDBRANCH   5  25
TORSDOF 7
ENDMDL
MODEL 7
REMARK VINA RESULT:      -7.0      3.894      7.748
REMARK  Name = 
REMARK  8 active torsions:
REMARK  status: ('A' for Active; 'I' for Inactive)
REMARK    1  A    between atoms: C_1  and  O_2
REMARK    2  A    between atoms: O_2  and  C_3
REMARK    3  A    between atoms: C_4  and  C_5
REMARK    4  A    between atoms: C_7  and  C_8
REMARK    5  A    between atoms: N_15  and  C_16
REMARK    6  A    between atoms: C_19  and  S_20
REMARK    7  A    between atoms: S_20  and  N_21
REMARK    8  A    between atoms: C_26  and  O_27
REMARK                            x       y       z     vdW  Elec       q    Type
REMARK                         _______ _______ _______ _____ _____    ______ ____
ROOT
ATOM      1  C   UNL     1      -0.364  11.347  20.165  0.00  0.00    +0.000 A 
ATOM      2  C   UNL     1      -0.011  10.003  20.096  0.00  0.00    +0.000 A 
ATOM      3  C   UNL     1       1.148   9.894  19.297  0.00  0.00    +0.000 A 
ATOM      4  N   UNL     1       1.499  11.109  18.850  0.00  0.00    +0.000 NA
ATOM      5  N   UNL     1       0.692  11.994  19.501  0.00  0.00    +0.000 N 
ENDROOT
BRANCH   1   7
ATOM      6  C   UNL     1      -1.770  12.072  22.178  0.00  0.00    +0.000 A 
ATOM      7  C   UNL     1      -1.607  11.949  20.754  0.00  0.00    +0.000 A 
ATOM      8  C   UNL     1      -2.690  12.365  19.944  0.00  0.00    +0.000 A 
ATOM      9  C   UNL     1      -3.801  13.047  20.441  0.00  0.00    +0.000 A 
ATOM     10  C   UNL     1      -3.886  13.176  21.815  0.00  0.00    +0.000 A 
ATOM     11  O   UNL     1      -4.934  13.747  22.466  0.00  0.00    +0.000 OA
ATOM     12  C   UNL     1      -4.684  13.636  23.790  0.00  0.00    +0.000 A 
ATOM     13  C   UNL     1      -3.469  13.025  23.995  0.00  0.00    +0.000 A 
ATOM     14  C   UNL     1      -2.934  12.703  22.709  0.00  0.00    +0.000 A 
BRANCH   6  16
ATOM     15  C   UNL     1      -0.825  10.234  23.368  0.00  0.00    +0.000 C 
ATOM     16  O   UNL     1      -0.735  11.603  22.979  0.00  0.00    +0.000 OA
ENDBRANCH   6  16
BRANCH   8  17
ATOM     17  O   UNL     1      -2.791  12.109  18.599  0.00  0.00    +0.000 OA
ATOM     18  H   UNL     1      -3.677  11.773  18.392  0.00  0.00    +0.000 HD
ENDBRANCH   8  17
ENDBRANCH   1   7
BRANCH   3  19
ATOM     19  C   UNL     1       1.895   8.696  18.943  0.00  0.00    +0.000 A 
ATOM     20  C   UNL     1       2.521   8.569  17.700  0.00  0.00    +0.000 A 
ATOM     21  C   UNL     1       3.182   7.387  17.376  0.00  0.00    +0.000 A 
ATOM     22  C   UNL     1       3.198   6.363  18.308  0.00  0.00    +0.000 A 
ATOM     23  N   UNL     1       2.617   6.451  19.522  0.00  0.00    +0.000 NA
ATOM     24  C   UNL     1       1.985   7.614  19.814  0.00  0.00    +0.000 A 
ENDBRANCH   3  19
BRANCH   5  25
ATOM     25  C   UNL     1       0.941  13.388  19.323  0.00  0.00    +0.000 A 
ATOM     26  C   UNL     1      -0.006  14.165  18.627  0.00  0.00    +0.000 A 
ATOM     27  C   UNL     1       0.097  15.559  18.631  0.00  0.00    +0.000 A 
ATOM     28  C   UNL     1       1.161  16.169  19.299  0.00  0.00    +0.000 A 
ATOM     29  C   UNL     1       2.154  15.399  19.914  0.00  0.00    +0.000 A 
ATOM     30  C   UNL     1       2.046  14.006  19.922  0.00  0.00    +0.000 A 
BRANCH  28  31
ATOM     31  S   UNL     1       1.283  17.933  19.328  0.00  0.00    +0.000 S 
ATOM     32  O   UNL     1       1.458  18.419  17.980  0.00  0.00    +0.000 OA
ATOM     33  O   UNL     1       0.278  18.462  20.221  0.00  0.00    +0.000 OA
BRANCH  31  34
ATOM     34  N   UNL     1       2.755  18.178  20.097  0.00  0.00    +0.000 NA
ATOM     35  H   UNL     1       3.336  17.344  20.012  0.00  0.00    +0.000 HD
ATOM     36  H   UNL     1       3.197  19.024  19.736  0.00  0.00    +0.000 HD
ENDBRANCH  31  34
ENDBRANCH  28  31
ENDBRANCH   5  25
TORSDOF 7
ENDMDL
MODEL 8
REMARK VINA RESULT:      -7.0      3.811      7.741
REMARK  Name = 
REMARK  8 active torsions:
REMARK  status: ('A' for Active; 'I' for Inactive)
REMARK    1  A    between atoms: C_1  and  O_2
REMARK    2  A    between atoms: O_2  and  C_3
REMARK    3  A    between atoms: C_4  and  C_5
REMARK    4  A    between atoms: C_7  and  C_8
REMARK    5  A    between atoms: N_15  and  C_16
REMARK    6  A    between atoms: C_19  and  S_20
REMARK    7  A    between atoms: S_20  and  N_21
REMARK    8  A    between atoms: C_26  and  O_27
REMARK                            x       y       z     vdW  Elec       q    Type
REMARK                         _______ _______ _______ _____ _____    ______ ____
ROOT
ATOM      1  C   UNL     1      -0.508  11.146  19.613  0.00  0.00    +0.000 A 
ATOM      2  C   UNL     1      -0.099   9.818  19.688  0.00  0.00    +0.000 A 
ATOM      3  C   UNL     1       1.149   9.706  19.037  0.00  0.00    +0.000 A 
ATOM      4  N   UNL     1       1.504  10.900  18.541  0.00  0.00    +0.000 NA
ATOM      5  N   UNL     1       0.594  11.792  19.025  0.00  0.00    +0.000 N 
ENDROOT
BRANCH   1   7
ATOM      6  C   UNL     1      -2.080  12.168  21.356  0.00  0.00    +0.000 A 
ATOM      7  C   UNL     1      -1.833  11.730  20.008  0.00  0.00    +0.000 A 
ATOM      8  C   UNL     1      -2.910  11.823  19.095  0.00  0.00    +0.000 A 
ATOM      9  C   UNL     1      -4.107  12.478  19.384  0.00  0.00    +0.000 A 
ATOM     10  C   UNL     1      -4.274  12.917  20.685  0.00  0.00    +0.000 A 
ATOM     11  O   UNL     1      -5.405  13.508  21.153  0.00  0.00    +0.000 OA
ATOM     12  C   UNL     1      -5.213  13.740  22.471  0.00  0.00    +0.000 A 
ATOM     13  C   UNL     1      -3.956  13.332  22.848  0.00  0.00    +0.000 A 
ATOM     14  C   UNL     1      -3.326  12.775  21.690  0.00  0.00    +0.000 A 
BRANCH   6  16
ATOM     15  C   UNL     1      -1.146  10.890  23.140  0.00  0.00    +0.000 C 
ATOM     16  O   UNL     1      -1.045  12.017  22.273  0.00  0.00    +0.000 OA
ENDBRANCH   6  16
BRANCH   8  17
ATOM     17  O   UNL     1      -2.917  11.247  17.848  0.00  0.00    +0.000 OA
ATOM     18  H   UNL     1      -2.412  10.420  17.864  0.00  0.00    +0.000 HD
ENDBRANCH   8  17
ENDBRANCH   1   7
BRANCH   3  19
ATOM     19  C   UNL     1       1.977   8.521  18.864  0.00  0.00    +0.000 A 
ATOM     20  C   UNL     1       2.738   8.328  17.707  0.00  0.00    +0.000 A 
ATOM     21  C   UNL     1       3.477   7.157  17.554  0.00  0.00    +0.000 A 
ATOM     22  C   UNL     1       3.433   6.212  18.564  0.00  0.00    +0.000 A 
ATOM     23  N   UNL     1       2.721   6.366  19.700  0.00  0.00    +0.000 NA
ATOM     24  C   UNL     1       2.016   7.517  19.827  0.00  0.00    +0.000 A 
ENDBRANCH   3  19
BRANCH   5  25
ATOM     25  C   UNL     1       0.809  13.180  18.770  0.00  0.00    +0.000 A 
ATOM     26  C   UNL     1      -0.296  14.052  18.777  0.00  0.00    +0.000 A 
ATOM     27  C   UNL     1      -0.094  15.435  18.755  0.00  0.00    +0.000 A 
ATOM     28  C   UNL     1       1.207  15.939  18.692  0.00  0.00    +0.000 A 
ATOM     29  C   UNL     1       2.304  15.077  18.592  0.00  0.00    +0.000 A 
ATOM     30  C   UNL     1       2.104  13.694  18.628  0.00  0.00    +0.000 A 
BRANCH  28  31
ATOM     31  S   UNL     1       1.471  17.689  18.688  0.00  0.00    +0.000 S 
ATOM     32  O   UNL     1       0.204  18.360  18.862  0.00  0.00    +0.000 OA
ATOM     33  O   UNL     1       2.629  17.994  19.495  0.00  0.00    +0.000 OA
BRANCH  31  34
ATOM     34  N   UNL     1       1.927  17.979  17.099  0.00  0.00    +0.000 NA
ATOM     35  H   UNL     1       2.932  17.838  16.993  0.00  0.00    +0.000 HD
ATOM     36  H   UNL     1       1.364  17.407  16.468  0.00  0.00    +0.000 HD
ENDBRANCH  31  34
ENDBRANCH  28  31
ENDBRANCH   5  25
TORSDOF 7
ENDMDL
MODEL 9
REMARK VINA RESULT:      -7.0      3.759      7.559
REMARK  Name = 
REMARK  8 active torsions:
REMARK  status: ('A' for Active; 'I' for Inactive)
REMARK    1  A    between atoms: C_1  and  O_2
REMARK    2  A    between atoms: O_2  and  C_3
REMARK    3  A    between atoms: C_4  and  C_5
REMARK    4  A    between atoms: C_7  and  C_8
REMARK    5  A    between atoms: N_15  and  C_16
REMARK    6  A    between atoms: C_19  and  S_20
REMARK    7  A    between atoms: S_20  and  N_21
REMARK    8  A    between atoms: C_26  and  O_27
REMARK                            x       y       z     vdW  Elec       q    Type
REMARK                         _______ _______ _______ _____ _____    ______ ____
ROOT
ATOM      1  C   UNL     1       0.018  10.900  19.986  0.00  0.00    +0.000 A 
ATOM      2  C   UNL     1       0.322   9.545  19.912  0.00  0.00    +0.000 A 
ATOM      3  C   UNL     1       1.505   9.400  19.155  0.00  0.00    +0.000 A 
ATOM      4  N   UNL     1       1.920  10.605  18.738  0.00  0.00    +0.000 NA
ATOM      5  N   UNL     1       1.123  11.514  19.370  0.00  0.00    +0.000 N 
ENDROOT
BRANCH   1   7
ATOM      6  C   UNL     1      -1.406  11.711  21.952  0.00  0.00    +0.000 A 
ATOM      7  C   UNL     1      -1.222  11.543  20.536  0.00  0.00    +0.000 A 
ATOM      8  C   UNL     1      -2.283  11.957  19.696  0.00  0.00    +0.000 A 
ATOM      9  C   UNL     1      -3.389  12.674  20.153  0.00  0.00    +0.000 A 
ATOM     10  C   UNL     1      -3.493  12.845  21.522  0.00  0.00    +0.000 A 
ATOM     11  O   UNL     1      -4.540  13.455  22.137  0.00  0.00    +0.000 OA
ATOM     12  C   UNL     1      -4.314  13.377  23.468  0.00  0.00    +0.000 A 
ATOM     13  C   UNL     1      -3.116  12.750  23.712  0.00  0.00    +0.000 A 
ATOM     14  C   UNL     1      -2.566  12.380  22.445  0.00  0.00    +0.000 A 
BRANCH   6  16
ATOM     15  C   UNL     1      -0.594   9.946  23.334  0.00  0.00    +0.000 C 
ATOM     16  O   UNL     1      -0.394  11.246  22.785  0.00  0.00    +0.000 OA
ENDBRANCH   6  16
BRANCH   8  17
ATOM     17  O   UNL     1      -2.367  11.663  18.357  0.00  0.00    +0.000 OA
ATOM     18  H   UNL     1      -1.736  10.962  18.132  0.00  0.00    +0.000 HD
ENDBRANCH   8  17
ENDBRANCH   1   7
BRANCH   3  19
ATOM     19  C   UNL     1       2.219   8.178  18.815  0.00  0.00    +0.000 A 
ATOM     20  C   UNL     1       2.201   7.065  19.661  0.00  0.00    +0.000 A 
ATOM     21  C   UNL     1       2.939   5.932  19.328  0.00  0.00    +0.000 A 
ATOM     22  C   UNL     1       3.677   5.946  18.157  0.00  0.00    +0.000 A 
ATOM     23  N   UNL     1       3.711   6.995  17.309  0.00  0.00    +0.000 NA
ATOM     24  C   UNL     1       2.979   8.082  17.653  0.00  0.00    +0.000 A 
ENDBRANCH   3  19
BRANCH   5  25
ATOM     25  C   UNL     1       1.432  12.899  19.219  0.00  0.00    +0.000 A 
ATOM     26  C   UNL     1       2.463  13.274  18.336  0.00  0.00    +0.000 A 
ATOM     27  C   UNL     1       2.637  14.619  17.998  0.00  0.00    +0.000 A 
ATOM     28  C   UNL     1       1.806  15.586  18.568  0.00  0.00    +0.000 A 
ATOM     29  C   UNL     1       0.840  15.229  19.515  0.00  0.00    +0.000 A 
ATOM     30  C   UNL     1       0.655  13.883  19.844  0.00  0.00    +0.000 A 
BRANCH  28  31
ATOM     31  S   UNL     1       2.006  17.287  18.126  0.00  0.00    +0.000 S 
ATOM     32  O   UNL     1       3.021  17.395  17.104  0.00  0.00    +0.000 OA
ATOM     33  O   UNL     1       0.704  17.898  17.996  0.00  0.00    +0.000 OA
BRANCH  31  34
ATOM     34  N   UNL     1       2.686  17.940  19.515  0.00  0.00    +0.000 NA
ATOM     35  H   UNL     1       3.521  18.476  19.276  0.00  0.00    +0.000 HD
ATOM     36  H   UNL     1       1.984  18.479  20.023  0.00  0.00    +0.000 HD
ENDBRANCH  31  34
ENDBRANCH  28  31
ENDBRANCH   5  25
TORSDOF 7
ENDMDL
