MODEL 1
REMARK VINA RESULT:      -8.0      0.000      0.000
REMARK  Name = 
REMARK  6 active torsions:
REMARK  status: ('A' for Active; 'I' for Inactive)
REMARK    1  A    between atoms: C_2  and  O_19
REMARK    2  A    between atoms: N_3  and  C_4
REMARK    3  A    between atoms: C_9  and  C_10
REMARK    4  A    between atoms: C_12  and  C_13
REMARK    5  A    between atoms: O_19  and  C_20
REMARK    6  A    between atoms: C_20  and  C_21
REMARK                            x       y       z     vdW  Elec       q    Type
REMARK                         _______ _______ _______ _____ _____    ______ ____
ROOT
ATOM      1  C   UNL     1       6.197   6.274  16.718  0.00  0.00    +0.000 A 
ATOM      2  C   UNL     1       7.091   5.537  15.930  0.00  0.00    +0.000 A 
ATOM      3  C   UNL     1       6.781   4.264  15.456  0.00  0.00    +0.000 A 
ATOM      4  C   UNL     1       5.565   3.686  15.779  0.00  0.00    +0.000 A 
ATOM      5  C   UNL     1       4.652   4.390  16.561  0.00  0.00    +0.000 A 
ATOM      6  C   UNL     1       4.935   5.696  17.035  0.00  0.00    +0.000 A 
ENDROOT
BRANCH   6   7
ATOM      7  C   UNL     1       3.923   6.422  17.823  0.00  0.00    +0.000 A 
ATOM      8  N   UNL     1       3.438   7.600  17.484  0.00  0.00    +0.000 NA
ATOM      9  C   UNL     1       2.532   8.036  18.427  0.00  0.00    +0.000 A 
ATOM     10  C   UNL     1       2.337   7.205  19.507  0.00  0.00    +0.000 A 
ATOM     11  S   UNL     1       3.290   5.798  19.312  0.00  0.00    +0.000 S 
BRANCH   9  12
ATOM     12  C   UNL     1       1.815   9.363  18.268  0.00  0.00    +0.000 C 
ATOM     13  C   UNL     1       0.392   9.224  17.643  0.00  0.00    +0.000 C 
ATOM     14  C   UNL     1      -0.077  10.297  18.642  0.00  0.00    +0.000 C 
ATOM     15  C   UNL     1       1.066   9.825  19.555  0.00  0.00    +0.000 C 
ENDBRANCH   9  12
ENDBRANCH   6   7
BRANCH   1  18
ATOM     16  O   UNL     1       8.276   7.192  18.622  0.00  0.00    +0.000 OA
ATOM     17  C   UNL     1       7.639   7.940  17.900  0.00  0.00    +0.000 C 
ATOM     18  N   UNL     1       6.559   7.595  17.097  0.00  0.00    +0.000 N 
ATOM     19  H   UNL     1       5.949   8.344  16.794  0.00  0.00    +0.000 HD
BRANCH  17  20
ATOM     20  O   UNL     1       7.885   9.281  17.809  0.00  0.00    +0.000 OA
BRANCH  20  21
ATOM     21  C   UNL     1       8.979   9.797  18.599  0.00  0.00    +0.000 C 
BRANCH  21  22
ATOM     22  C   UNL     1       9.217  11.323  18.477  0.00  0.00    +0.000 C 
ATOM     23  C   UNL     1      10.585  11.606  17.814  0.00  0.00    +0.000 C 
ATOM     24  C   UNL     1      11.751  11.345  18.772  0.00  0.00    +0.000 C 
ATOM     25  N   UNL     1      11.634  12.155  19.984  0.00  0.00    +0.000 NA
ATOM     26  C   UNL     1      10.382  11.873  20.690  0.00  0.00    +0.000 C 
ATOM     27  C   UNL     1       9.151  12.091  19.805  0.00  0.00    +0.000 C 
ATOM     28  H   UNL     1      11.658  13.142  19.727  0.00  0.00    +0.000 HD
ENDBRANCH  21  22
ENDBRANCH  20  21
ENDBRANCH  17  20
ENDBRANCH   1  18
TORSDOF 6
ENDMDL
MODEL 2
REMARK VINA RESULT:      -7.9      1.729      2.720
REMARK  Name = 
REMARK  6 active torsions:
REMARK  status: ('A' for Active; 'I' for Inactive)
REMARK    1  A    between atoms: C_2  and  O_19
REMARK    2  A    between atoms: N_3  and  C_4
REMARK    3  A    between atoms: C_9  and  C_10
REMARK    4  A    between atoms: C_12  and  C_13
REMARK    5  A    between atoms: O_19  and  C_20
REMARK    6  A    between atoms: C_20  and  C_21
REMARK                            x       y       z     vdW  Elec       q    Type
REMARK                         _______ _______ _______ _____ _____    ______ ____
ROOT
ATOM      1  C   UNL     1       6.286   6.142  16.427  0.00  0.00    +0.000 A 
ATOM      2  C   UNL     1       7.148   5.708  15.411  0.00  0.00    +0.000 A 
ATOM      3  C   UNL     1       6.951   4.502  14.742  0.00  0.00    +0.000 A 
ATOM      4  C   UNL     1       5.889   3.686  15.091  0.00  0.00    +0.000 A 
ATOM      5  C   UNL     1       5.013   4.086  16.098  0.00  0.00    +0.000 A 
ATOM      6  C   UNL     1       5.178   5.319  16.777  0.00  0.00    +0.000 A 
ENDROOT
BRANCH   6   7
ATOM      7  C   UNL     1       4.203   5.723  17.805  0.00  0.00    +0.000 A 
ATOM      8  N   UNL     1       3.775   4.924  18.762  0.00  0.00    +0.000 NA
ATOM      9  C   UNL     1       2.850   5.573  19.552  0.00  0.00    +0.000 A 
ATOM     10  C   UNL     1       2.546   6.865  19.188  0.00  0.00    +0.000 A 
ATOM     11  S   UNL     1       3.490   7.304  17.831  0.00  0.00    +0.000 S 
BRANCH   9  12
ATOM     12  C   UNL     1       2.210   4.878  20.739  0.00  0.00    +0.000 C 
ATOM     13  C   UNL     1       0.873   4.156  20.384  0.00  0.00    +0.000 C 
ATOM     14  C   UNL     1       1.326   3.011  21.306  0.00  0.00    +0.000 C 
ATOM     15  C   UNL     1       2.768   3.446  20.997  0.00  0.00    +0.000 C 
ENDBRANCH   9  12
ENDBRANCH   6   7
BRANCH   1  18
ATOM     16  O   UNL     1       8.239   6.957  18.504  0.00  0.00    +0.000 OA
ATOM     17  C   UNL     1       7.543   7.742  17.883  0.00  0.00    +0.000 C 
ATOM     18  N   UNL     1       6.512   7.420  17.007  0.00  0.00    +0.000 N 
ATOM     19  H   UNL     1       5.837   8.145  16.801  0.00  0.00    +0.000 HD
BRANCH  17  20
ATOM     20  O   UNL     1       7.658   9.098  17.997  0.00  0.00    +0.000 OA
BRANCH  20  21
ATOM     21  C   UNL     1       8.931   9.606  18.456  0.00  0.00    +0.000 C 
BRANCH  21  22
ATOM     22  C   UNL     1       9.100  11.143  18.357  0.00  0.00    +0.000 C 
ATOM     23  C   UNL     1      10.491  11.497  17.782  0.00  0.00    +0.000 C 
ATOM     24  C   UNL     1      11.608  11.286  18.809  0.00  0.00    +0.000 C 
ATOM     25  N   UNL     1      11.376  12.079  20.016  0.00  0.00    +0.000 NA
ATOM     26  C   UNL     1      10.098  11.731  20.641  0.00  0.00    +0.000 C 
ATOM     27  C   UNL     1       8.916  11.895  19.683  0.00  0.00    +0.000 C 
ATOM     28  H   UNL     1      11.368  13.068  19.766  0.00  0.00    +0.000 HD
ENDBRANCH  21  22
ENDBRANCH  20  21
ENDBRANCH  17  20
ENDBRANCH   1  18
TORSDOF 6
ENDMDL
MODEL 3
REMARK VINA RESULT:      -7.9      0.676      1.023
REMARK  Name = 
REMARK  6 active torsions:
REMARK  status: ('A' for Active; 'I' for Inactive)
REMARK    1  A    between atoms: C_2  and  O_19
REMARK    2  A    between atoms: N_3  and  C_4
REMARK    3  A    between atoms: C_9  and  C_10
REMARK    4  A    between atoms: C_12  and  C_13
REMARK    5  A    between atoms: O_19  and  C_20
REMARK    6  A    between atoms: C_20  and  C_21
REMARK                            x       y       z     vdW  Elec       q    Type
REMARK                         _______ _______ _______ _____ _____    ______ ____
ROOT
ATOM      1  C   UNL     1       6.285   6.374  16.659  0.00  0.00    +0.000 A 
ATOM      2  C   UNL     1       7.226   5.709  15.863  0.00  0.00    +0.000 A 
ATOM      3  C   UNL     1       6.981   4.442  15.335  0.00  0.00    +0.000 A 
ATOM      4  C   UNL     1       5.787   3.799  15.611  0.00  0.00    +0.000 A 
ATOM      5  C   UNL     1       4.829   4.432  16.400  0.00  0.00    +0.000 A 
ATOM      6  C   UNL     1       5.045   5.730  16.929  0.00  0.00    +0.000 A 
ENDROOT
BRANCH   6   7
ATOM      7  C   UNL     1       3.986   6.380  17.722  0.00  0.00    +0.000 A 
ATOM      8  N   UNL     1       3.332   7.455  17.330  0.00  0.00    +0.000 NA
ATOM      9  C   UNL     1       2.426   7.845  18.293  0.00  0.00    +0.000 A 
ATOM     10  C   UNL     1       2.399   7.084  19.439  0.00  0.00    +0.000 A 
ATOM     11  S   UNL     1       3.519   5.800  19.289  0.00  0.00    +0.000 S 
BRANCH   9  12
ATOM     12  C   UNL     1       1.531   9.051  18.082  0.00  0.00    +0.000 C 
ATOM     13  C   UNL     1       0.985   9.655  19.413  0.00  0.00    +0.000 C 
ATOM     14  C   UNL     1       1.217  11.046  18.798  0.00  0.00    +0.000 C 
ATOM     15  C   UNL     1       2.314  10.391  17.943  0.00  0.00    +0.000 C 
ENDBRANCH   9  12
ENDBRANCH   6   7
BRANCH   1  18
ATOM     16  O   UNL     1       8.351   7.319  18.565  0.00  0.00    +0.000 OA
ATOM     17  C   UNL     1       7.657   8.063  17.893  0.00  0.00    +0.000 C 
ATOM     18  N   UNL     1       6.580   7.694  17.095  0.00  0.00    +0.000 N 
ATOM     19  H   UNL     1       5.923   8.421  16.841  0.00  0.00    +0.000 HD
BRANCH  17  20
ATOM     20  O   UNL     1       7.825   9.418  17.862  0.00  0.00    +0.000 OA
BRANCH  20  21
ATOM     21  C   UNL     1       8.885   9.961  18.679  0.00  0.00    +0.000 C 
BRANCH  21  22
ATOM     22  C   UNL     1       9.685  11.121  18.034  0.00  0.00    +0.000 C 
ATOM     23  C   UNL     1      11.058  11.282  18.727  0.00  0.00    +0.000 C 
ATOM     24  C   UNL     1      10.931  11.933  20.108  0.00  0.00    +0.000 C 
ATOM     25  N   UNL     1      10.286  13.242  20.022  0.00  0.00    +0.000 NA
ATOM     26  C   UNL     1       8.949  13.136  19.433  0.00  0.00    +0.000 C 
ATOM     27  C   UNL     1       8.969  12.480  18.050  0.00  0.00    +0.000 C 
ATOM     28  H   UNL     1      10.859  13.856  19.441  0.00  0.00    +0.000 HD
ENDBRANCH  21  22
ENDBRANCH  20  21
ENDBRANCH  17  20
ENDBRANCH   1  18
TORSDOF 6
ENDMDL
MODEL 4
REMARK VINA RESULT:      -7.8      4.558      7.605
REMARK  Name = 
REMARK  6 active torsions:
REMARK  status: ('A' for Active; 'I' for Inactive)
REMARK    1  A    between atoms: C_2  and  O_19
REMARK    2  A    between atoms: N_3  and  C_4
REMARK    3  A    between atoms: C_9  and  C_10
REMARK    4  A    between atoms: C_12  and  C_13
REMARK    5  A    between atoms: O_19  and  C_20
REMARK    6  A    between atoms: C_20  and  C_21
REMARK                            x       y       z     vdW  Elec       q    Type
REMARK                         _______ _______ _______ _____ _____    ______ ____
ROOT
ATOM      1  C   UNL     1       2.953   4.999  20.253  0.00  0.00    +0.000 A 
ATOM      2  C   UNL     1       2.090   4.418  21.192  0.00  0.00    +0.000 A 
ATOM      3  C   UNL     1       2.156   3.064  21.516  0.00  0.00    +0.000 A 
ATOM      4  C   UNL     1       3.082   2.250  20.888  0.00  0.00    +0.000 A 
ATOM      5  C   UNL     1       3.955   2.794  19.948  0.00  0.00    +0.000 A 
ATOM      6  C   UNL     1       3.924   4.173  19.619  0.00  0.00    +0.000 A 
ENDROOT
BRANCH   6   7
ATOM      7  C   UNL     1       4.895   4.716  18.652  0.00  0.00    +0.000 A 
ATOM      8  N   UNL     1       4.731   4.668  17.345  0.00  0.00    +0.000 NA
ATOM      9  C   UNL     1       5.815   5.228  16.704  0.00  0.00    +0.000 A 
ATOM     10  C   UNL     1       6.827   5.686  17.517  0.00  0.00    +0.000 A 
ATOM     11  S   UNL     1       6.385   5.449  19.153  0.00  0.00    +0.000 S 
BRANCH   9  12
ATOM     12  C   UNL     1       5.872   5.313  15.191  0.00  0.00    +0.000 C 
ATOM     13  C   UNL     1       7.232   4.835  14.596  0.00  0.00    +0.000 C 
ATOM     14  C   UNL     1       6.426   4.163  13.471  0.00  0.00    +0.000 C 
ATOM     15  C   UNL     1       5.265   4.069  14.474  0.00  0.00    +0.000 C 
ENDBRANCH   9  12
ENDBRANCH   6   7
BRANCH   1  18
ATOM     16  O   UNL     1       1.919   6.493  17.909  0.00  0.00    +0.000 OA
ATOM     17  C   UNL     1       2.248   7.020  18.958  0.00  0.00    +0.000 C 
ATOM     18  N   UNL     1       2.871   6.401  20.036  0.00  0.00    +0.000 N 
ATOM     19  H   UNL     1       3.350   6.999  20.699  0.00  0.00    +0.000 HD
BRANCH  17  20
ATOM     20  O   UNL     1       2.078   8.351  19.213  0.00  0.00    +0.000 OA
BRANCH  20  21
ATOM     21  C   UNL     1       1.649   8.709  20.546  0.00  0.00    +0.000 C 
BRANCH  21  22
ATOM     22  C   UNL     1       0.131   8.974  20.700  0.00  0.00    +0.000 C 
ATOM     23  C   UNL     1      -0.190  10.461  20.422  0.00  0.00    +0.000 C 
ATOM     24  C   UNL     1       0.242  11.367  21.579  0.00  0.00    +0.000 C 
ATOM     25  N   UNL     1      -0.398  10.969  22.833  0.00  0.00    +0.000 NA
ATOM     26  C   UNL     1      -0.069   9.584  23.179  0.00  0.00    +0.000 C 
ATOM     27  C   UNL     1      -0.450   8.599  22.071  0.00  0.00    +0.000 C 
ATOM     28  H   UNL     1      -1.409  11.056  22.731  0.00  0.00    +0.000 HD
ENDBRANCH  21  22
ENDBRANCH  20  21
ENDBRANCH  17  20
ENDBRANCH   1  18
TORSDOF 6
ENDMDL
MODEL 5
REMARK VINA RESULT:      -7.6      3.503      7.257
REMARK  Name = 
REMARK  6 active torsions:
REMARK  status: ('A' for Active; 'I' for Inactive)
REMARK    1  A    between atoms: C_2  and  O_19
REMARK    2  A    between atoms: N_3  and  C_4
REMARK    3  A    between atoms: C_9  and  C_10
REMARK    4  A    between atoms: C_12  and  C_13
REMARK    5  A    between atoms: O_19  and  C_20
REMARK    6  A    between atoms: C_20  and  C_21
REMARK                            x       y       z     vdW  Elec       q    Type
REMARK                         _______ _______ _______ _____ _____    ______ ____
ROOT
ATOM      1  C   UNL     1       2.577   5.005  20.074  0.00  0.00    +0.000 A 
ATOM      2  C   UNL     1       1.650   4.616  21.049  0.00  0.00    +0.000 A 
ATOM      3  C   UNL     1       1.425   3.276  21.361  0.00  0.00    +0.000 A 
ATOM      4  C   UNL     1       2.116   2.286  20.684  0.00  0.00    +0.000 A 
ATOM      5  C   UNL     1       3.046   2.637  19.707  0.00  0.00    +0.000 A 
ATOM      6  C   UNL     1       3.309   3.994  19.389  0.00  0.00    +0.000 A 
ENDROOT
BRANCH   6   7
ATOM      7  C   UNL     1       4.332   4.322  18.380  0.00  0.00    +0.000 A 
ATOM      8  N   UNL     1       5.384   5.079  18.623  0.00  0.00    +0.000 NA
ATOM      9  C   UNL     1       6.143   5.227  17.482  0.00  0.00    +0.000 A 
ATOM     10  C   UNL     1       5.663   4.605  16.352  0.00  0.00    +0.000 A 
ATOM     11  S   UNL     1       4.228   3.759  16.743  0.00  0.00    +0.000 S 
BRANCH   9  12
ATOM     12  C   UNL     1       7.421   6.044  17.493  0.00  0.00    +0.000 C 
ATOM     13  C   UNL     1       7.174   7.580  17.381  0.00  0.00    +0.000 C 
ATOM     14  C   UNL     1       8.296   7.768  18.416  0.00  0.00    +0.000 C 
ATOM     15  C   UNL     1       7.945   6.361  18.927  0.00  0.00    +0.000 C 
ENDBRANCH   9  12
ENDBRANCH   6   7
BRANCH   1  18
ATOM     16  O   UNL     1       1.909   6.705  17.739  0.00  0.00    +0.000 OA
ATOM     17  C   UNL     1       2.335   7.141  18.795  0.00  0.00    +0.000 C 
ATOM     18  N   UNL     1       2.802   6.393  19.870  0.00  0.00    +0.000 N 
ATOM     19  H   UNL     1       3.394   6.868  20.541  0.00  0.00    +0.000 HD
BRANCH  17  20
ATOM     20  O   UNL     1       2.455   8.475  19.061  0.00  0.00    +0.000 OA
BRANCH  20  21
ATOM     21  C   UNL     1       1.400   9.333  18.574  0.00  0.00    +0.000 C 
BRANCH  21  22
ATOM     22  C   UNL     1       0.298   9.674  19.609  0.00  0.00    +0.000 C 
ATOM     23  C   UNL     1      -0.875  10.414  18.926  0.00  0.00    +0.000 C 
ATOM     24  C   UNL     1      -0.523  11.866  18.594  0.00  0.00    +0.000 C 
ATOM     25  N   UNL     1      -0.129  12.605  19.793  0.00  0.00    +0.000 NA
ATOM     26  C   UNL     1       1.027  11.983  20.442  0.00  0.00    +0.000 C 
ATOM     27  C   UNL     1       0.777  10.516  20.801  0.00  0.00    +0.000 C 
ATOM     28  H   UNL     1      -0.912  12.618  20.446  0.00  0.00    +0.000 HD
ENDBRANCH  21  22
ENDBRANCH  20  21
ENDBRANCH  17  20
ENDBRANCH   1  18
TORSDOF 6
ENDMDL
MODEL 6
REMARK VINA RESULT:      -7.6      3.420      7.184
REMARK  Name = 
REMARK  6 active torsions:
REMARK  status: ('A' for Active; 'I' for Inactive)
REMARK    1  A    between atoms: C_2  and  O_19
REMARK    2  A    between atoms: N_3  and  C_4
REMARK    3  A    between atoms: C_9  and  C_10
REMARK    4  A    between atoms: C_12  and  C_13
REMARK    5  A    between atoms: O_19  and  C_20
REMARK    6  A    between atoms: C_20  and  C_21
REMARK                            x       y       z     vdW  Elec       q    Type
REMARK                         _______ _______ _______ _____ _____    ______ ____
ROOT
ATOM      1  C   UNL     1       2.799   5.057  20.142  0.00  0.00    +0.000 A 
ATOM      2  C   UNL     1       1.905   4.695  21.158  0.00  0.00    +0.000 A 
ATOM      3  C   UNL     1       1.780   3.378  21.597  0.00  0.00    +0.000 A 
ATOM      4  C   UNL     1       2.540   2.382  21.010  0.00  0.00    +0.000 A 
ATOM      5  C   UNL     1       3.439   2.706  19.996  0.00  0.00    +0.000 A 
ATOM      6  C   UNL     1       3.602   4.042  19.549  0.00  0.00    +0.000 A 
ENDROOT
BRANCH   6   7
ATOM      7  C   UNL     1       4.595   4.347  18.504  0.00  0.00    +0.000 A 
ATOM      8  N   UNL     1       5.558   5.235  18.646  0.00  0.00    +0.000 NA
ATOM      9  C   UNL     1       6.310   5.319  17.494  0.00  0.00    +0.000 A 
ATOM     10  C   UNL     1       5.911   4.511  16.453  0.00  0.00    +0.000 A 
ATOM     11  S   UNL     1       4.569   3.574  16.951  0.00  0.00    +0.000 S 
BRANCH   9  12
ATOM     12  C   UNL     1       7.495   6.261  17.399  0.00  0.00    +0.000 C 
ATOM     13  C   UNL     1       7.083   7.761  17.281  0.00  0.00    +0.000 C 
ATOM     14  C   UNL     1       8.251   8.086  18.228  0.00  0.00    +0.000 C 
ATOM     15  C   UNL     1       8.084   6.663  18.785  0.00  0.00    +0.000 C 
ENDBRANCH   9  12
ENDBRANCH   6   7
BRANCH   1  18
ATOM     16  O   UNL     1       2.029   6.471  17.653  0.00  0.00    +0.000 OA
ATOM     17  C   UNL     1       2.411   7.037  18.663  0.00  0.00    +0.000 C 
ATOM     18  N   UNL     1       2.922   6.433  19.806  0.00  0.00    +0.000 N 
ATOM     19  H   UNL     1       3.469   7.013  20.430  0.00  0.00    +0.000 HD
BRANCH  17  20
ATOM     20  O   UNL     1       2.427   8.396  18.800  0.00  0.00    +0.000 OA
BRANCH  20  21
ATOM     21  C   UNL     1       1.258   9.004  19.394  0.00  0.00    +0.000 C 
BRANCH  21  22
ATOM     22  C   UNL     1       0.623  10.151  18.570  0.00  0.00    +0.000 C 
ATOM     23  C   UNL     1       1.449  11.450  18.725  0.00  0.00    +0.000 C 
ATOM     24  C   UNL     1       1.236  12.106  20.092  0.00  0.00    +0.000 C 
ATOM     25  N   UNL     1      -0.176  12.411  20.320  0.00  0.00    +0.000 NA
ATOM     26  C   UNL     1      -0.997  11.200  20.252  0.00  0.00    +0.000 C 
ATOM     27  C   UNL     1      -0.839  10.460  18.922  0.00  0.00    +0.000 C 
ATOM     28  H   UNL     1      -0.492  13.069  19.607  0.00  0.00    +0.000 HD
ENDBRANCH  21  22
ENDBRANCH  20  21
ENDBRANCH  17  20
ENDBRANCH   1  18
TORSDOF 6
ENDMDL
MODEL 7
REMARK VINA RESULT:      -7.6      4.555      7.263
REMARK  Name = 
REMARK  6 active torsions:
REMARK  status: ('A' for Active; 'I' for Inactive)
REMARK    1  A    between atoms: C_2  and  O_19
REMARK    2  A    between atoms: N_3  and  C_4
REMARK    3  A    between atoms: C_9  and  C_10
REMARK    4  A    between atoms: C_12  and  C_13
REMARK    5  A    between atoms: O_19  and  C_20
REMARK    6  A    between atoms: C_20  and  C_21
REMARK                            x       y       z     vdW  Elec       q    Type
REMARK                         _______ _______ _______ _____ _____    ______ ____
ROOT
ATOM      1  C   UNL     1       2.396   5.156  19.898  0.00  0.00    +0.000 A 
ATOM      2  C   UNL     1       1.354   4.633  20.675  0.00  0.00    +0.000 A 
ATOM      3  C   UNL     1       1.165   3.261  20.830  0.00  0.00    +0.000 A 
ATOM      4  C   UNL     1       2.010   2.373  20.188  0.00  0.00    +0.000 A 
ATOM      5  C   UNL     1       3.057   2.858  19.406  0.00  0.00    +0.000 A 
ATOM      6  C   UNL     1       3.284   4.249  19.253  0.00  0.00    +0.000 A 
ENDROOT
BRANCH   6   7
ATOM      7  C   UNL     1       4.429   4.718  18.453  0.00  0.00    +0.000 A 
ATOM      8  N   UNL     1       4.438   4.748  17.135  0.00  0.00    +0.000 NA
ATOM      9  C   UNL     1       5.652   5.208  16.672  0.00  0.00    +0.000 A 
ATOM     10  C   UNL     1       6.590   5.508  17.634  0.00  0.00    +0.000 A 
ATOM     11  S   UNL     1       5.910   5.250  19.183  0.00  0.00    +0.000 S 
BRANCH   9  12
ATOM     12  C   UNL     1       5.920   5.354  15.186  0.00  0.00    +0.000 C 
ATOM     13  C   UNL     1       7.319   4.814  14.755  0.00  0.00    +0.000 C 
ATOM     14  C   UNL     1       6.636   4.245  13.499  0.00  0.00    +0.000 C 
ATOM     15  C   UNL     1       5.346   4.183  14.332  0.00  0.00    +0.000 C 
ENDBRANCH   9  12
ENDBRANCH   6   7
BRANCH   1  18
ATOM     16  O   UNL     1       1.987   7.040  17.646  0.00  0.00    +0.000 OA
ATOM     17  C   UNL     1       2.223   7.391  18.789  0.00  0.00    +0.000 C 
ATOM     18  N   UNL     1       2.566   6.566  19.854  0.00  0.00    +0.000 N 
ATOM     19  H   UNL     1       3.020   7.000  20.648  0.00  0.00    +0.000 HD
BRANCH  17  20
ATOM     20  O   UNL     1       2.222   8.698  19.187  0.00  0.00    +0.000 OA
BRANCH  20  21
ATOM     21  C   UNL     1       1.474   9.626  18.370  0.00  0.00    +0.000 C 
BRANCH  21  22
ATOM     22  C   UNL     1       0.169  10.162  19.009  0.00  0.00    +0.000 C 
ATOM     23  C   UNL     1       0.161  11.709  19.005  0.00  0.00    +0.000 C 
ATOM     24  C   UNL     1       1.101  12.291  20.065  0.00  0.00    +0.000 C 
ATOM     25  N   UNL     1       0.750  11.817  21.404  0.00  0.00    +0.000 NA
ATOM     26  C   UNL     1       0.810  10.355  21.481  0.00  0.00    +0.000 C 
ATOM     27  C   UNL     1      -0.089   9.678  20.443  0.00  0.00    +0.000 C 
ATOM     28  H   UNL     1      -0.197  12.124  21.626  0.00  0.00    +0.000 HD
ENDBRANCH  21  22
ENDBRANCH  20  21
ENDBRANCH  17  20
ENDBRANCH   1  18
TORSDOF 6
ENDMDL
MODEL 8
REMARK VINA RESULT:      -7.5      3.581      7.391
REMARK  Name = 
REMARK  6 active torsions:
REMARK  status: ('A' for Active; 'I' for Inactive)
REMARK    1  A    between atoms: C_2  and  O_19
REMARK    2  A    between atoms: N_3  and  C_4
REMARK    3  A    between atoms: C_9  and  C_10
REMARK    4  A    between atoms: C_12  and  C_13
REMARK    5  A    between atoms: O_19  and  C_20
REMARK    6  A    between atoms: C_20  and  C_21
REMARK                            x       y       z     vdW  Elec       q    Type
REMARK                         _______ _______ _______ _____ _____    ______ ____
ROOT
ATOM      1  C   UNL     1       2.516   5.031  19.957  0.00  0.00    +0.000 A 
ATOM      2  C   UNL     1       1.585   4.610  20.916  0.00  0.00    +0.000 A 
ATOM      3  C   UNL     1       1.379   3.262  21.202  0.00  0.00    +0.000 A 
ATOM      4  C   UNL     1       2.092   2.295  20.515  0.00  0.00    +0.000 A 
ATOM      5  C   UNL     1       3.026   2.678  19.554  0.00  0.00    +0.000 A 
ATOM      6  C   UNL     1       3.270   4.044  19.262  0.00  0.00    +0.000 A 
ENDROOT
BRANCH   6   7
ATOM      7  C   UNL     1       4.298   4.405  18.270  0.00  0.00    +0.000 A 
ATOM      8  N   UNL     1       5.344   5.159  18.541  0.00  0.00    +0.000 NA
ATOM      9  C   UNL     1       6.110   5.345  17.409  0.00  0.00    +0.000 A 
ATOM     10  C   UNL     1       5.638   4.754  16.259  0.00  0.00    +0.000 A 
ATOM     11  S   UNL     1       4.205   3.892  16.616  0.00  0.00    +0.000 S 
BRANCH   9  12
ATOM     12  C   UNL     1       7.385   6.165  17.452  0.00  0.00    +0.000 C 
ATOM     13  C   UNL     1       7.129   7.704  17.439  0.00  0.00    +0.000 C 
ATOM     14  C   UNL     1       8.266   7.833  18.467  0.00  0.00    +0.000 C 
ATOM     15  C   UNL     1       7.929   6.395  18.894  0.00  0.00    +0.000 C 
ENDBRANCH   9  12
ENDBRANCH   6   7
BRANCH   1  18
ATOM     16  O   UNL     1       1.622   6.808  17.758  0.00  0.00    +0.000 OA
ATOM     17  C   UNL     1       2.150   7.208  18.781  0.00  0.00    +0.000 C 
ATOM     18  N   UNL     1       2.720   6.426  19.779  0.00  0.00    +0.000 N 
ATOM     19  H   UNL     1       3.375   6.879  20.405  0.00  0.00    +0.000 HD
BRANCH  17  20
ATOM     20  O   UNL     1       2.297   8.533  19.080  0.00  0.00    +0.000 OA
BRANCH  20  21
ATOM     21  C   UNL     1       1.839   8.961  20.382  0.00  0.00    +0.000 C 
BRANCH  21  22
ATOM     22  C   UNL     1       0.305   9.126  20.519  0.00  0.00    +0.000 C 
ATOM     23  C   UNL     1      -0.100  10.604  20.315  0.00  0.00    +0.000 C 
ATOM     24  C   UNL     1       0.256  11.470  21.528  0.00  0.00    +0.000 C 
ATOM     25  N   UNL     1      -0.379  10.967  22.745  0.00  0.00    +0.000 NA
ATOM     26  C   UNL     1       0.027   9.587  23.023  0.00  0.00    +0.000 C 
ATOM     27  C   UNL     1      -0.275   8.643  21.857  0.00  0.00    +0.000 C 
ATOM     28  H   UNL     1      -1.392  10.999  22.627  0.00  0.00    +0.000 HD
ENDBRANCH  21  22
ENDBRANCH  20  21
ENDBRANCH  17  20
ENDBRANCH   1  18
TORSDOF 6
ENDMDL
MODEL 9
REMARK VINA RESULT:      -7.5      4.575      7.581
REMARK  Name = 
REMARK  6 active torsions:
REMARK  status: ('A' for Active; 'I' for Inactive)
REMARK    1  A    between atoms: C_2  and  O_19
REMARK    2  A    between atoms: N_3  and  C_4
REMARK    3  A    between atoms: C_9  and  C_10
REMARK    4  A    between atoms: C_12  and  C_13
REMARK    5  A    between atoms: O_19  and  C_20
REMARK    6  A    between atoms: C_20  and  C_21
REMARK                            x       y       z     vdW  Elec       q    Type
REMARK                         _______ _______ _______ _____ _____    ______ ____
ROOT
ATOM      1  C   UNL     1       2.224   5.139  19.420  0.00  0.00    +0.000 A 
ATOM      2  C   UNL     1       1.219   4.706  20.296  0.00  0.00    +0.000 A 
ATOM      3  C   UNL     1       1.335   3.524  21.025  0.00  0.00    +0.000 A 
ATOM      4  C   UNL     1       2.459   2.730  20.877  0.00  0.00    +0.000 A 
ATOM      5  C   UNL     1       3.477   3.129  20.013  0.00  0.00    +0.000 A 
ATOM      6  C   UNL     1       3.393   4.340  19.280  0.00  0.00    +0.000 A 
ENDROOT
BRANCH   6   7
ATOM      7  C   UNL     1       4.513   4.746  18.411  0.00  0.00    +0.000 A 
ATOM      8  N   UNL     1       4.444   4.777  17.095  0.00  0.00    +0.000 NA
ATOM      9  C   UNL     1       5.653   5.169  16.559  0.00  0.00    +0.000 A 
ATOM     10  C   UNL     1       6.661   5.416  17.463  0.00  0.00    +0.000 A 
ATOM     11  S   UNL     1       6.061   5.195  19.050  0.00  0.00    +0.000 S 
BRANCH   9  12
ATOM     12  C   UNL     1       5.838   5.301  15.060  0.00  0.00    +0.000 C 
ATOM     13  C   UNL     1       7.248   4.846  14.570  0.00  0.00    +0.000 C 
ATOM     14  C   UNL     1       6.546   4.206  13.360  0.00  0.00    +0.000 C 
ATOM     15  C   UNL     1       5.303   4.077  14.256  0.00  0.00    +0.000 C 
ENDBRANCH   9  12
ENDBRANCH   6   7
BRANCH   1  18
ATOM     16  O   UNL     1       1.996   7.853  20.591  0.00  0.00    +0.000 OA
ATOM     17  C   UNL     1       2.098   7.637  19.396  0.00  0.00    +0.000 C 
ATOM     18  N   UNL     1       2.063   6.394  18.774  0.00  0.00    +0.000 N 
ATOM     19  H   UNL     1       1.858   6.379  17.782  0.00  0.00    +0.000 HD
BRANCH  17  20
ATOM     20  O   UNL     1       2.226   8.627  18.463  0.00  0.00    +0.000 OA
BRANCH  20  21
ATOM     21  C   UNL     1       1.016   9.312  18.072  0.00  0.00    +0.000 C 
BRANCH  21  22
ATOM     22  C   UNL     1       0.314  10.106  19.203  0.00  0.00    +0.000 C 
ATOM     23  C   UNL     1      -1.178  10.326  18.863  0.00  0.00    +0.000 C 
ATOM     24  C   UNL     1      -1.369  11.396  17.784  0.00  0.00    +0.000 C 
ATOM     25  N   UNL     1      -0.782  12.672  18.190  0.00  0.00    +0.000 NA
ATOM     26  C   UNL     1       0.652  12.532  18.458  0.00  0.00    +0.000 C 
ATOM     27  C   UNL     1       0.948  11.469  19.518  0.00  0.00    +0.000 C 
ATOM     28  H   UNL     1      -1.249  12.997  19.036  0.00  0.00    +0.000 HD
ENDBRANCH  21  22
ENDBRANCH  20  21
ENDBRANCH  17  20
ENDBRANCH   1  18
TORSDOF 6
ENDMDL
