MODEL 1
REMARK VINA RESULT:      -8.3      0.000      0.000
REMARK  Name = 
REMARK  7 active torsions:
REMARK  status: ('A' for Active; 'I' for Inactive)
REMARK    1  A    between atoms: C_1  and  C_2
REMARK    2  A    between atoms: N_3  and  C_4
REMARK    3  A    between atoms: C_11  and  C_12
REMARK    4  A    between atoms: C_12  and  O_14
REMARK    5  A    between atoms: N_16  and  C_17
REMARK    6  A    between atoms: C_24  and  C_25
REMARK    7  A    between atoms: C_24  and  N_26
REMARK                            x       y       z     vdW  Elec       q    Type
REMARK                         _______ _______ _______ _____ _____    ______ ____
ROOT
ATOM      1  C   UNL     1       1.268   8.708  19.611  0.00  0.00    +0.000 A 
ATOM      2  C   UNL     1       1.890   9.168  18.442  0.00  0.00    +0.000 A 
ATOM      3  F   UNL     1       1.594  10.372  17.932  0.00  0.00    +0.000 F 
ATOM      4  C   UNL     1       2.832   8.423  17.756  0.00  0.00    +0.000 A 
ATOM      5  C   UNL     1       3.184   7.160  18.229  0.00  0.00    +0.000 A 
ATOM      6  C   UNL     1       4.197   6.398  17.469  0.00  0.00    +0.000 A 
ATOM      7  O   UNL     1       4.731   6.862  16.463  0.00  0.00    +0.000 OA
ATOM      8  C   UNL     1       4.551   5.046  17.933  0.00  0.00    +0.000 A 
ATOM      9  C   UNL     1       3.922   4.601  19.034  0.00  0.00    +0.000 A 
ATOM     10  N   UNL     1       3.003   5.301  19.798  0.00  0.00    +0.000 N 
ATOM     11  C   UNL     1       2.600   6.618  19.392  0.00  0.00    +0.000 A 
ATOM     12  C   UNL     1       1.650   7.424  20.077  0.00  0.00    +0.000 A 
ATOM     13  F   UNL     1       1.086   6.956  21.199  0.00  0.00    +0.000 F 
ENDROOT
BRANCH   1  16
ATOM     14  C   UNL     1      -0.014   9.657  22.705  0.00  0.00    +0.000 C 
ATOM     15  C   UNL     1       0.542  10.336  21.459  0.00  0.00    +0.000 C 
ATOM     16  N   UNL     1       0.317   9.535  20.271  0.00  0.00    +0.000 N 
ATOM     17  C   UNL     1      -0.698  10.406  19.742  0.00  0.00    +0.000 C 
ATOM     18  C   UNL     1      -0.297  11.466  20.797  0.00  0.00    +0.000 C 
ATOM     19  C   UNL     1      -1.369  12.187  21.582  0.00  0.00    +0.000 C 
BRANCH  18  20
ATOM     20  N   UNL     1       0.627  12.435  20.153  0.00  0.00    +0.000 NA
ATOM     21  H   UNL     1       1.172  12.978  20.823  0.00  0.00    +0.000 HD
ATOM     22  H   UNL     1       0.160  13.114  19.554  0.00  0.00    +0.000 HD
ENDBRANCH  18  20
ENDBRANCH   1  16
BRANCH  10  23
ATOM     23  C   UNL     1       2.357   4.601  20.933  0.00  0.00    +0.000 C 
ATOM     24  C   UNL     1       1.193   3.640  20.816  0.00  0.00    +0.000 C 
ATOM     25  C   UNL     1       2.561   3.116  21.112  0.00  0.00    +0.000 C 
ENDBRANCH  10  23
BRANCH   8  26
ATOM     26  C   UNL     1       5.541   4.185  17.258  0.00  0.00    +0.000 C 
ATOM     27  O   UNL     1       5.341   3.653  16.174  0.00  0.00    +0.000 OA
BRANCH  26  28
ATOM     28  O   UNL     1       6.700   4.018  17.934  0.00  0.00    +0.000 OA
ATOM     29  H   UNL     1       6.810   3.122  18.336  0.00  0.00    +0.000 HD
ENDBRANCH  26  28
ENDBRANCH   8  26
TORSDOF 5
ENDMDL
MODEL 2
REMARK VINA RESULT:      -7.9      0.757      1.365
REMARK  Name = 
REMARK  7 active torsions:
REMARK  status: ('A' for Active; 'I' for Inactive)
REMARK    1  A    between atoms: C_1  and  C_2
REMARK    2  A    between atoms: N_3  and  C_4
REMARK    3  A    between atoms: C_11  and  C_12
REMARK    4  A    between atoms: C_12  and  O_14
REMARK    5  A    between atoms: N_16  and  C_17
REMARK    6  A    between atoms: C_24  and  C_25
REMARK    7  A    between atoms: C_24  and  N_26
REMARK                            x       y       z     vdW  Elec       q    Type
REMARK                         _______ _______ _______ _____ _____    ______ ____
ROOT
ATOM      1  C   UNL     1       1.563   8.982  19.537  0.00  0.00    +0.000 A 
ATOM      2  C   UNL     1       2.177   9.360  18.334  0.00  0.00    +0.000 A 
ATOM      3  F   UNL     1       1.986  10.582  17.818  0.00  0.00    +0.000 F 
ATOM      4  C   UNL     1       3.004   8.512  17.620  0.00  0.00    +0.000 A 
ATOM      5  C   UNL     1       3.242   7.224  18.098  0.00  0.00    +0.000 A 
ATOM      6  C   UNL     1       4.135   6.351  17.307  0.00  0.00    +0.000 A 
ATOM      7  O   UNL     1       4.669   6.744  16.271  0.00  0.00    +0.000 OA
ATOM      8  C   UNL     1       4.366   4.975  17.778  0.00  0.00    +0.000 A 
ATOM      9  C   UNL     1       3.744   4.612  18.912  0.00  0.00    +0.000 A 
ATOM     10  N   UNL     1       2.939   5.413  19.704  0.00  0.00    +0.000 N 
ATOM     11  C   UNL     1       2.658   6.760  19.294  0.00  0.00    +0.000 A 
ATOM     12  C   UNL     1       1.830   7.670  20.007  0.00  0.00    +0.000 A 
ATOM     13  F   UNL     1       1.271   7.277  21.160  0.00  0.00    +0.000 F 
ENDROOT
BRANCH   1  16
ATOM     14  C   UNL     1      -1.379  10.833  19.370  0.00  0.00    +0.000 C 
ATOM     15  C   UNL     1      -0.711   9.865  20.338  0.00  0.00    +0.000 C 
ATOM     16  N   UNL     1       0.735   9.911  20.224  0.00  0.00    +0.000 N 
ATOM     17  C   UNL     1       0.922  10.587  21.480  0.00  0.00    +0.000 C 
ATOM     18  C   UNL     1      -0.558  10.294  21.825  0.00  0.00    +0.000 C 
ATOM     19  C   UNL     1      -1.427  11.389  22.401  0.00  0.00    +0.000 C 
BRANCH  18  20
ATOM     20  N   UNL     1      -0.603   9.081  22.682  0.00  0.00    +0.000 NA
ATOM     21  H   UNL     1      -0.962   9.263  23.620  0.00  0.00    +0.000 HD
ATOM     22  H   UNL     1       0.302   8.632  22.810  0.00  0.00    +0.000 HD
ENDBRANCH  18  20
ENDBRANCH   1  16
BRANCH  10  23
ATOM     23  C   UNL     1       2.274   4.798  20.878  0.00  0.00    +0.000 C 
ATOM     24  C   UNL     1       1.119   3.822  20.813  0.00  0.00    +0.000 C 
ATOM     25  C   UNL     1       2.485   3.334  21.175  0.00  0.00    +0.000 C 
ENDBRANCH  10  23
BRANCH   8  26
ATOM     26  C   UNL     1       5.229   4.006  17.075  0.00  0.00    +0.000 C 
ATOM     27  O   UNL     1       4.825   3.266  16.187  0.00  0.00    +0.000 OA
BRANCH  26  28
ATOM     28  O   UNL     1       6.515   3.990  17.489  0.00  0.00    +0.000 OA
ATOM     29  H   UNL     1       7.158   3.676  16.805  0.00  0.00    +0.000 HD
ENDBRANCH  26  28
ENDBRANCH   8  26
TORSDOF 5
ENDMDL
MODEL 3
REMARK VINA RESULT:      -7.8      2.129      3.576
REMARK  Name = 
REMARK  7 active torsions:
REMARK  status: ('A' for Active; 'I' for Inactive)
REMARK    1  A    between atoms: C_1  and  C_2
REMARK    2  A    between atoms: N_3  and  C_4
REMARK    3  A    between atoms: C_11  and  C_12
REMARK    4  A    between atoms: C_12  and  O_14
REMARK    5  A    between atoms: N_16  and  C_17
REMARK    6  A    between atoms: C_24  and  C_25
REMARK    7  A    between atoms: C_24  and  N_26
REMARK                            x       y       z     vdW  Elec       q    Type
REMARK                         _______ _______ _______ _____ _____    ______ ____
ROOT
ATOM      1  C   UNL     1       1.399   8.352  19.650  0.00  0.00    +0.000 A 
ATOM      2  C   UNL     1       0.978   7.575  20.738  0.00  0.00    +0.000 A 
ATOM      3  F   UNL     1       0.098   8.056  21.628  0.00  0.00    +0.000 F 
ATOM      4  C   UNL     1       1.435   6.288  20.957  0.00  0.00    +0.000 A 
ATOM      5  C   UNL     1       2.355   5.728  20.073  0.00  0.00    +0.000 A 
ATOM      6  C   UNL     1       2.816   4.349  20.340  0.00  0.00    +0.000 A 
ATOM      7  O   UNL     1       2.392   3.703  21.297  0.00  0.00    +0.000 OA
ATOM      8  C   UNL     1       3.817   3.757  19.437  0.00  0.00    +0.000 A 
ATOM      9  C   UNL     1       4.240   4.524  18.418  0.00  0.00    +0.000 A 
ATOM     10  N   UNL     1       3.801   5.800  18.109  0.00  0.00    +0.000 N 
ATOM     11  C   UNL     1       2.838   6.443  18.957  0.00  0.00    +0.000 A 
ATOM     12  C   UNL     1       2.329   7.756  18.759  0.00  0.00    +0.000 A 
ATOM     13  F   UNL     1       2.744   8.463  17.699  0.00  0.00    +0.000 F 
ENDROOT
BRANCH   1  16
ATOM     14  C   UNL     1       0.602  11.326  21.274  0.00  0.00    +0.000 C 
ATOM     15  C   UNL     1       1.405  10.888  20.055  0.00  0.00    +0.000 C 
ATOM     16  N   UNL     1       0.877   9.664  19.481  0.00  0.00    +0.000 N 
ATOM     17  C   UNL     1       0.328  10.316  18.322  0.00  0.00    +0.000 C 
ATOM     18  C   UNL     1       1.127  11.589  18.695  0.00  0.00    +0.000 C 
ATOM     19  C   UNL     1       0.449  12.939  18.653  0.00  0.00    +0.000 C 
BRANCH  18  20
ATOM     20  N   UNL     1       2.379  11.602  17.896  0.00  0.00    +0.000 NA
ATOM     21  H   UNL     1       2.682  10.671  17.607  0.00  0.00    +0.000 HD
ATOM     22  H   UNL     1       3.173  12.018  18.380  0.00  0.00    +0.000 HD
ENDBRANCH  18  20
ENDBRANCH   1  16
BRANCH  10  23
ATOM     23  C   UNL     1       4.455   6.515  16.987  0.00  0.00    +0.000 C 
ATOM     24  C   UNL     1       5.904   6.951  16.958  0.00  0.00    +0.000 C 
ATOM     25  C   UNL     1       5.461   5.793  16.124  0.00  0.00    +0.000 C 
ENDBRANCH  10  23
BRANCH   8  26
ATOM     26  C   UNL     1       4.359   2.395  19.601  0.00  0.00    +0.000 C 
ATOM     27  O   UNL     1       5.105   2.073  20.517  0.00  0.00    +0.000 OA
BRANCH  26  28
ATOM     28  O   UNL     1       3.973   1.514  18.651  0.00  0.00    +0.000 OA
ATOM     29  H   UNL     1       2.999   1.343  18.628  0.00  0.00    +0.000 HD
ENDBRANCH  26  28
ENDBRANCH   8  26
TORSDOF 5
ENDMDL
MODEL 4
REMARK VINA RESULT:      -7.7      2.081      3.581
REMARK  Name = 
REMARK  7 active torsions:
REMARK  status: ('A' for Active; 'I' for Inactive)
REMARK    1  A    between atoms: C_1  and  C_2
REMARK    2  A    between atoms: N_3  and  C_4
REMARK    3  A    between atoms: C_11  and  C_12
REMARK    4  A    between atoms: C_12  and  O_14
REMARK    5  A    between atoms: N_16  and  C_17
REMARK    6  A    between atoms: C_24  and  C_25
REMARK    7  A    between atoms: C_24  and  N_26
REMARK                            x       y       z     vdW  Elec       q    Type
REMARK                         _______ _______ _______ _____ _____    ______ ____
ROOT
ATOM      1  C   UNL     1       1.521   8.427  19.509  0.00  0.00    +0.000 A 
ATOM      2  C   UNL     1       1.107   7.702  20.636  0.00  0.00    +0.000 A 
ATOM      3  F   UNL     1       0.267   8.241  21.530  0.00  0.00    +0.000 F 
ATOM      4  C   UNL     1       1.531   6.410  20.888  0.00  0.00    +0.000 A 
ATOM      5  C   UNL     1       2.409   5.791  20.001  0.00  0.00    +0.000 A 
ATOM      6  C   UNL     1       2.835   4.408  20.305  0.00  0.00    +0.000 A 
ATOM      7  O   UNL     1       2.418   3.810  21.296  0.00  0.00    +0.000 OA
ATOM      8  C   UNL     1       3.792   3.754  19.398  0.00  0.00    +0.000 A 
ATOM      9  C   UNL     1       4.209   4.471  18.341  0.00  0.00    +0.000 A 
ATOM     10  N   UNL     1       3.801   5.748  17.997  0.00  0.00    +0.000 N 
ATOM     11  C   UNL     1       2.881   6.451  18.848  0.00  0.00    +0.000 A 
ATOM     12  C   UNL     1       2.407   7.770  18.616  0.00  0.00    +0.000 A 
ATOM     13  F   UNL     1       2.814   8.427  17.520  0.00  0.00    +0.000 F 
ENDROOT
BRANCH   1  16
ATOM     14  C   UNL     1      -1.142  10.325  18.316  0.00  0.00    +0.000 C 
ATOM     15  C   UNL     1      -0.306  10.230  19.586  0.00  0.00    +0.000 C 
ATOM     16  N   UNL     1       1.034   9.747  19.307  0.00  0.00    +0.000 N 
ATOM     17  C   UNL     1       1.659  11.024  19.532  0.00  0.00    +0.000 C 
ATOM     18  C   UNL     1       0.333  11.531  20.150  0.00  0.00    +0.000 C 
ATOM     19  C   UNL     1      -0.210  12.886  19.755  0.00  0.00    +0.000 C 
BRANCH  18  20
ATOM     20  N   UNL     1       0.436  11.414  21.628  0.00  0.00    +0.000 NA
ATOM     21  H   UNL     1      -0.028  10.585  21.999  0.00  0.00    +0.000 HD
ATOM     22  H   UNL     1       0.042  12.207  22.132  0.00  0.00    +0.000 HD
ENDBRANCH  18  20
ENDBRANCH   1  16
BRANCH  10  23
ATOM     23  C   UNL     1       4.444   6.402  16.833  0.00  0.00    +0.000 C 
ATOM     24  C   UNL     1       5.893   6.836  16.769  0.00  0.00    +0.000 C 
ATOM     25  C   UNL     1       5.443   5.635  16.001  0.00  0.00    +0.000 C 
ENDBRANCH  10  23
BRANCH   8  26
ATOM     26  C   UNL     1       4.297   2.382  19.596  0.00  0.00    +0.000 C 
ATOM     27  O   UNL     1       5.003   2.055  20.542  0.00  0.00    +0.000 OA
BRANCH  26  28
ATOM     28  O   UNL     1       3.924   1.498  18.644  0.00  0.00    +0.000 OA
ATOM     29  H   UNL     1       4.624   1.307  17.971  0.00  0.00    +0.000 HD
ENDBRANCH  26  28
ENDBRANCH   8  26
TORSDOF 5
ENDMDL
MODEL 5
REMARK VINA RESULT:      -7.5      2.168      3.681
REMARK  Name = 
REMARK  7 active torsions:
REMARK  status: ('A' for Active; 'I' for Inactive)
REMARK    1  A    between atoms: C_1  and  C_2
REMARK    2  A    between atoms: N_3  and  C_4
REMARK    3  A    between atoms: C_11  and  C_12
REMARK    4  A    between atoms: C_12  and  O_14
REMARK    5  A    between atoms: N_16  and  C_17
REMARK    6  A    between atoms: C_24  and  C_25
REMARK    7  A    between atoms: C_24  and  N_26
REMARK                            x       y       z     vdW  Elec       q    Type
REMARK                         _______ _______ _______ _____ _____    ______ ____
ROOT
ATOM      1  C   UNL     1       1.682   8.269  19.651  0.00  0.00    +0.000 A 
ATOM      2  C   UNL     1       1.242   7.485  20.727  0.00  0.00    +0.000 A 
ATOM      3  F   UNL     1       0.441   8.000  21.671  0.00  0.00    +0.000 F 
ATOM      4  C   UNL     1       1.598   6.157  20.877  0.00  0.00    +0.000 A 
ATOM      5  C   UNL     1       2.432   5.560  19.933  0.00  0.00    +0.000 A 
ATOM      6  C   UNL     1       2.785   4.138  20.128  0.00  0.00    +0.000 A 
ATOM      7  O   UNL     1       2.347   3.490  21.078  0.00  0.00    +0.000 OA
ATOM      8  C   UNL     1       3.696   3.503  19.161  0.00  0.00    +0.000 A 
ATOM      9  C   UNL     1       4.141   4.274  18.154  0.00  0.00    +0.000 A 
ATOM     10  N   UNL     1       3.798   5.593  17.912  0.00  0.00    +0.000 N 
ATOM     11  C   UNL     1       2.927   6.278  18.826  0.00  0.00    +0.000 A 
ATOM     12  C   UNL     1       2.522   7.635  18.699  0.00  0.00    +0.000 A 
ATOM     13  F   UNL     1       2.952   8.349  17.649  0.00  0.00    +0.000 F 
ENDROOT
BRANCH   1  16
ATOM     14  C   UNL     1       2.264  11.317  18.075  0.00  0.00    +0.000 C 
ATOM     15  C   UNL     1       1.082  10.391  18.336  0.00  0.00    +0.000 C 
ATOM     16  N   UNL     1       1.266   9.625  19.554  0.00  0.00    +0.000 N 
ATOM     17  C   UNL     1       0.273  10.358  20.295  0.00  0.00    +0.000 C 
ATOM     18  C   UNL     1      -0.205  10.995  18.967  0.00  0.00    +0.000 C 
ATOM     19  C   UNL     1      -0.467  12.482  18.899  0.00  0.00    +0.000 C 
BRANCH  18  20
ATOM     20  N   UNL     1      -1.382  10.229  18.482  0.00  0.00    +0.000 NA
ATOM     21  H   UNL     1      -1.495   9.327  18.947  0.00  0.00    +0.000 HD
ATOM     22  H   UNL     1      -1.363  10.030  17.484  0.00  0.00    +0.000 HD
ENDBRANCH  18  20
ENDBRANCH   1  16
BRANCH  10  23
ATOM     23  C   UNL     1       4.464   6.297  16.791  0.00  0.00    +0.000 C 
ATOM     24  C   UNL     1       5.883   6.823  16.812  0.00  0.00    +0.000 C 
ATOM     25  C   UNL     1       5.555   5.603  16.013  0.00  0.00    +0.000 C 
ENDBRANCH  10  23
BRANCH   8  26
ATOM     26  C   UNL     1       4.128   2.095  19.250  0.00  0.00    +0.000 C 
ATOM     27  O   UNL     1       3.698   1.212  18.521  0.00  0.00    +0.000 OA
BRANCH  26  28
ATOM     28  O   UNL     1       5.045   1.845  20.212  0.00  0.00    +0.000 OA
ATOM     29  H   UNL     1       5.982   1.979  19.924  0.00  0.00    +0.000 HD
ENDBRANCH  26  28
ENDBRANCH   8  26
TORSDOF 5
ENDMDL
MODEL 6
REMARK VINA RESULT:      -7.5      2.942      6.855
REMARK  Name = 
REMARK  7 active torsions:
REMARK  status: ('A' for Active; 'I' for Inactive)
REMARK    1  A    between atoms: C_1  and  C_2
REMARK    2  A    between atoms: N_3  and  C_4
REMARK    3  A    between atoms: C_11  and  C_12
REMARK    4  A    between atoms: C_12  and  O_14
REMARK    5  A    between atoms: N_16  and  C_17
REMARK    6  A    between atoms: C_24  and  C_25
REMARK    7  A    between atoms: C_24  and  N_26
REMARK                            x       y       z     vdW  Elec       q    Type
REMARK                         _______ _______ _______ _____ _____    ______ ____
ROOT
ATOM      1  C   UNL     1       2.498   6.469  19.216  0.00  0.00    +0.000 A 
ATOM      2  C   UNL     1       3.026   7.120  18.092  0.00  0.00    +0.000 A 
ATOM      3  F   UNL     1       3.819   6.470  17.229  0.00  0.00    +0.000 F 
ATOM      4  C   UNL     1       2.765   8.449  17.810  0.00  0.00    +0.000 A 
ATOM      5  C   UNL     1       1.952   9.186  18.669  0.00  0.00    +0.000 A 
ATOM      6  C   UNL     1       1.695  10.601  18.329  0.00  0.00    +0.000 A 
ATOM      7  O   UNL     1       2.163  11.115  17.314  0.00  0.00    +0.000 OA
ATOM      8  C   UNL     1       0.869  11.404  19.246  0.00  0.00    +0.000 A 
ATOM      9  C   UNL     1       0.398  10.779  20.339  0.00  0.00    +0.000 A 
ATOM     10  N   UNL     1       0.578   9.446  20.668  0.00  0.00    +0.000 N 
ATOM     11  C   UNL     1       1.387   8.611  19.826  0.00  0.00    +0.000 A 
ATOM     12  C   UNL     1       1.665   7.238  20.069  0.00  0.00    +0.000 A 
ATOM     13  F   UNL     1       1.131   6.646  21.147  0.00  0.00    +0.000 F 
ENDROOT
BRANCH   1  16
ATOM     14  C   UNL     1       1.185   3.385  20.156  0.00  0.00    +0.000 C 
ATOM     15  C   UNL     1       2.010   3.956  19.009  0.00  0.00    +0.000 C 
ATOM     16  N   UNL     1       2.798   5.097  19.437  0.00  0.00    +0.000 N 
ATOM     17  C   UNL     1       4.050   4.389  19.386  0.00  0.00    +0.000 C 
ATOM     18  C   UNL     1       3.338   3.243  18.627  0.00  0.00    +0.000 C 
ATOM     19  C   UNL     1       3.582   1.807  19.033  0.00  0.00    +0.000 C 
BRANCH  18  20
ATOM     20  N   UNL     1       3.581   3.428  17.172  0.00  0.00    +0.000 NA
ATOM     21  H   UNL     1       2.736   3.335  16.608  0.00  0.00    +0.000 HD
ATOM     22  H   UNL     1       4.255   2.774  16.780  0.00  0.00    +0.000 HD
ENDBRANCH  18  20
ENDBRANCH   1  16
BRANCH  10  23
ATOM     23  C   UNL     1       0.045   8.966  21.965  0.00  0.00    +0.000 C 
ATOM     24  C   UNL     1       0.581   9.357  23.326  0.00  0.00    +0.000 C 
ATOM     25  C   UNL     1      -0.725   9.911  22.854  0.00  0.00    +0.000 C 
ENDBRANCH  10  23
BRANCH   8  26
ATOM     26  C   UNL     1       0.547  12.826  19.022  0.00  0.00    +0.000 C 
ATOM     27  O   UNL     1       0.853  13.716  19.804  0.00  0.00    +0.000 OA
BRANCH  26  28
ATOM     28  O   UNL     1      -0.123  13.080  17.876  0.00  0.00    +0.000 OA
ATOM     29  H   UNL     1      -0.213  14.042  17.663  0.00  0.00    +0.000 HD
ENDBRANCH  26  28
ENDBRANCH   8  26
TORSDOF 5
ENDMDL
MODEL 7
REMARK VINA RESULT:      -7.0      4.383      6.594
REMARK  Name = 
REMARK  7 active torsions:
REMARK  status: ('A' for Active; 'I' for Inactive)
REMARK    1  A    between atoms: C_1  and  C_2
REMARK    2  A    between atoms: N_3  and  C_4
REMARK    3  A    between atoms: C_11  and  C_12
REMARK    4  A    between atoms: C_12  and  O_14
REMARK    5  A    between atoms: N_16  and  C_17
REMARK    6  A    between atoms: C_24  and  C_25
REMARK    7  A    between atoms: C_24  and  N_26
REMARK                            x       y       z     vdW  Elec       q    Type
REMARK                         _______ _______ _______ _____ _____    ______ ____
ROOT
ATOM      1  C   UNL     1       4.100   3.782  18.425  0.00  0.00    +0.000 A 
ATOM      2  C   UNL     1       4.004   2.824  17.406  0.00  0.00    +0.000 A 
ATOM      3  F   UNL     1       3.221   1.745  17.546  0.00  0.00    +0.000 F 
ATOM      4  C   UNL     1       4.698   2.930  16.214  0.00  0.00    +0.000 A 
ATOM      5  C   UNL     1       5.535   4.025  16.004  0.00  0.00    +0.000 A 
ATOM      6  C   UNL     1       6.255   4.104  14.716  0.00  0.00    +0.000 A 
ATOM      7  O   UNL     1       6.112   3.247  13.845  0.00  0.00    +0.000 OA
ATOM      8  C   UNL     1       7.172   5.234  14.493  0.00  0.00    +0.000 A 
ATOM      9  C   UNL     1       7.284   6.127  15.491  0.00  0.00    +0.000 A 
ATOM     10  N   UNL     1       6.594   6.113  16.691  0.00  0.00    +0.000 N 
ATOM     11  C   UNL     1       5.696   5.030  16.980  0.00  0.00    +0.000 A 
ATOM     12  C   UNL     1       4.951   4.891  18.182  0.00  0.00    +0.000 A 
ATOM     13  F   UNL     1       5.058   5.835  19.128  0.00  0.00    +0.000 F 
ENDROOT
BRANCH   1  16
ATOM     14  C   UNL     1       1.847   5.294  20.605  0.00  0.00    +0.000 C 
ATOM     15  C   UNL     1       1.961   3.986  19.832  0.00  0.00    +0.000 C 
ATOM     16  N   UNL     1       3.348   3.613  19.620  0.00  0.00    +0.000 N 
ATOM     17  C   UNL     1       3.314   2.527  20.563  0.00  0.00    +0.000 C 
ATOM     18  C   UNL     1       1.771   2.651  20.605  0.00  0.00    +0.000 C 
ATOM     19  C   UNL     1       1.052   2.630  21.935  0.00  0.00    +0.000 C 
BRANCH  18  20
ATOM     20  N   UNL     1       1.199   1.637  19.681  0.00  0.00    +0.000 NA
ATOM     21  H   UNL     1       0.226   1.409  19.886  0.00  0.00    +0.000 HD
ATOM     22  H   UNL     1       1.701   0.751  19.679  0.00  0.00    +0.000 HD
ENDBRANCH  18  20
ENDBRANCH   1  16
BRANCH  10  23
ATOM     23  C   UNL     1       6.921   7.148  17.701  0.00  0.00    +0.000 C 
ATOM     24  C   UNL     1       8.172   7.169  18.552  0.00  0.00    +0.000 C 
ATOM     25  C   UNL     1       8.023   8.140  17.425  0.00  0.00    +0.000 C 
ENDBRANCH  10  23
BRANCH   8  26
ATOM     26  C   UNL     1       7.952   5.420  13.254  0.00  0.00    +0.000 C 
ATOM     27  O   UNL     1       8.979   6.084  13.200  0.00  0.00    +0.000 OA
BRANCH  26  28
ATOM     28  O   UNL     1       7.443   4.800  12.167  0.00  0.00    +0.000 OA
ATOM     29  H   UNL     1       8.123   4.398  11.572  0.00  0.00    +0.000 HD
ENDBRANCH  26  28
ENDBRANCH   8  26
TORSDOF 5
ENDMDL
MODEL 8
REMARK VINA RESULT:      -7.0      3.272      6.971
REMARK  Name = 
REMARK  7 active torsions:
REMARK  status: ('A' for Active; 'I' for Inactive)
REMARK    1  A    between atoms: C_1  and  C_2
REMARK    2  A    between atoms: N_3  and  C_4
REMARK    3  A    between atoms: C_11  and  C_12
REMARK    4  A    between atoms: C_12  and  O_14
REMARK    5  A    between atoms: N_16  and  C_17
REMARK    6  A    between atoms: C_24  and  C_25
REMARK    7  A    between atoms: C_24  and  N_26
REMARK                            x       y       z     vdW  Elec       q    Type
REMARK                         _______ _______ _______ _____ _____    ______ ____
ROOT
ATOM      1  C   UNL     1       2.285   7.422  18.964  0.00  0.00    +0.000 A 
ATOM      2  C   UNL     1       2.704   8.274  17.932  0.00  0.00    +0.000 A 
ATOM      3  F   UNL     1       3.511   7.830  16.958  0.00  0.00    +0.000 F 
ATOM      4  C   UNL     1       2.317   9.599  17.855  0.00  0.00    +0.000 A 
ATOM      5  C   UNL     1       1.481  10.127  18.838  0.00  0.00    +0.000 A 
ATOM      6  C   UNL     1       1.088  11.547  18.717  0.00  0.00    +0.000 A 
ATOM      7  O   UNL     1       1.464  12.241  17.774  0.00  0.00    +0.000 OA
ATOM      8  C   UNL     1       0.237  12.130  19.767  0.00  0.00    +0.000 A 
ATOM      9  C   UNL     1      -0.130  11.315  20.771  0.00  0.00    +0.000 A 
ATOM     10  N   UNL     1       0.180   9.971  20.896  0.00  0.00    +0.000 N 
ATOM     11  C   UNL     1       1.020   9.343  19.915  0.00  0.00    +0.000 A 
ATOM     12  C   UNL     1       1.427   7.981  19.946  0.00  0.00    +0.000 A 
ATOM     13  F   UNL     1       0.994   7.194  20.942  0.00  0.00    +0.000 F 
ENDROOT
BRANCH   1  16
ATOM     14  C   UNL     1       5.055   5.316  18.993  0.00  0.00    +0.000 C 
ATOM     15  C   UNL     1       3.768   5.495  19.789  0.00  0.00    +0.000 C 
ATOM     16  N   UNL     1       2.713   6.066  18.972  0.00  0.00    +0.000 N 
ATOM     17  C   UNL     1       1.961   4.842  18.894  0.00  0.00    +0.000 C 
ATOM     18  C   UNL     1       2.857   4.254  20.011  0.00  0.00    +0.000 C 
ATOM     19  C   UNL     1       3.416   2.857  19.868  0.00  0.00    +0.000 C 
BRANCH  18  20
ATOM     20  N   UNL     1       2.145   4.407  21.306  0.00  0.00    +0.000 NA
ATOM     21  H   UNL     1       2.757   4.306  22.117  0.00  0.00    +0.000 HD
ATOM     22  H   UNL     1       1.387   3.741  21.441  0.00  0.00    +0.000 HD
ENDBRANCH  18  20
ENDBRANCH   1  16
BRANCH  10  23
ATOM     23  C   UNL     1      -0.251   9.263  22.124  0.00  0.00    +0.000 C 
ATOM     24  C   UNL     1       0.439   9.351  23.469  0.00  0.00    +0.000 C 
ATOM     25  C   UNL     1      -0.871  10.041  23.259  0.00  0.00    +0.000 C 
ENDBRANCH  10  23
BRANCH   8  26
ATOM     26  C   UNL     1      -0.218  13.534  19.764  0.00  0.00    +0.000 C 
ATOM     27  O   UNL     1      -0.096  14.283  20.725  0.00  0.00    +0.000 OA
BRANCH  26  28
ATOM     28  O   UNL     1      -0.790  13.941  18.609  0.00  0.00    +0.000 OA
ATOM     29  H   UNL     1      -0.208  14.508  18.045  0.00  0.00    +0.000 HD
ENDBRANCH  26  28
ENDBRANCH   8  26
TORSDOF 5
ENDMDL
MODEL 9
REMARK VINA RESULT:      -7.0      3.744      7.779
REMARK  Name = 
REMARK  7 active torsions:
REMARK  status: ('A' for Active; 'I' for Inactive)
REMARK    1  A    between atoms: C_1  and  C_2
REMARK    2  A    between atoms: N_3  and  C_4
REMARK    3  A    between atoms: C_11  and  C_12
REMARK    4  A    between atoms: C_12  and  O_14
REMARK    5  A    between atoms: N_16  and  C_17
REMARK    6  A    between atoms: C_24  and  C_25
REMARK    7  A    between atoms: C_24  and  N_26
REMARK                            x       y       z     vdW  Elec       q    Type
REMARK                         _______ _______ _______ _____ _____    ______ ____
ROOT
ATOM      1  C   UNL     1       2.041   7.266  19.287  0.00  0.00    +0.000 A 
ATOM      2  C   UNL     1       1.589   6.754  20.512  0.00  0.00    +0.000 A 
ATOM      3  F   UNL     1       1.773   5.465  20.829  0.00  0.00    +0.000 F 
ATOM      4  C   UNL     1       0.939   7.533  21.451  0.00  0.00    +0.000 A 
ATOM      5  C   UNL     1       0.710   8.882  21.183  0.00  0.00    +0.000 A 
ATOM      6  C   UNL     1       0.015   9.680  22.215  0.00  0.00    +0.000 A 
ATOM      7  O   UNL     1      -0.336   9.185  23.285  0.00  0.00    +0.000 OA
ATOM      8  C   UNL     1      -0.268  11.097  21.932  0.00  0.00    +0.000 A 
ATOM      9  C   UNL     1       0.137  11.568  20.740  0.00  0.00    +0.000 A 
ATOM     10  N   UNL     1       0.829  10.865  19.768  0.00  0.00    +0.000 N 
ATOM     11  C   UNL     1       1.123   9.475  19.973  0.00  0.00    +0.000 A 
ATOM     12  C   UNL     1       1.804   8.643  19.042  0.00  0.00    +0.000 A 
ATOM     13  F   UNL     1       2.234   9.172  17.888  0.00  0.00    +0.000 F 
ENDROOT
BRANCH   1  16
ATOM     14  C   UNL     1       4.744   6.986  17.112  0.00  0.00    +0.000 C 
ATOM     15  C   UNL     1       4.146   6.201  18.273  0.00  0.00    +0.000 C 
ATOM     16  N   UNL     1       2.713   6.408  18.374  0.00  0.00    +0.000 N 
ATOM     17  C   UNL     1       2.379   5.090  17.902  0.00  0.00    +0.000 C 
ATOM     18  C   UNL     1       3.864   4.685  18.073  0.00  0.00    +0.000 C 
ATOM     19  C   UNL     1       4.562   3.913  16.976  0.00  0.00    +0.000 C 
BRANCH  18  20
ATOM     20  N   UNL     1       4.008   3.992  19.379  0.00  0.00    +0.000 NA
ATOM     21  H   UNL     1       4.437   3.070  19.301  0.00  0.00    +0.000 HD
ATOM     22  H   UNL     1       3.128   3.852  19.872  0.00  0.00    +0.000 HD
ENDBRANCH  18  20
ENDBRANCH   1  16
BRANCH  10  23
ATOM     23  C   UNL     1       1.114  11.543  18.481  0.00  0.00    +0.000 C 
ATOM     24  C   UNL     1       1.045  13.038  18.250  0.00  0.00    +0.000 C 
ATOM     25  C   UNL     1       2.374  12.358  18.327  0.00  0.00    +0.000 C 
ENDBRANCH  10  23
BRANCH   8  26
ATOM     26  C   UNL     1      -0.960  11.996  22.876  0.00  0.00    +0.000 C 
ATOM     27  O   UNL     1      -0.496  13.065  23.248  0.00  0.00    +0.000 OA
BRANCH  26  28
ATOM     28  O   UNL     1      -2.159  11.546  23.309  0.00  0.00    +0.000 OA
ATOM     29  H   UNL     1      -2.122  11.057  24.169  0.00  0.00    +0.000 HD
ENDBRANCH  26  28
ENDBRANCH   8  26
TORSDOF 5
ENDMDL
