MODEL 1
REMARK VINA RESULT:      -8.6      0.000      0.000
REMARK  Name = 
REMARK  8 active torsions:
REMARK  status: ('A' for Active; 'I' for Inactive)
REMARK    1  A    between atoms: C_1  and  O_2
REMARK    2  A    between atoms: O_2  and  C_3
REMARK    3  A    between atoms: C_4  and  C_5
REMARK    4  A    between atoms: C_6  and  C_7
REMARK    5  A    between atoms: C_7  and  C_9
REMARK    6  A    between atoms: C_13  and  C_14
REMARK    7  A    between atoms: C_22  and  O_23
REMARK    8  A    between atoms: O_23  and  C_24
REMARK                            x       y       z     vdW  Elec       q    Type
REMARK                         _______ _______ _______ _____ _____    ______ ____
ROOT
ATOM      1  C   UNL     1       2.133   6.484  20.301  0.00  0.00    +0.000 C 
ATOM      2  C   UNL     1       1.494   5.531  20.995  0.00  0.00    +0.000 C 
ENDROOT
BRANCH   1   4
ATOM      3  C   UNL     1       1.578   8.672  19.109  0.00  0.00    +0.000 A 
ATOM      4  C   UNL     1       1.641   7.866  20.274  0.00  0.00    +0.000 A 
ATOM      5  C   UNL     1       1.275   8.387  21.530  0.00  0.00    +0.000 A 
ATOM      6  C   UNL     1       0.851   9.710  21.703  0.00  0.00    +0.000 A 
ATOM      7  C   UNL     1       0.834  10.485  20.540  0.00  0.00    +0.000 A 
ATOM      8  O   UNL     1       0.487  11.805  20.478  0.00  0.00    +0.000 OA
ATOM      9  C   UNL     1       0.611  12.196  19.187  0.00  0.00    +0.000 A 
ATOM     10  C   UNL     1       1.026  11.142  18.404  0.00  0.00    +0.000 A 
ATOM     11  C   UNL     1       1.181  10.021  19.274  0.00  0.00    +0.000 A 
BRANCH   3  13
ATOM     12  C   UNL     1       3.293   7.959  17.602  0.00  0.00    +0.000 C 
ATOM     13  O   UNL     1       1.931   8.300  17.839  0.00  0.00    +0.000 OA
ENDBRANCH   3  13
BRANCH   6  14
ATOM     14  O   UNL     1       0.480  10.285  22.885  0.00  0.00    +0.000 OA
ATOM     15  C   UNL     1      -0.904  10.245  23.207  0.00  0.00    +0.000 C 
ENDBRANCH   6  14
ENDBRANCH   1   4
BRANCH   2  16
ATOM     16  C   UNL     1       2.072   4.160  21.062  0.00  0.00    +0.000 C 
ATOM     17  O   UNL     1       2.239   3.579  22.132  0.00  0.00    +0.000 OA
BRANCH  16  18
ATOM     18  C   UNL     1       2.422   3.510  19.764  0.00  0.00    +0.000 A 
ATOM     19  C   UNL     1       1.618   2.494  19.269  0.00  0.00    +0.000 A 
ATOM     20  C   UNL     1       1.971   1.914  18.056  0.00  0.00    +0.000 A 
ATOM     21  C   UNL     1       3.093   2.384  17.375  0.00  0.00    +0.000 A 
ATOM     22  C   UNL     1       3.837   3.434  17.916  0.00  0.00    +0.000 A 
ATOM     23  N   UNL     1       3.515   3.981  19.114  0.00  0.00    +0.000 NA
BRANCH  22  24
ATOM     24  C   UNL     1       4.996   4.042  17.232  0.00  0.00    +0.000 A 
ATOM     25  C   UNL     1       6.132   4.481  17.940  0.00  0.00    +0.000 A 
ATOM     26  C   UNL     1       7.234   5.030  17.277  0.00  0.00    +0.000 A 
ATOM     27  C   UNL     1       7.230   5.151  15.893  0.00  0.00    +0.000 A 
ATOM     28  C   UNL     1       6.126   4.719  15.167  0.00  0.00    +0.000 A 
ATOM     29  C   UNL     1       5.023   4.170  15.830  0.00  0.00    +0.000 A 
ENDBRANCH  22  24
ENDBRANCH  16  18
ENDBRANCH   2  16
TORSDOF 6
ENDMDL
MODEL 2
REMARK VINA RESULT:      -8.6      3.027      8.350
REMARK  Name = 
REMARK  8 active torsions:
REMARK  status: ('A' for Active; 'I' for Inactive)
REMARK    1  A    between atoms: C_1  and  O_2
REMARK    2  A    between atoms: O_2  and  C_3
REMARK    3  A    between atoms: C_4  and  C_5
REMARK    4  A    between atoms: C_6  and  C_7
REMARK    5  A    between atoms: C_7  and  C_9
REMARK    6  A    between atoms: C_13  and  C_14
REMARK    7  A    between atoms: C_22  and  O_23
REMARK    8  A    between atoms: O_23  and  C_24
REMARK                            x       y       z     vdW  Elec       q    Type
REMARK                         _______ _______ _______ _____ _____    ______ ____
ROOT
ATOM      1  C   UNL     1       1.733   7.062  20.731  0.00  0.00    +0.000 C 
ATOM      2  C   UNL     1       1.387   8.304  20.361  0.00  0.00    +0.000 C 
ENDROOT
BRANCH   1   4
ATOM      3  C   UNL     1       1.719   4.700  19.762  0.00  0.00    +0.000 A 
ATOM      4  C   UNL     1       2.133   6.056  19.740  0.00  0.00    +0.000 A 
ATOM      5  C   UNL     1       3.034   6.518  18.761  0.00  0.00    +0.000 A 
ATOM      6  C   UNL     1       3.576   5.679  17.781  0.00  0.00    +0.000 A 
ATOM      7  C   UNL     1       3.174   4.343  17.854  0.00  0.00    +0.000 A 
ATOM      8  O   UNL     1       3.601   3.345  17.023  0.00  0.00    +0.000 OA
ATOM      9  C   UNL     1       2.997   2.200  17.424  0.00  0.00    +0.000 A 
ATOM     10  C   UNL     1       2.176   2.441  18.501  0.00  0.00    +0.000 A 
ATOM     11  C   UNL     1       2.285   3.834  18.796  0.00  0.00    +0.000 A 
BRANCH   3  13
ATOM     12  C   UNL     1       1.433   3.179  21.586  0.00  0.00    +0.000 C 
ATOM     13  O   UNL     1       0.876   4.118  20.672  0.00  0.00    +0.000 OA
ENDBRANCH   3  13
BRANCH   6  14
ATOM     14  O   UNL     1       4.452   6.052  16.802  0.00  0.00    +0.000 OA
ATOM     15  C   UNL     1       5.514   6.913  17.190  0.00  0.00    +0.000 C 
ENDBRANCH   6  14
ENDBRANCH   1   4
BRANCH   2  16
ATOM     16  C   UNL     1       1.066   9.317  21.404  0.00  0.00    +0.000 C 
ATOM     17  O   UNL     1       1.619   9.316  22.501  0.00  0.00    +0.000 OA
BRANCH  16  18
ATOM     18  C   UNL     1       0.050  10.353  21.049  0.00  0.00    +0.000 A 
ATOM     19  C   UNL     1      -0.124  11.452  21.876  0.00  0.00    +0.000 A 
ATOM     20  C   UNL     1      -1.075  12.399  21.514  0.00  0.00    +0.000 A 
ATOM     21  C   UNL     1      -1.795  12.225  20.333  0.00  0.00    +0.000 A 
ATOM     22  C   UNL     1      -1.544  11.111  19.531  0.00  0.00    +0.000 A 
ATOM     23  N   UNL     1      -0.640  10.169  19.897  0.00  0.00    +0.000 NA
BRANCH  22  24
ATOM     24  C   UNL     1      -2.208  10.882  18.231  0.00  0.00    +0.000 A 
ATOM     25  C   UNL     1      -1.677  10.000  17.270  0.00  0.00    +0.000 A 
ATOM     26  C   UNL     1      -2.331   9.772  16.054  0.00  0.00    +0.000 A 
ATOM     27  C   UNL     1      -3.528  10.416  15.771  0.00  0.00    +0.000 A 
ATOM     28  C   UNL     1      -4.080  11.287  16.704  0.00  0.00    +0.000 A 
ATOM     29  C   UNL     1      -3.426  11.515  17.920  0.00  0.00    +0.000 A 
ENDBRANCH  22  24
ENDBRANCH  16  18
ENDBRANCH   2  16
TORSDOF 6
ENDMDL
MODEL 3
REMARK VINA RESULT:      -8.6      2.778      8.016
REMARK  Name = 
REMARK  8 active torsions:
REMARK  status: ('A' for Active; 'I' for Inactive)
REMARK    1  A    between atoms: C_1  and  O_2
REMARK    2  A    between atoms: O_2  and  C_3
REMARK    3  A    between atoms: C_4  and  C_5
REMARK    4  A    between atoms: C_6  and  C_7
REMARK    5  A    between atoms: C_7  and  C_9
REMARK    6  A    between atoms: C_13  and  C_14
REMARK    7  A    between atoms: C_22  and  O_23
REMARK    8  A    between atoms: O_23  and  C_24
REMARK                            x       y       z     vdW  Elec       q    Type
REMARK                         _______ _______ _______ _____ _____    ______ ____
ROOT
ATOM      1  C   UNL     1       1.770   8.051  20.663  0.00  0.00    +0.000 C 
ATOM      2  C   UNL     1       0.706   8.281  21.446  0.00  0.00    +0.000 C 
ENDROOT
BRANCH   1   4
ATOM      3  C   UNL     1       2.717   6.514  18.858  0.00  0.00    +0.000 A 
ATOM      4  C   UNL     1       2.005   6.732  20.065  0.00  0.00    +0.000 A 
ATOM      5  C   UNL     1       1.410   5.657  20.753  0.00  0.00    +0.000 A 
ATOM      6  C   UNL     1       1.471   4.339  20.288  0.00  0.00    +0.000 A 
ATOM      7  C   UNL     1       2.150   4.166  19.079  0.00  0.00    +0.000 A 
ATOM      8  O   UNL     1       2.304   2.976  18.425  0.00  0.00    +0.000 OA
ATOM      9  C   UNL     1       3.003   3.225  17.291  0.00  0.00    +0.000 A 
ATOM     10  C   UNL     1       3.313   4.563  17.204  0.00  0.00    +0.000 A 
ATOM     11  C   UNL     1       2.759   5.190  18.360  0.00  0.00    +0.000 A 
BRANCH   3  13
ATOM     12  C   UNL     1       2.499   8.529  17.587  0.00  0.00    +0.000 C 
ATOM     13  O   UNL     1       3.314   7.470  18.078  0.00  0.00    +0.000 OA
ENDBRANCH   3  13
BRANCH   6  14
ATOM     14  O   UNL     1       0.921   3.247  20.899  0.00  0.00    +0.000 OA
ATOM     15  C   UNL     1       1.744   2.555  21.828  0.00  0.00    +0.000 C 
ENDBRANCH   6  14
ENDBRANCH   1   4
BRANCH   2  16
ATOM     16  C   UNL     1       0.461   9.654  21.968  0.00  0.00    +0.000 C 
ATOM     17  O   UNL     1       0.475   9.901  23.171  0.00  0.00    +0.000 OA
BRANCH  16  18
ATOM     18  C   UNL     1       0.218  10.727  20.958  0.00  0.00    +0.000 A 
ATOM     19  C   UNL     1       1.004  11.869  20.971  0.00  0.00    +0.000 A 
ATOM     20  C   UNL     1       0.753  12.846  20.015  0.00  0.00    +0.000 A 
ATOM     21  C   UNL     1      -0.251  12.636  19.071  0.00  0.00    +0.000 A 
ATOM     22  C   UNL     1      -0.981  11.447  19.096  0.00  0.00    +0.000 A 
ATOM     23  N   UNL     1      -0.761  10.505  20.047  0.00  0.00    +0.000 NA
BRANCH  22  24
ATOM     24  C   UNL     1      -2.013  11.109  18.095  0.00  0.00    +0.000 A 
ATOM     25  C   UNL     1      -1.784  10.157  17.082  0.00  0.00    +0.000 A 
ATOM     26  C   UNL     1      -2.781   9.826  16.158  0.00  0.00    +0.000 A 
ATOM     27  C   UNL     1      -4.028  10.435  16.224  0.00  0.00    +0.000 A 
ATOM     28  C   UNL     1      -4.285  11.372  17.219  0.00  0.00    +0.000 A 
ATOM     29  C   UNL     1      -3.288  11.703  18.143  0.00  0.00    +0.000 A 
ENDBRANCH  22  24
ENDBRANCH  16  18
ENDBRANCH   2  16
TORSDOF 6
ENDMDL
MODEL 4
REMARK VINA RESULT:      -8.4      3.128      8.617
REMARK  Name = 
REMARK  8 active torsions:
REMARK  status: ('A' for Active; 'I' for Inactive)
REMARK    1  A    between atoms: C_1  and  O_2
REMARK    2  A    between atoms: O_2  and  C_3
REMARK    3  A    between atoms: C_4  and  C_5
REMARK    4  A    between atoms: C_6  and  C_7
REMARK    5  A    between atoms: C_7  and  C_9
REMARK    6  A    between atoms: C_13  and  C_14
REMARK    7  A    between atoms: C_22  and  O_23
REMARK    8  A    between atoms: O_23  and  C_24
REMARK                            x       y       z     vdW  Elec       q    Type
REMARK                         _______ _______ _______ _____ _____    ______ ____
ROOT
ATOM      1  C   UNL     1       2.291   7.632  19.099  0.00  0.00    +0.000 C 
ATOM      2  C   UNL     1       1.863   8.329  18.036  0.00  0.00    +0.000 C 
ENDROOT
BRANCH   1   4
ATOM      3  C   UNL     1       3.306   5.517  18.090  0.00  0.00    +0.000 A 
ATOM      4  C   UNL     1       2.477   6.178  19.032  0.00  0.00    +0.000 A 
ATOM      5  C   UNL     1       1.708   5.442  19.955  0.00  0.00    +0.000 A 
ATOM      6  C   UNL     1       1.705   4.043  19.987  0.00  0.00    +0.000 A 
ATOM      7  C   UNL     1       2.506   3.425  19.023  0.00  0.00    +0.000 A 
ATOM      8  O   UNL     1       2.630   2.075  18.848  0.00  0.00    +0.000 OA
ATOM      9  C   UNL     1       3.479   1.877  17.812  0.00  0.00    +0.000 A 
ATOM     10  C   UNL     1       3.918   3.083  17.314  0.00  0.00    +0.000 A 
ATOM     11  C   UNL     1       3.287   4.102  18.091  0.00  0.00    +0.000 A 
BRANCH   3  13
ATOM     12  C   UNL     1       5.403   6.487  17.474  0.00  0.00    +0.000 C 
ATOM     13  O   UNL     1       4.076   6.109  17.124  0.00  0.00    +0.000 OA
ENDBRANCH   3  13
BRANCH   6  14
ATOM     14  O   UNL     1       0.990   3.263  20.850  0.00  0.00    +0.000 OA
ATOM     15  C   UNL     1       1.704   2.699  21.942  0.00  0.00    +0.000 C 
ENDBRANCH   6  14
ENDBRANCH   1   4
BRANCH   2  16
ATOM     16  C   UNL     1       1.765   9.812  18.122  0.00  0.00    +0.000 C 
ATOM     17  O   UNL     1       2.535  10.549  17.509  0.00  0.00    +0.000 OA
BRANCH  16  18
ATOM     18  C   UNL     1       0.672  10.369  18.974  0.00  0.00    +0.000 A 
ATOM     19  C   UNL     1       0.931  10.683  20.300  0.00  0.00    +0.000 A 
ATOM     20  C   UNL     1      -0.107  11.203  21.063  0.00  0.00    +0.000 A 
ATOM     21  C   UNL     1      -1.352  11.411  20.471  0.00  0.00    +0.000 A 
ATOM     22  C   UNL     1      -1.532  11.104  19.121  0.00  0.00    +0.000 A 
ATOM     23  N   UNL     1      -0.531  10.567  18.381  0.00  0.00    +0.000 NA
BRANCH  22  24
ATOM     24  C   UNL     1      -2.793  11.357  18.394  0.00  0.00    +0.000 A 
ATOM     25  C   UNL     1      -2.953  11.007  17.039  0.00  0.00    +0.000 A 
ATOM     26  C   UNL     1      -4.162  11.227  16.370  0.00  0.00    +0.000 A 
ATOM     27  C   UNL     1      -5.238  11.798  17.037  0.00  0.00    +0.000 A 
ATOM     28  C   UNL     1      -5.111  12.146  18.377  0.00  0.00    +0.000 A 
ATOM     29  C   UNL     1      -3.902  11.927  19.046  0.00  0.00    +0.000 A 
ENDBRANCH  22  24
ENDBRANCH  16  18
ENDBRANCH   2  16
TORSDOF 6
ENDMDL
MODEL 5
REMARK VINA RESULT:      -8.4      2.963      8.460
REMARK  Name = 
REMARK  8 active torsions:
REMARK  status: ('A' for Active; 'I' for Inactive)
REMARK    1  A    between atoms: C_1  and  O_2
REMARK    2  A    between atoms: O_2  and  C_3
REMARK    3  A    between atoms: C_4  and  C_5
REMARK    4  A    between atoms: C_6  and  C_7
REMARK    5  A    between atoms: C_7  and  C_9
REMARK    6  A    between atoms: C_13  and  C_14
REMARK    7  A    between atoms: C_22  and  O_23
REMARK    8  A    between atoms: O_23  and  C_24
REMARK                            x       y       z     vdW  Elec       q    Type
REMARK                         _______ _______ _______ _____ _____    ______ ____
ROOT
ATOM      1  C   UNL     1       1.743   6.887  20.678  0.00  0.00    +0.000 C 
ATOM      2  C   UNL     1       1.416   8.115  20.253  0.00  0.00    +0.000 C 
ENDROOT
BRANCH   1   4
ATOM      3  C   UNL     1       1.998   4.488  19.844  0.00  0.00    +0.000 A 
ATOM      4  C   UNL     1       2.270   5.876  19.755  0.00  0.00    +0.000 A 
ATOM      5  C   UNL     1       3.146   6.376  18.771  0.00  0.00    +0.000 A 
ATOM      6  C   UNL     1       3.797   5.546  17.851  0.00  0.00    +0.000 A 
ATOM      7  C   UNL     1       3.533   4.181  17.990  0.00  0.00    +0.000 A 
ATOM      8  O   UNL     1       4.082   3.190  17.226  0.00  0.00    +0.000 OA
ATOM      9  C   UNL     1       3.589   2.012  17.677  0.00  0.00    +0.000 A 
ATOM     10  C   UNL     1       2.718   2.224  18.721  0.00  0.00    +0.000 A 
ATOM     11  C   UNL     1       2.675   3.634  18.940  0.00  0.00    +0.000 A 
BRANCH   3  13
ATOM     12  C   UNL     1       1.827   3.152  21.821  0.00  0.00    +0.000 C 
ATOM     13  O   UNL     1       1.195   3.871  20.767  0.00  0.00    +0.000 OA
ENDBRANCH   3  13
BRANCH   6  14
ATOM     14  O   UNL     1       4.656   5.956  16.871  0.00  0.00    +0.000 OA
ATOM     15  C   UNL     1       6.029   6.058  17.227  0.00  0.00    +0.000 C 
ENDBRANCH   6  14
ENDBRANCH   1   4
BRANCH   2  16
ATOM     16  C   UNL     1       0.960   9.136  21.237  0.00  0.00    +0.000 C 
ATOM     17  O   UNL     1       1.134   8.994  22.445  0.00  0.00    +0.000 OA
BRANCH  16  18
ATOM     18  C   UNL     1       0.296  10.355  20.687  0.00  0.00    +0.000 A 
ATOM     19  C   UNL     1       0.669  11.607  21.155  0.00  0.00    +0.000 A 
ATOM     20  C   UNL     1       0.034  12.720  20.618  0.00  0.00    +0.000 A 
ATOM     21  C   UNL     1      -0.928  12.545  19.624  0.00  0.00    +0.000 A 
ATOM     22  C   UNL     1      -1.229  11.258  19.177  0.00  0.00    +0.000 A 
ATOM     23  N   UNL     1      -0.635  10.167  19.720  0.00  0.00    +0.000 NA
BRANCH  22  24
ATOM     24  C   UNL     1      -2.181  10.983  18.081  0.00  0.00    +0.000 A 
ATOM     25  C   UNL     1      -3.447  11.597  18.023  0.00  0.00    +0.000 A 
ATOM     26  C   UNL     1      -4.327  11.349  16.965  0.00  0.00    +0.000 A 
ATOM     27  C   UNL     1      -3.964  10.483  15.940  0.00  0.00    +0.000 A 
ATOM     28  C   UNL     1      -2.717   9.869  15.967  0.00  0.00    +0.000 A 
ATOM     29  C   UNL     1      -1.837  10.117  17.025  0.00  0.00    +0.000 A 
ENDBRANCH  22  24
ENDBRANCH  16  18
ENDBRANCH   2  16
TORSDOF 6
ENDMDL
MODEL 6
REMARK VINA RESULT:      -8.2      0.989      1.250
REMARK  Name = 
REMARK  8 active torsions:
REMARK  status: ('A' for Active; 'I' for Inactive)
REMARK    1  A    between atoms: C_1  and  O_2
REMARK    2  A    between atoms: O_2  and  C_3
REMARK    3  A    between atoms: C_4  and  C_5
REMARK    4  A    between atoms: C_6  and  C_7
REMARK    5  A    between atoms: C_7  and  C_9
REMARK    6  A    between atoms: C_13  and  C_14
REMARK    7  A    between atoms: C_22  and  O_23
REMARK    8  A    between atoms: O_23  and  C_24
REMARK                            x       y       z     vdW  Elec       q    Type
REMARK                         _______ _______ _______ _____ _____    ______ ____
ROOT
ATOM      1  C   UNL     1       1.955   6.501  20.368  0.00  0.00    +0.000 C 
ATOM      2  C   UNL     1       1.124   5.474  20.596  0.00  0.00    +0.000 C 
ENDROOT
BRANCH   1   4
ATOM      3  C   UNL     1       1.406   8.719  19.230  0.00  0.00    +0.000 A 
ATOM      4  C   UNL     1       1.474   7.887  20.376  0.00  0.00    +0.000 A 
ATOM      5  C   UNL     1       1.125   8.383  21.647  0.00  0.00    +0.000 A 
ATOM      6  C   UNL     1       0.714   9.705  21.853  0.00  0.00    +0.000 A 
ATOM      7  C   UNL     1       0.692  10.506  20.708  0.00  0.00    +0.000 A 
ATOM      8  O   UNL     1       0.356  11.830  20.678  0.00  0.00    +0.000 OA
ATOM      9  C   UNL     1       0.471  12.248  19.394  0.00  0.00    +0.000 A 
ATOM     10  C   UNL     1       0.869  11.208  18.585  0.00  0.00    +0.000 A 
ATOM     11  C   UNL     1       1.023  10.067  19.429  0.00  0.00    +0.000 A 
BRANCH   3  13
ATOM     12  C   UNL     1       3.120   8.430  17.587  0.00  0.00    +0.000 C 
ATOM     13  O   UNL     1       1.744   8.372  17.948  0.00  0.00    +0.000 OA
ENDBRANCH   3  13
BRANCH   6  14
ATOM     14  O   UNL     1       0.359  10.257  23.051  0.00  0.00    +0.000 OA
ATOM     15  C   UNL     1      -1.032  10.434  23.285  0.00  0.00    +0.000 C 
ENDBRANCH   6  14
ENDBRANCH   1   4
BRANCH   2  16
ATOM     16  C   UNL     1       1.667   4.089  20.659  0.00  0.00    +0.000 C 
ATOM     17  O   UNL     1       1.300   3.287  21.515  0.00  0.00    +0.000 OA
BRANCH  16  18
ATOM     18  C   UNL     1       2.669   3.708  19.618  0.00  0.00    +0.000 A 
ATOM     19  C   UNL     1       2.460   2.572  18.852  0.00  0.00    +0.000 A 
ATOM     20  C   UNL     1       3.410   2.249  17.890  0.00  0.00    +0.000 A 
ATOM     21  C   UNL     1       4.514   3.082  17.714  0.00  0.00    +0.000 A 
ATOM     22  C   UNL     1       4.642   4.229  18.498  0.00  0.00    +0.000 A 
ATOM     23  N   UNL     1       3.735   4.531  19.460  0.00  0.00    +0.000 NA
BRANCH  22  24
ATOM     24  C   UNL     1       5.739   5.205  18.333  0.00  0.00    +0.000 A 
ATOM     25  C   UNL     1       6.824   5.263  19.230  0.00  0.00    +0.000 A 
ATOM     26  C   UNL     1       7.870   6.173  19.046  0.00  0.00    +0.000 A 
ATOM     27  C   UNL     1       7.859   7.044  17.964  0.00  0.00    +0.000 A 
ATOM     28  C   UNL     1       6.805   7.004  17.058  0.00  0.00    +0.000 A 
ATOM     29  C   UNL     1       5.759   6.094  17.242  0.00  0.00    +0.000 A 
ENDBRANCH  22  24
ENDBRANCH  16  18
ENDBRANCH   2  16
TORSDOF 6
ENDMDL
MODEL 7
REMARK VINA RESULT:      -8.2      2.525      7.981
REMARK  Name = 
REMARK  8 active torsions:
REMARK  status: ('A' for Active; 'I' for Inactive)
REMARK    1  A    between atoms: C_1  and  O_2
REMARK    2  A    between atoms: O_2  and  C_3
REMARK    3  A    between atoms: C_4  and  C_5
REMARK    4  A    between atoms: C_6  and  C_7
REMARK    5  A    between atoms: C_7  and  C_9
REMARK    6  A    between atoms: C_13  and  C_14
REMARK    7  A    between atoms: C_22  and  O_23
REMARK    8  A    between atoms: O_23  and  C_24
REMARK                            x       y       z     vdW  Elec       q    Type
REMARK                         _______ _______ _______ _____ _____    ______ ____
ROOT
ATOM      1  C   UNL     1       2.030   7.731  20.061  0.00  0.00    +0.000 C 
ATOM      2  C   UNL     1       1.195   8.106  21.041  0.00  0.00    +0.000 C 
ENDROOT
BRANCH   1   4
ATOM      3  C   UNL     1       2.762   5.885  18.457  0.00  0.00    +0.000 A 
ATOM      4  C   UNL     1       2.147   6.326  19.656  0.00  0.00    +0.000 A 
ATOM      5  C   UNL     1       1.536   5.407  20.532  0.00  0.00    +0.000 A 
ATOM      6  C   UNL     1       1.488   4.033  20.269  0.00  0.00    +0.000 A 
ATOM      7  C   UNL     1       2.074   3.638  19.063  0.00  0.00    +0.000 A 
ATOM      8  O   UNL     1       2.114   2.358  18.588  0.00  0.00    +0.000 OA
ATOM      9  C   UNL     1       2.749   2.389  17.392  0.00  0.00    +0.000 A 
ATOM     10  C   UNL     1       3.131   3.675  17.086  0.00  0.00    +0.000 A 
ATOM     11  C   UNL     1       2.693   4.502  18.163  0.00  0.00    +0.000 A 
BRANCH   3  13
ATOM     12  C   UNL     1       4.782   6.752  17.516  0.00  0.00    +0.000 C 
ATOM     13  O   UNL     1       3.361   6.672  17.510  0.00  0.00    +0.000 OA
ENDBRANCH   3  13
BRANCH   6  14
ATOM     14  O   UNL     1       0.917   3.084  21.067  0.00  0.00    +0.000 OA
ATOM     15  C   UNL     1       1.771   2.442  22.005  0.00  0.00    +0.000 C 
ENDBRANCH   6  14
ENDBRANCH   1   4
BRANCH   2  16
ATOM     16  C   UNL     1       1.048   9.552  21.366  0.00  0.00    +0.000 C 
ATOM     17  O   UNL     1       1.422  10.016  22.441  0.00  0.00    +0.000 OA
BRANCH  16  18
ATOM     18  C   UNL     1       0.440  10.423  20.315  0.00  0.00    +0.000 A 
ATOM     19  C   UNL     1      -0.787  10.079  19.768  0.00  0.00    +0.000 A 
ATOM     20  C   UNL     1      -1.325  10.914  18.796  0.00  0.00    +0.000 A 
ATOM     21  C   UNL     1      -0.633  12.066  18.425  0.00  0.00    +0.000 A 
ATOM     22  C   UNL     1       0.581  12.368  19.043  0.00  0.00    +0.000 A 
ATOM     23  N   UNL     1       1.126  11.540  19.969  0.00  0.00    +0.000 NA
BRANCH  22  24
ATOM     24  C   UNL     1       1.348  13.600  18.766  0.00  0.00    +0.000 A 
ATOM     25  C   UNL     1       2.664  13.561  18.266  0.00  0.00    +0.000 A 
ATOM     26  C   UNL     1       3.368  14.736  17.982  0.00  0.00    +0.000 A 
ATOM     27  C   UNL     1       2.775  15.975  18.187  0.00  0.00    +0.000 A 
ATOM     28  C   UNL     1       1.473  16.044  18.671  0.00  0.00    +0.000 A 
ATOM     29  C   UNL     1       0.770  14.869  18.956  0.00  0.00    +0.000 A 
ENDBRANCH  22  24
ENDBRANCH  16  18
ENDBRANCH   2  16
TORSDOF 6
ENDMDL
MODEL 8
REMARK VINA RESULT:      -8.2      3.246      8.375
REMARK  Name = 
REMARK  8 active torsions:
REMARK  status: ('A' for Active; 'I' for Inactive)
REMARK    1  A    between atoms: C_1  and  O_2
REMARK    2  A    between atoms: O_2  and  C_3
REMARK    3  A    between atoms: C_4  and  C_5
REMARK    4  A    between atoms: C_6  and  C_7
REMARK    5  A    between atoms: C_7  and  C_9
REMARK    6  A    between atoms: C_13  and  C_14
REMARK    7  A    between atoms: C_22  and  O_23
REMARK    8  A    between atoms: O_23  and  C_24
REMARK                            x       y       z     vdW  Elec       q    Type
REMARK                         _______ _______ _______ _____ _____    ______ ____
ROOT
ATOM      1  C   UNL     1       2.601   6.646  19.092  0.00  0.00    +0.000 C 
ATOM      2  C   UNL     1       2.282   7.937  19.257  0.00  0.00    +0.000 C 
ENDROOT
BRANCH   1   4
ATOM      3  C   UNL     1       3.612   4.969  17.454  0.00  0.00    +0.000 A 
ATOM      4  C   UNL     1       3.602   6.229  18.104  0.00  0.00    +0.000 A 
ATOM      5  C   UNL     1       4.629   7.165  17.874  0.00  0.00    +0.000 A 
ATOM      6  C   UNL     1       5.706   6.907  17.018  0.00  0.00    +0.000 A 
ATOM      7  C   UNL     1       5.701   5.643  16.421  0.00  0.00    +0.000 A 
ATOM      8  O   UNL     1       6.666   5.165  15.579  0.00  0.00    +0.000 OA
ATOM      9  C   UNL     1       6.309   3.907  15.228  0.00  0.00    +0.000 A 
ATOM     10  C   UNL     1       5.117   3.562  15.825  0.00  0.00    +0.000 A 
ATOM     11  C   UNL     1       4.712   4.683  16.610  0.00  0.00    +0.000 A 
BRANCH   3  13
ATOM     12  C   UNL     1       2.917   3.023  18.658  0.00  0.00    +0.000 C 
ATOM     13  O   UNL     1       2.696   3.962  17.611  0.00  0.00    +0.000 OA
ENDBRANCH   3  13
BRANCH   6  14
ATOM     14  O   UNL     1       6.735   7.762  16.744  0.00  0.00    +0.000 OA
ATOM     15  C   UNL     1       7.800   7.801  17.686  0.00  0.00    +0.000 C 
ENDBRANCH   6  14
ENDBRANCH   1   4
BRANCH   2  16
ATOM     16  C   UNL     1       1.319   8.325  20.325  0.00  0.00    +0.000 C 
ATOM     17  O   UNL     1       1.143   7.629  21.323  0.00  0.00    +0.000 OA
BRANCH  16  18
ATOM     18  C   UNL     1       0.588   9.614  20.141  0.00  0.00    +0.000 A 
ATOM     19  C   UNL     1       0.975  10.730  20.867  0.00  0.00    +0.000 A 
ATOM     20  C   UNL     1       0.275  11.914  20.667  0.00  0.00    +0.000 A 
ATOM     21  C   UNL     1      -0.763  11.945  19.738  0.00  0.00    +0.000 A 
ATOM     22  C   UNL     1      -1.076  10.793  19.017  0.00  0.00    +0.000 A 
ATOM     23  N   UNL     1      -0.418   9.627  19.231  0.00  0.00    +0.000 NA
BRANCH  22  24
ATOM     24  C   UNL     1      -2.111  10.751  17.964  0.00  0.00    +0.000 A 
ATOM     25  C   UNL     1      -3.280  11.534  18.038  0.00  0.00    +0.000 A 
ATOM     26  C   UNL     1      -4.239  11.506  17.020  0.00  0.00    +0.000 A 
ATOM     27  C   UNL     1      -4.054  10.699  15.905  0.00  0.00    +0.000 A 
ATOM     28  C   UNL     1      -2.906   9.921  15.801  0.00  0.00    +0.000 A 
ATOM     29  C   UNL     1      -1.947   9.949  16.819  0.00  0.00    +0.000 A 
ENDBRANCH  22  24
ENDBRANCH  16  18
ENDBRANCH   2  16
TORSDOF 6
ENDMDL
MODEL 9
REMARK VINA RESULT:      -8.1      3.136      9.325
REMARK  Name = 
REMARK  8 active torsions:
REMARK  status: ('A' for Active; 'I' for Inactive)
REMARK    1  A    between atoms: C_1  and  O_2
REMARK    2  A    between atoms: O_2  and  C_3
REMARK    3  A    between atoms: C_4  and  C_5
REMARK    4  A    between atoms: C_6  and  C_7
REMARK    5  A    between atoms: C_7  and  C_9
REMARK    6  A    between atoms: C_13  and  C_14
REMARK    7  A    between atoms: C_22  and  O_23
REMARK    8  A    between atoms: O_23  and  C_24
REMARK                            x       y       z     vdW  Elec       q    Type
REMARK                         _______ _______ _______ _____ _____    ______ ____
ROOT
ATOM      1  C   UNL     1       0.944   7.805  21.047  0.00  0.00    +0.000 C 
ATOM      2  C   UNL     1       1.464   8.856  21.696  0.00  0.00    +0.000 C 
ENDROOT
BRANCH   1   4
ATOM      3  C   UNL     1       2.530   7.263  19.121  0.00  0.00    +0.000 A 
ATOM      4  C   UNL     1       1.792   6.891  20.273  0.00  0.00    +0.000 A 
ATOM      5  C   UNL     1       1.785   5.556  20.723  0.00  0.00    +0.000 A 
ATOM      6  C   UNL     1       2.479   4.535  20.064  0.00  0.00    +0.000 A 
ATOM      7  C   UNL     1       3.167   4.931  18.914  0.00  0.00    +0.000 A 
ATOM      8  O   UNL     1       3.882   4.100  18.098  0.00  0.00    +0.000 OA
ATOM      9  C   UNL     1       4.383   4.855  17.090  0.00  0.00    +0.000 A 
ATOM     10  C   UNL     1       4.008   6.171  17.245  0.00  0.00    +0.000 A 
ATOM     11  C   UNL     1       3.210   6.235  18.427  0.00  0.00    +0.000 A 
BRANCH   3  13
ATOM     12  C   UNL     1       1.492   8.947  17.777  0.00  0.00    +0.000 C 
ATOM     13  O   UNL     1       2.597   8.512  18.563  0.00  0.00    +0.000 OA
ENDBRANCH   3  13
BRANCH   6  14
ATOM     14  O   UNL     1       2.521   3.223  20.439  0.00  0.00    +0.000 OA
ATOM     15  C   UNL     1       1.771   2.865  21.593  0.00  0.00    +0.000 C 
ENDBRANCH   6  14
ENDBRANCH   1   4
BRANCH   2  16
ATOM     16  C   UNL     1       0.579   9.712  22.534  0.00  0.00    +0.000 C 
ATOM     17  O   UNL     1       0.499   9.563  23.751  0.00  0.00    +0.000 OA
BRANCH  16  18
ATOM     18  C   UNL     1      -0.194  10.779  21.831  0.00  0.00    +0.000 A 
ATOM     19  C   UNL     1       0.233  11.227  20.590  0.00  0.00    +0.000 A 
ATOM     20  C   UNL     1      -0.512  12.218  19.962  0.00  0.00    +0.000 A 
ATOM     21  C   UNL     1      -1.662  12.704  20.581  0.00  0.00    +0.000 A 
ATOM     22  C   UNL     1      -2.052  12.181  21.815  0.00  0.00    +0.000 A 
ATOM     23  N   UNL     1      -1.311  11.238  22.447  0.00  0.00    +0.000 NA
BRANCH  22  24
ATOM     24  C   UNL     1      -3.292  12.584  22.511  0.00  0.00    +0.000 A 
ATOM     25  C   UNL     1      -4.316  13.295  21.854  0.00  0.00    +0.000 A 
ATOM     26  C   UNL     1      -5.496  13.646  22.518  0.00  0.00    +0.000 A 
ATOM     27  C   UNL     1      -5.683  13.295  23.849  0.00  0.00    +0.000 A 
ATOM     28  C   UNL     1      -4.693  12.586  24.520  0.00  0.00    +0.000 A 
ATOM     29  C   UNL     1      -3.512  12.235  23.856  0.00  0.00    +0.000 A 
ENDBRANCH  22  24
ENDBRANCH  16  18
ENDBRANCH   2  16
TORSDOF 6
ENDMDL
