MODEL 1
REMARK VINA RESULT:      -7.9      0.000      0.000
REMARK  Name = 
REMARK  9 active torsions:
REMARK  status: ('A' for Active; 'I' for Inactive)
REMARK    1  A    between atoms: C_1  and  C_2
REMARK    2  A    between atoms: C_4  and  C_5
REMARK    3  A    between atoms: C_7  and  N_8
REMARK    4  A    between atoms: C_9  and  C_11
REMARK    5  A    between atoms: C_16  and  S_17
REMARK    6  A    between atoms: S_17  and  C_18
REMARK    7  A    between atoms: C_18  and  C_19
REMARK    8  A    between atoms: C_25  and  C_27
REMARK    9  A    between atoms: C_27  and  N_28
REMARK                            x       y       z     vdW  Elec       q    Type
REMARK                         _______ _______ _______ _____ _____    ______ ____
ROOT
ATOM      1  C   UNL     1       0.719   9.444  20.518  0.00  0.00    +0.000 A 
ATOM      2  C   UNL     1       0.130   8.670  21.535  0.00  0.00    +0.000 A 
ATOM      3  C   UNL     1      -0.424   9.278  22.650  0.00  0.00    +0.000 A 
ATOM      4  C   UNL     1      -0.382  10.654  22.713  0.00  0.00    +0.000 A 
ATOM      5  N   UNL     1       0.155  11.434  21.748  0.00  0.00    +0.000 NA
ATOM      6  C   UNL     1       0.688  10.835  20.649  0.00  0.00    +0.000 A 
ENDROOT
BRANCH   1   8
ATOM      7  N   UNL     1       2.027   7.534  19.721  0.00  0.00    +0.000 N 
ATOM      8  C   UNL     1       1.322   8.679  19.398  0.00  0.00    +0.000 C 
ATOM      9  O   UNL     1       1.120   9.114  18.269  0.00  0.00    +0.000 OA
ATOM     10  H   UNL     1       2.143   7.315  20.703  0.00  0.00    +0.000 HD
BRANCH   7  17
ATOM     11  C   UNL     1       2.270   3.008  17.793  0.00  0.00    +0.000 C 
ATOM     12  C   UNL     1       2.785   4.416  17.860  0.00  0.00    +0.000 A 
ATOM     13  C   UNL     1       3.857   4.822  17.054  0.00  0.00    +0.000 A 
ATOM     14  C   UNL     1       4.331   6.133  17.118  0.00  0.00    +0.000 A 
ATOM     15  C   UNL     1       5.458   6.610  16.249  0.00  0.00    +0.000 C 
ATOM     16  C   UNL     1       3.726   7.040  17.996  0.00  0.00    +0.000 A 
ATOM     17  C   UNL     1       2.662   6.658  18.812  0.00  0.00    +0.000 A 
ATOM     18  C   UNL     1       2.191   5.342  18.734  0.00  0.00    +0.000 A 
ENDBRANCH   7  17
ENDBRANCH   1   8
BRANCH   6  19
ATOM     19  S   UNL     1       1.394  12.023  19.519  0.00  0.00    +0.000 S 
BRANCH  19  20
ATOM     20  C   UNL     1       0.025  13.203  19.281  0.00  0.00    +0.000 C 
BRANCH  20  21
ATOM     21  C   UNL     1      -1.330  12.600  19.022  0.00  0.00    +0.000 A 
ATOM     22  C   UNL     1      -1.540  11.853  17.861  0.00  0.00    +0.000 A 
ATOM     23  C   UNL     1      -2.805  11.353  17.619  0.00  0.00    +0.000 A 
ATOM     24  N   UNL     1      -3.852  11.544  18.441  0.00  0.00    +0.000 NA
ATOM     25  C   UNL     1      -3.663  12.265  19.558  0.00  0.00    +0.000 A 
ATOM     26  N   UNL     1      -4.725  12.475  20.443  0.00  0.00    +0.000 N 
ATOM     27  C   UNL     1      -6.008  11.988  20.290  0.00  0.00    +0.000 C 
ATOM     28  O   UNL     1      -6.460  11.337  19.353  0.00  0.00    +0.000 OA
ATOM     29  C   UNL     1      -2.423  12.819  19.874  0.00  0.00    +0.000 A 
ATOM     30  H   UNL     1      -4.559  12.984  21.305  0.00  0.00    +0.000 HD
BRANCH  27  31
ATOM     31  C   UNL     1      -6.926  12.394  21.449  0.00  0.00    +0.000 C 
BRANCH  31  32
ATOM     32  N   UNL     1      -6.239  12.286  22.755  0.00  0.00    +0.000 NA
ATOM     33  H   UNL     1      -6.375  11.331  23.097  0.00  0.00    +0.000 HD
ATOM     34  H   UNL     1      -6.751  12.874  23.418  0.00  0.00    +0.000 HD
ENDBRANCH  31  32
ENDBRANCH  27  31
ENDBRANCH  20  21
ENDBRANCH  19  20
ENDBRANCH   6  19
TORSDOF 7
ENDMDL
MODEL 2
REMARK VINA RESULT:      -7.9      3.159      9.385
REMARK  Name = 
REMARK  9 active torsions:
REMARK  status: ('A' for Active; 'I' for Inactive)
REMARK    1  A    between atoms: C_1  and  C_2
REMARK    2  A    between atoms: C_4  and  C_5
REMARK    3  A    between atoms: C_7  and  N_8
REMARK    4  A    between atoms: C_9  and  C_11
REMARK    5  A    between atoms: C_16  and  S_17
REMARK    6  A    between atoms: S_17  and  C_18
REMARK    7  A    between atoms: C_18  and  C_19
REMARK    8  A    between atoms: C_25  and  C_27
REMARK    9  A    between atoms: C_27  and  N_28
REMARK                            x       y       z     vdW  Elec       q    Type
REMARK                         _______ _______ _______ _____ _____    ______ ____
ROOT
ATOM      1  C   UNL     1      -0.099  10.148  20.482  0.00  0.00    +0.000 A 
ATOM      2  C   UNL     1      -0.579  10.607  21.722  0.00  0.00    +0.000 A 
ATOM      3  C   UNL     1      -0.046  10.123  22.906  0.00  0.00    +0.000 A 
ATOM      4  C   UNL     1       0.966   9.191  22.816  0.00  0.00    +0.000 A 
ATOM      5  N   UNL     1       1.469   8.741  21.644  0.00  0.00    +0.000 NA
ATOM      6  C   UNL     1       0.952   9.228  20.484  0.00  0.00    +0.000 A 
ENDROOT
BRANCH   1   8
ATOM      7  N   UNL     1      -1.951  10.088  18.882  0.00  0.00    +0.000 N 
ATOM      8  C   UNL     1      -0.780  10.704  19.286  0.00  0.00    +0.000 C 
ATOM      9  O   UNL     1      -0.260  11.687  18.769  0.00  0.00    +0.000 OA
ATOM     10  H   UNL     1      -2.245   9.260  19.385  0.00  0.00    +0.000 HD
BRANCH   7  17
ATOM     11  C   UNL     1      -2.786   9.785  14.037  0.00  0.00    +0.000 C 
ATOM     12  C   UNL     1      -3.170  10.318  15.385  0.00  0.00    +0.000 A 
ATOM     13  C   UNL     1      -4.281  11.160  15.529  0.00  0.00    +0.000 A 
ATOM     14  C   UNL     1      -4.637  11.652  16.786  0.00  0.00    +0.000 A 
ATOM     15  C   UNL     1      -5.836  12.532  16.980  0.00  0.00    +0.000 C 
ATOM     16  C   UNL     1      -3.872  11.296  17.904  0.00  0.00    +0.000 A 
ATOM     17  C   UNL     1      -2.759  10.465  17.785  0.00  0.00    +0.000 A 
ATOM     18  C   UNL     1      -2.416   9.973  16.520  0.00  0.00    +0.000 A 
ENDBRANCH   7  17
ENDBRANCH   1   8
BRANCH   6  19
ATOM     19  S   UNL     1       1.705   8.475  19.051  0.00  0.00    +0.000 S 
BRANCH  19  20
ATOM     20  C   UNL     1       2.296   6.881  19.707  0.00  0.00    +0.000 C 
BRANCH  20  21
ATOM     21  C   UNL     1       2.813   5.899  18.691  0.00  0.00    +0.000 A 
ATOM     22  C   UNL     1       2.117   4.709  18.467  0.00  0.00    +0.000 A 
ATOM     23  C   UNL     1       2.638   3.800  17.567  0.00  0.00    +0.000 A 
ATOM     24  N   UNL     1       3.784   3.994  16.889  0.00  0.00    +0.000 NA
ATOM     25  C   UNL     1       4.465   5.133  17.101  0.00  0.00    +0.000 A 
ATOM     26  N   UNL     1       5.654   5.375  16.407  0.00  0.00    +0.000 N 
ATOM     27  C   UNL     1       6.226   4.534  15.473  0.00  0.00    +0.000 C 
ATOM     28  O   UNL     1       5.838   3.425  15.119  0.00  0.00    +0.000 OA
ATOM     29  C   UNL     1       4.019   6.099  18.002  0.00  0.00    +0.000 A 
ATOM     30  H   UNL     1       6.137   6.257  16.542  0.00  0.00    +0.000 HD
BRANCH  27  31
ATOM     31  C   UNL     1       7.524   5.107  14.892  0.00  0.00    +0.000 C 
BRANCH  31  32
ATOM     32  N   UNL     1       7.454   5.239  13.420  0.00  0.00    +0.000 NA
ATOM     33  H   UNL     1       6.591   4.784  13.111  0.00  0.00    +0.000 HD
ATOM     34  H   UNL     1       8.204   4.666  13.026  0.00  0.00    +0.000 HD
ENDBRANCH  31  32
ENDBRANCH  27  31
ENDBRANCH  20  21
ENDBRANCH  19  20
ENDBRANCH   6  19
TORSDOF 7
ENDMDL
MODEL 3
REMARK VINA RESULT:      -7.8      1.819      2.493
REMARK  Name = 
REMARK  9 active torsions:
REMARK  status: ('A' for Active; 'I' for Inactive)
REMARK    1  A    between atoms: C_1  and  C_2
REMARK    2  A    between atoms: C_4  and  C_5
REMARK    3  A    between atoms: C_7  and  N_8
REMARK    4  A    between atoms: C_9  and  C_11
REMARK    5  A    between atoms: C_16  and  S_17
REMARK    6  A    between atoms: S_17  and  C_18
REMARK    7  A    between atoms: C_18  and  C_19
REMARK    8  A    between atoms: C_25  and  C_27
REMARK    9  A    between atoms: C_27  and  N_28
REMARK                            x       y       z     vdW  Elec       q    Type
REMARK                         _______ _______ _______ _____ _____    ______ ____
ROOT
ATOM      1  C   UNL     1       0.817   9.062  20.842  0.00  0.00    +0.000 A 
ATOM      2  C   UNL     1       0.684   8.724  22.201  0.00  0.00    +0.000 A 
ATOM      3  C   UNL     1      -0.001   9.557  23.071  0.00  0.00    +0.000 A 
ATOM      4  C   UNL     1      -0.546  10.712  22.550  0.00  0.00    +0.000 A 
ATOM      5  N   UNL     1      -0.458  11.063  21.247  0.00  0.00    +0.000 NA
ATOM      6  C   UNL     1       0.205  10.235  20.394  0.00  0.00    +0.000 A 
ENDROOT
BRANCH   1   8
ATOM      7  N   UNL     1       1.726   6.818  20.483  0.00  0.00    +0.000 N 
ATOM      8  C   UNL     1       1.613   8.116  20.021  0.00  0.00    +0.000 C 
ATOM      9  O   UNL     1       2.084   8.561  18.979  0.00  0.00    +0.000 OA
ATOM     10  H   UNL     1       1.313   6.601  21.382  0.00  0.00    +0.000 HD
BRANCH   7  17
ATOM     11  C   UNL     1       6.035   5.055  18.874  0.00  0.00    +0.000 C 
ATOM     12  C   UNL     1       4.554   4.891  19.050  0.00  0.00    +0.000 A 
ATOM     13  C   UNL     1       3.905   3.737  18.593  0.00  0.00    +0.000 A 
ATOM     14  C   UNL     1       2.528   3.586  18.761  0.00  0.00    +0.000 A 
ATOM     15  C   UNL     1       1.805   2.352  18.308  0.00  0.00    +0.000 C 
ATOM     16  C   UNL     1       1.799   4.602  19.392  0.00  0.00    +0.000 A 
ATOM     17  C   UNL     1       2.421   5.762  19.851  0.00  0.00    +0.000 A 
ATOM     18  C   UNL     1       3.804   5.898  19.682  0.00  0.00    +0.000 A 
ENDBRANCH   7  17
ENDBRANCH   1   8
BRANCH   6  19
ATOM     19  S   UNL     1       0.260  10.894  18.736  0.00  0.00    +0.000 S 
BRANCH  19  20
ATOM     20  C   UNL     1      -0.813   9.742  17.818  0.00  0.00    +0.000 C 
BRANCH  20  21
ATOM     21  C   UNL     1      -2.128  10.300  17.343  0.00  0.00    +0.000 A 
ATOM     22  C   UNL     1      -2.531  10.085  16.024  0.00  0.00    +0.000 A 
ATOM     23  C   UNL     1      -3.717  10.649  15.596  0.00  0.00    +0.000 A 
ATOM     24  N   UNL     1      -4.512  11.400  16.382  0.00  0.00    +0.000 NA
ATOM     25  C   UNL     1      -4.131  11.618  17.651  0.00  0.00    +0.000 A 
ATOM     26  N   UNL     1      -4.936  12.382  18.500  0.00  0.00    +0.000 N 
ATOM     27  C   UNL     1      -6.146  12.957  18.162  0.00  0.00    +0.000 C 
ATOM     28  O   UNL     1      -6.705  12.946  17.069  0.00  0.00    +0.000 OA
ATOM     29  C   UNL     1      -2.943  11.098  18.162  0.00  0.00    +0.000 A 
ATOM     30  H   UNL     1      -4.660  12.504  19.470  0.00  0.00    +0.000 HD
BRANCH  27  31
ATOM     31  C   UNL     1      -6.775  13.720  19.332  0.00  0.00    +0.000 C 
BRANCH  31  32
ATOM     32  N   UNL     1      -7.508  12.816  20.246  0.00  0.00    +0.000 NA
ATOM     33  H   UNL     1      -8.041  12.161  19.668  0.00  0.00    +0.000 HD
ATOM     34  H   UNL     1      -8.217  13.375  20.725  0.00  0.00    +0.000 HD
ENDBRANCH  31  32
ENDBRANCH  27  31
ENDBRANCH  20  21
ENDBRANCH  19  20
ENDBRANCH   6  19
TORSDOF 7
ENDMDL
MODEL 4
REMARK VINA RESULT:      -7.7      1.451      2.694
REMARK  Name = 
REMARK  9 active torsions:
REMARK  status: ('A' for Active; 'I' for Inactive)
REMARK    1  A    between atoms: C_1  and  C_2
REMARK    2  A    between atoms: C_4  and  C_5
REMARK    3  A    between atoms: C_7  and  N_8
REMARK    4  A    between atoms: C_9  and  C_11
REMARK    5  A    between atoms: C_16  and  S_17
REMARK    6  A    between atoms: S_17  and  C_18
REMARK    7  A    between atoms: C_18  and  C_19
REMARK    8  A    between atoms: C_25  and  C_27
REMARK    9  A    between atoms: C_27  and  N_28
REMARK                            x       y       z     vdW  Elec       q    Type
REMARK                         _______ _______ _______ _____ _____    ______ ____
ROOT
ATOM      1  C   UNL     1       0.806   9.275  20.684  0.00  0.00    +0.000 A 
ATOM      2  C   UNL     1       0.119   8.447  21.591  0.00  0.00    +0.000 A 
ATOM      3  C   UNL     1      -0.474   8.984  22.723  0.00  0.00    +0.000 A 
ATOM      4  C   UNL     1      -0.368  10.345  22.913  0.00  0.00    +0.000 A 
ATOM      5  N   UNL     1       0.265  11.176  22.055  0.00  0.00    +0.000 NA
ATOM      6  C   UNL     1       0.835  10.648  20.939  0.00  0.00    +0.000 A 
ENDROOT
BRANCH   1   8
ATOM      7  N   UNL     1       2.082   7.383  19.797  0.00  0.00    +0.000 N 
ATOM      8  C   UNL     1       1.439   8.579  19.535  0.00  0.00    +0.000 C 
ATOM      9  O   UNL     1       1.315   9.113  18.438  0.00  0.00    +0.000 OA
ATOM     10  H   UNL     1       2.138   7.080  20.761  0.00  0.00    +0.000 HD
BRANCH   7  17
ATOM     11  C   UNL     1       2.381   2.960  17.650  0.00  0.00    +0.000 C 
ATOM     12  C   UNL     1       2.883   4.367  17.790  0.00  0.00    +0.000 A 
ATOM     13  C   UNL     1       3.956   4.822  17.013  0.00  0.00    +0.000 A 
ATOM     14  C   UNL     1       4.418   6.133  17.145  0.00  0.00    +0.000 A 
ATOM     15  C   UNL     1       5.546   6.661  16.309  0.00  0.00    +0.000 C 
ATOM     16  C   UNL     1       3.798   6.990  18.062  0.00  0.00    +0.000 A 
ATOM     17  C   UNL     1       2.732   6.559  18.851  0.00  0.00    +0.000 A 
ATOM     18  C   UNL     1       2.274   5.244  18.704  0.00  0.00    +0.000 A 
ENDBRANCH   7  17
ENDBRANCH   1   8
BRANCH   6  19
ATOM     19  S   UNL     1       1.667  11.891  19.963  0.00  0.00    +0.000 S 
BRANCH  19  20
ATOM     20  C   UNL     1       0.459  13.256  19.952  0.00  0.00    +0.000 C 
BRANCH  20  21
ATOM     21  C   UNL     1      -0.942  12.895  19.539  0.00  0.00    +0.000 A 
ATOM     22  C   UNL     1      -2.000  13.122  20.421  0.00  0.00    +0.000 A 
ATOM     23  C   UNL     1      -3.271  12.736  20.041  0.00  0.00    +0.000 A 
ATOM     24  N   UNL     1      -3.550  12.149  18.863  0.00  0.00    +0.000 NA
ATOM     25  C   UNL     1      -2.539  11.920  18.009  0.00  0.00    +0.000 A 
ATOM     26  N   UNL     1      -2.793  11.322  16.771  0.00  0.00    +0.000 N 
ATOM     27  C   UNL     1      -4.033  10.933  16.304  0.00  0.00    +0.000 C 
ATOM     28  O   UNL     1      -5.111  10.991  16.888  0.00  0.00    +0.000 OA
ATOM     29  C   UNL     1      -1.224  12.265  18.316  0.00  0.00    +0.000 A 
ATOM     30  H   UNL     1      -2.028  11.194  16.115  0.00  0.00    +0.000 HD
BRANCH  27  31
ATOM     31  C   UNL     1      -3.960  10.320  14.900  0.00  0.00    +0.000 C 
BRANCH  31  32
ATOM     32  N   UNL     1      -2.561  10.117  14.464  0.00  0.00    +0.000 NA
ATOM     33  H   UNL     1      -2.372   9.112  14.494  0.00  0.00    +0.000 HD
ATOM     34  H   UNL     1      -1.956  10.515  15.185  0.00  0.00    +0.000 HD
ENDBRANCH  31  32
ENDBRANCH  27  31
ENDBRANCH  20  21
ENDBRANCH  19  20
ENDBRANCH   6  19
TORSDOF 7
ENDMDL
MODEL 5
REMARK VINA RESULT:      -7.7      1.916      2.811
REMARK  Name = 
REMARK  9 active torsions:
REMARK  status: ('A' for Active; 'I' for Inactive)
REMARK    1  A    between atoms: C_1  and  C_2
REMARK    2  A    between atoms: C_4  and  C_5
REMARK    3  A    between atoms: C_7  and  N_8
REMARK    4  A    between atoms: C_9  and  C_11
REMARK    5  A    between atoms: C_16  and  S_17
REMARK    6  A    between atoms: S_17  and  C_18
REMARK    7  A    between atoms: C_18  and  C_19
REMARK    8  A    between atoms: C_25  and  C_27
REMARK    9  A    between atoms: C_27  and  N_28
REMARK                            x       y       z     vdW  Elec       q    Type
REMARK                         _______ _______ _______ _____ _____    ______ ____
ROOT
ATOM      1  C   UNL     1      -0.337  10.206  21.406  0.00  0.00    +0.000 A 
ATOM      2  C   UNL     1      -0.803  10.456  22.709  0.00  0.00    +0.000 A 
ATOM      3  C   UNL     1      -1.169  11.737  23.093  0.00  0.00    +0.000 A 
ATOM      4  C   UNL     1      -1.065  12.738  22.152  0.00  0.00    +0.000 A 
ATOM      5  N   UNL     1      -0.642  12.535  20.883  0.00  0.00    +0.000 NA
ATOM      6  C   UNL     1      -0.295  11.274  20.507  0.00  0.00    +0.000 A 
ENDROOT
BRANCH   1   8
ATOM      7  N   UNL     1       1.279   8.614  20.484  0.00  0.00    +0.000 N 
ATOM      8  C   UNL     1       0.069   8.806  21.128  0.00  0.00    +0.000 C 
ATOM      9  O   UNL     1      -0.693   7.928  21.519  0.00  0.00    +0.000 OA
ATOM     10  H   UNL     1       1.788   9.437  20.186  0.00  0.00    +0.000 HD
BRANCH   7  17
ATOM     11  C   UNL     1       4.062   6.055  17.328  0.00  0.00    +0.000 C 
ATOM     12  C   UNL     1       3.231   6.102  18.576  0.00  0.00    +0.000 A 
ATOM     13  C   UNL     1       3.041   4.950  19.350  0.00  0.00    +0.000 A 
ATOM     14  C   UNL     1       2.269   4.999  20.512  0.00  0.00    +0.000 A 
ATOM     15  C   UNL     1       2.067   3.791  21.379  0.00  0.00    +0.000 C 
ATOM     16  C   UNL     1       1.686   6.212  20.898  0.00  0.00    +0.000 A 
ATOM     17  C   UNL     1       1.856   7.371  20.141  0.00  0.00    +0.000 A 
ATOM     18  C   UNL     1       2.637   7.310  18.982  0.00  0.00    +0.000 A 
ENDBRANCH   7  17
ENDBRANCH   1   8
BRANCH   6  19
ATOM     19  S   UNL     1       0.287  11.220  18.820  0.00  0.00    +0.000 S 
BRANCH  19  20
ATOM     20  C   UNL     1      -0.777   9.940  18.077  0.00  0.00    +0.000 C 
BRANCH  20  21
ATOM     21  C   UNL     1      -2.092  10.416  17.520  0.00  0.00    +0.000 A 
ATOM     22  C   UNL     1      -2.451  10.076  16.214  0.00  0.00    +0.000 A 
ATOM     23  C   UNL     1      -3.639  10.566  15.707  0.00  0.00    +0.000 A 
ATOM     24  N   UNL     1      -4.476  11.358  16.403  0.00  0.00    +0.000 NA
ATOM     25  C   UNL     1      -4.138  11.695  17.659  0.00  0.00    +0.000 A 
ATOM     26  N   UNL     1      -4.988  12.506  18.416  0.00  0.00    +0.000 N 
ATOM     27  C   UNL     1      -6.203  13.014  17.996  0.00  0.00    +0.000 C 
ATOM     28  O   UNL     1      -6.729  12.893  16.894  0.00  0.00    +0.000 OA
ATOM     29  C   UNL     1      -2.952  11.257  18.244  0.00  0.00    +0.000 A 
ATOM     30  H   UNL     1      -4.745  12.719  19.378  0.00  0.00    +0.000 HD
BRANCH  27  31
ATOM     31  C   UNL     1      -6.887  13.856  19.079  0.00  0.00    +0.000 C 
BRANCH  31  32
ATOM     32  N   UNL     1      -7.747  13.030  19.954  0.00  0.00    +0.000 NA
ATOM     33  H   UNL     1      -7.320  12.102  20.019  0.00  0.00    +0.000 HD
ATOM     34  H   UNL     1      -8.628  12.875  19.457  0.00  0.00    +0.000 HD
ENDBRANCH  31  32
ENDBRANCH  27  31
ENDBRANCH  20  21
ENDBRANCH  19  20
ENDBRANCH   6  19
TORSDOF 7
ENDMDL
MODEL 6
REMARK VINA RESULT:      -7.7      3.006      9.185
REMARK  Name = 
REMARK  9 active torsions:
REMARK  status: ('A' for Active; 'I' for Inactive)
REMARK    1  A    between atoms: C_1  and  C_2
REMARK    2  A    between atoms: C_4  and  C_5
REMARK    3  A    between atoms: C_7  and  N_8
REMARK    4  A    between atoms: C_9  and  C_11
REMARK    5  A    between atoms: C_16  and  S_17
REMARK    6  A    between atoms: S_17  and  C_18
REMARK    7  A    between atoms: C_18  and  C_19
REMARK    8  A    between atoms: C_25  and  C_27
REMARK    9  A    between atoms: C_27  and  N_28
REMARK                            x       y       z     vdW  Elec       q    Type
REMARK                         _______ _______ _______ _____ _____    ______ ____
ROOT
ATOM      1  C   UNL     1      -0.240  10.238  20.754  0.00  0.00    +0.000 A 
ATOM      2  C   UNL     1      -0.736  10.837  21.926  0.00  0.00    +0.000 A 
ATOM      3  C   UNL     1      -0.293  10.422  23.172  0.00  0.00    +0.000 A 
ATOM      4  C   UNL     1       0.649   9.416  23.210  0.00  0.00    +0.000 A 
ATOM      5  N   UNL     1       1.166   8.829  22.107  0.00  0.00    +0.000 NA
ATOM      6  C   UNL     1       0.737   9.248  20.885  0.00  0.00    +0.000 A 
ENDROOT
BRANCH   1   8
ATOM      7  N   UNL     1      -1.989  10.128  19.045  0.00  0.00    +0.000 N 
ATOM      8  C   UNL     1      -0.825  10.733  19.483  0.00  0.00    +0.000 C 
ATOM      9  O   UNL     1      -0.240  11.663  18.939  0.00  0.00    +0.000 OA
ATOM     10  H   UNL     1      -2.342   9.344  19.579  0.00  0.00    +0.000 HD
BRANCH   7  17
ATOM     11  C   UNL     1      -5.794  12.541  17.055  0.00  0.00    +0.000 C 
ATOM     12  C   UNL     1      -4.600  11.648  16.892  0.00  0.00    +0.000 A 
ATOM     13  C   UNL     1      -4.240  11.164  15.627  0.00  0.00    +0.000 A 
ATOM     14  C   UNL     1      -3.126  10.335  15.479  0.00  0.00    +0.000 A 
ATOM     15  C   UNL     1      -2.696   9.822  14.136  0.00  0.00    +0.000 C 
ATOM     16  C   UNL     1      -2.371   9.992  16.607  0.00  0.00    +0.000 A 
ATOM     17  C   UNL     1      -2.713  10.456  17.876  0.00  0.00    +0.000 A 
ATOM     18  C   UNL     1      -3.828  11.292  18.011  0.00  0.00    +0.000 A 
ENDBRANCH   7  17
ENDBRANCH   1   8
BRANCH   6  19
ATOM     19  S   UNL     1       1.492   8.320  19.560  0.00  0.00    +0.000 S 
BRANCH  19  20
ATOM     20  C   UNL     1       1.862   6.723  20.358  0.00  0.00    +0.000 C 
BRANCH  20  21
ATOM     21  C   UNL     1       2.557   5.701  19.499  0.00  0.00    +0.000 A 
ATOM     22  C   UNL     1       2.453   4.346  19.820  0.00  0.00    +0.000 A 
ATOM     23  C   UNL     1       3.141   3.430  19.048  0.00  0.00    +0.000 A 
ATOM     24  N   UNL     1       3.911   3.770  17.998  0.00  0.00    +0.000 NA
ATOM     25  C   UNL     1       4.023   5.071  17.683  0.00  0.00    +0.000 A 
ATOM     26  N   UNL     1       4.805   5.461  16.592  0.00  0.00    +0.000 N 
ATOM     27  C   UNL     1       5.500   4.609  15.754  0.00  0.00    +0.000 C 
ATOM     28  O   UNL     1       5.600   3.389  15.835  0.00  0.00    +0.000 OA
ATOM     29  C   UNL     1       3.375   6.063  18.416  0.00  0.00    +0.000 A 
ATOM     30  H   UNL     1       4.848   6.442  16.337  0.00  0.00    +0.000 HD
BRANCH  27  31
ATOM     31  C   UNL     1       6.247   5.364  14.649  0.00  0.00    +0.000 C 
BRANCH  31  32
ATOM     32  N   UNL     1       7.712   5.322  14.852  0.00  0.00    +0.000 NA
ATOM     33  H   UNL     1       8.153   5.601  13.971  0.00  0.00    +0.000 HD
ATOM     34  H   UNL     1       7.975   4.341  14.973  0.00  0.00    +0.000 HD
ENDBRANCH  31  32
ENDBRANCH  27  31
ENDBRANCH  20  21
ENDBRANCH  19  20
ENDBRANCH   6  19
TORSDOF 7
ENDMDL
MODEL 7
REMARK VINA RESULT:      -7.7      4.786     10.535
REMARK  Name = 
REMARK  9 active torsions:
REMARK  status: ('A' for Active; 'I' for Inactive)
REMARK    1  A    between atoms: C_1  and  C_2
REMARK    2  A    between atoms: C_4  and  C_5
REMARK    3  A    between atoms: C_7  and  N_8
REMARK    4  A    between atoms: C_9  and  C_11
REMARK    5  A    between atoms: C_16  and  S_17
REMARK    6  A    between atoms: S_17  and  C_18
REMARK    7  A    between atoms: C_18  and  C_19
REMARK    8  A    between atoms: C_25  and  C_27
REMARK    9  A    between atoms: C_27  and  N_28
REMARK                            x       y       z     vdW  Elec       q    Type
REMARK                         _______ _______ _______ _____ _____    ______ ____
ROOT
ATOM      1  C   UNL     1       2.921   4.441  18.648  0.00  0.00    +0.000 A 
ATOM      2  C   UNL     1       2.011   3.451  18.235  0.00  0.00    +0.000 A 
ATOM      3  C   UNL     1       2.412   2.130  18.119  0.00  0.00    +0.000 A 
ATOM      4  C   UNL     1       3.721   1.831  18.430  0.00  0.00    +0.000 A 
ATOM      5  N   UNL     1       4.621   2.749  18.851  0.00  0.00    +0.000 NA
ATOM      6  C   UNL     1       4.220   4.044  18.975  0.00  0.00    +0.000 A 
ENDROOT
BRANCH   1   8
ATOM      7  N   UNL     1       2.197   6.394  19.935  0.00  0.00    +0.000 N 
ATOM      8  C   UNL     1       2.388   5.826  18.688  0.00  0.00    +0.000 C 
ATOM      9  O   UNL     1       2.187   6.364  17.605  0.00  0.00    +0.000 OA
ATOM     10  H   UNL     1       2.373   5.816  20.747  0.00  0.00    +0.000 HD
BRANCH   7  17
ATOM     11  C   UNL     1       0.017   9.461  23.112  0.00  0.00    +0.000 C 
ATOM     12  C   UNL     1       0.634   9.216  21.767  0.00  0.00    +0.000 A 
ATOM     13  C   UNL     1       0.713  10.245  20.820  0.00  0.00    +0.000 A 
ATOM     14  C   UNL     1       1.290  10.013  19.570  0.00  0.00    +0.000 A 
ATOM     15  C   UNL     1       1.417  11.099  18.544  0.00  0.00    +0.000 C 
ATOM     16  C   UNL     1       1.790   8.740  19.271  0.00  0.00    +0.000 A 
ATOM     17  C   UNL     1       1.717   7.697  20.195  0.00  0.00    +0.000 A 
ATOM     18  C   UNL     1       1.142   7.945  21.447  0.00  0.00    +0.000 A 
ENDBRANCH   7  17
ENDBRANCH   1   8
BRANCH   6  19
ATOM     19  S   UNL     1       5.558   5.109  19.487  0.00  0.00    +0.000 S 
BRANCH  19  20
ATOM     20  C   UNL     1       6.821   4.798  18.210  0.00  0.00    +0.000 C 
BRANCH  20  21
ATOM     21  C   UNL     1       6.365   4.939  16.783  0.00  0.00    +0.000 A 
ATOM     22  C   UNL     1       5.531   6.001  16.428  0.00  0.00    +0.000 A 
ATOM     23  C   UNL     1       5.084   6.081  15.124  0.00  0.00    +0.000 A 
ATOM     24  N   UNL     1       5.408   5.191  14.168  0.00  0.00    +0.000 NA
ATOM     25  C   UNL     1       6.206   4.162  14.499  0.00  0.00    +0.000 A 
ATOM     26  N   UNL     1       6.573   3.223  13.531  0.00  0.00    +0.000 N 
ATOM     27  C   UNL     1       6.195   3.247  12.203  0.00  0.00    +0.000 C 
ATOM     28  O   UNL     1       5.447   4.045  11.646  0.00  0.00    +0.000 OA
ATOM     29  C   UNL     1       6.691   3.996  15.795  0.00  0.00    +0.000 A 
ATOM     30  H   UNL     1       7.212   2.475  13.782  0.00  0.00    +0.000 HD
BRANCH  27  31
ATOM     31  C   UNL     1       6.783   2.074  11.410  0.00  0.00    +0.000 C 
BRANCH  31  32
ATOM     32  N   UNL     1       5.916   0.876  11.480  0.00  0.00    +0.000 NA
ATOM     33  H   UNL     1       6.310   0.174  10.847  0.00  0.00    +0.000 HD
ATOM     34  H   UNL     1       5.017   1.126  11.061  0.00  0.00    +0.000 HD
ENDBRANCH  31  32
ENDBRANCH  27  31
ENDBRANCH  20  21
ENDBRANCH  19  20
ENDBRANCH   6  19
TORSDOF 7
ENDMDL
MODEL 8
REMARK VINA RESULT:      -7.6      6.371     10.581
REMARK  Name = 
REMARK  9 active torsions:
REMARK  status: ('A' for Active; 'I' for Inactive)
REMARK    1  A    between atoms: C_1  and  C_2
REMARK    2  A    between atoms: C_4  and  C_5
REMARK    3  A    between atoms: C_7  and  N_8
REMARK    4  A    between atoms: C_9  and  C_11
REMARK    5  A    between atoms: C_16  and  S_17
REMARK    6  A    between atoms: S_17  and  C_18
REMARK    7  A    between atoms: C_18  and  C_19
REMARK    8  A    between atoms: C_25  and  C_27
REMARK    9  A    between atoms: C_27  and  N_28
REMARK                            x       y       z     vdW  Elec       q    Type
REMARK                         _______ _______ _______ _____ _____    ______ ____
ROOT
ATOM      1  C   UNL     1       6.070   4.941  16.826  0.00  0.00    +0.000 A 
ATOM      2  C   UNL     1       5.728   4.207  15.675  0.00  0.00    +0.000 A 
ATOM      3  C   UNL     1       6.454   4.355  14.504  0.00  0.00    +0.000 A 
ATOM      4  C   UNL     1       7.516   5.235  14.519  0.00  0.00    +0.000 A 
ATOM      5  N   UNL     1       7.889   5.942  15.610  0.00  0.00    +0.000 NA
ATOM      6  C   UNL     1       7.182   5.784  16.761  0.00  0.00    +0.000 A 
ENDROOT
BRANCH   1   8
ATOM      7  N   UNL     1       4.046   5.505  18.082  0.00  0.00    +0.000 N 
ATOM      8  C   UNL     1       5.190   4.733  18.003  0.00  0.00    +0.000 C 
ATOM      9  O   UNL     1       5.540   3.868  18.800  0.00  0.00    +0.000 OA
ATOM     10  H   UNL     1       3.903   6.209  17.367  0.00  0.00    +0.000 HD
BRANCH   7  17
ATOM     11  C   UNL     1       1.089   8.002  21.129  0.00  0.00    +0.000 C 
ATOM     12  C   UNL     1       1.610   6.692  20.616  0.00  0.00    +0.000 A 
ATOM     13  C   UNL     1       1.144   5.482  21.147  0.00  0.00    +0.000 A 
ATOM     14  C   UNL     1       1.629   4.265  20.665  0.00  0.00    +0.000 A 
ATOM     15  C   UNL     1       1.132   2.951  21.191  0.00  0.00    +0.000 C 
ATOM     16  C   UNL     1       2.588   4.265  19.645  0.00  0.00    +0.000 A 
ATOM     17  C   UNL     1       3.072   5.455  19.104  0.00  0.00    +0.000 A 
ATOM     18  C   UNL     1       2.572   6.669  19.591  0.00  0.00    +0.000 A 
ENDBRANCH   7  17
ENDBRANCH   1   8
BRANCH   6  19
ATOM     19  S   UNL     1       7.791   6.839  18.067  0.00  0.00    +0.000 S 
BRANCH  19  20
ATOM     20  C   UNL     1       7.777   8.484  17.284  0.00  0.00    +0.000 C 
BRANCH  20  21
ATOM     21  C   UNL     1       8.460   9.586  18.049  0.00  0.00    +0.000 A 
ATOM     22  C   UNL     1       8.892   9.351  19.356  0.00  0.00    +0.000 A 
ATOM     23  C   UNL     1       9.470  10.392  20.056  0.00  0.00    +0.000 A 
ATOM     24  N   UNL     1       9.641  11.627  19.550  0.00  0.00    +0.000 NA
ATOM     25  C   UNL     1       9.224  11.866  18.296  0.00  0.00    +0.000 A 
ATOM     26  N   UNL     1       9.396  13.133  17.733  0.00  0.00    +0.000 N 
ATOM     27  C   UNL     1       9.988  14.217  18.353  0.00  0.00    +0.000 C 
ATOM     28  O   UNL     1      10.419  14.285  19.500  0.00  0.00    +0.000 OA
ATOM     29  C   UNL     1       8.618  10.878  17.522  0.00  0.00    +0.000 A 
ATOM     30  H   UNL     1       9.117  13.291  16.769  0.00  0.00    +0.000 HD
BRANCH  27  31
ATOM     31  C   UNL     1      10.026  15.454  17.449  0.00  0.00    +0.000 C 
BRANCH  31  32
ATOM     32  N   UNL     1      10.849  15.225  16.241  0.00  0.00    +0.000 NA
ATOM     33  H   UNL     1      10.271  15.451  15.427  0.00  0.00    +0.000 HD
ATOM     34  H   UNL     1      11.013  14.218  16.171  0.00  0.00    +0.000 HD
ENDBRANCH  31  32
ENDBRANCH  27  31
ENDBRANCH  20  21
ENDBRANCH  19  20
ENDBRANCH   6  19
TORSDOF 7
ENDMDL
MODEL 9
REMARK VINA RESULT:      -7.6      4.792     10.550
REMARK  Name = 
REMARK  9 active torsions:
REMARK  status: ('A' for Active; 'I' for Inactive)
REMARK    1  A    between atoms: C_1  and  C_2
REMARK    2  A    between atoms: C_4  and  C_5
REMARK    3  A    between atoms: C_7  and  N_8
REMARK    4  A    between atoms: C_9  and  C_11
REMARK    5  A    between atoms: C_16  and  S_17
REMARK    6  A    between atoms: S_17  and  C_18
REMARK    7  A    between atoms: C_18  and  C_19
REMARK    8  A    between atoms: C_25  and  C_27
REMARK    9  A    between atoms: C_27  and  N_28
REMARK                            x       y       z     vdW  Elec       q    Type
REMARK                         _______ _______ _______ _____ _____    ______ ____
ROOT
ATOM      1  C   UNL     1       2.982   4.180  19.299  0.00  0.00    +0.000 A 
ATOM      2  C   UNL     1       2.160   3.038  19.302  0.00  0.00    +0.000 A 
ATOM      3  C   UNL     1       2.715   1.771  19.382  0.00  0.00    +0.000 A 
ATOM      4  C   UNL     1       4.087   1.680  19.466  0.00  0.00    +0.000 A 
ATOM      5  N   UNL     1       4.911   2.753  19.488  0.00  0.00    +0.000 NA
ATOM      6  C   UNL     1       4.361   3.996  19.421  0.00  0.00    +0.000 A 
ENDROOT
BRANCH   1   8
ATOM      7  N   UNL     1       2.309   6.334  20.246  0.00  0.00    +0.000 N 
ATOM      8  C   UNL     1       2.276   5.478  19.161  0.00  0.00    +0.000 C 
ATOM      9  O   UNL     1       1.742   5.696  18.078  0.00  0.00    +0.000 OA
ATOM     10  H   UNL     1       2.758   6.005  21.092  0.00  0.00    +0.000 HD
BRANCH   7  17
ATOM     11  C   UNL     1       1.643  10.728  18.122  0.00  0.00    +0.000 C 
ATOM     12  C   UNL     1       1.391   9.794  19.268  0.00  0.00    +0.000 A 
ATOM     13  C   UNL     1       0.609  10.197  20.358  0.00  0.00    +0.000 A 
ATOM     14  C   UNL     1       0.375   9.323  21.422  0.00  0.00    +0.000 A 
ATOM     15  C   UNL     1      -0.480   9.712  22.591  0.00  0.00    +0.000 C 
ATOM     16  C   UNL     1       0.931   8.038  21.389  0.00  0.00    +0.000 A 
ATOM     17  C   UNL     1       1.718   7.616  20.318  0.00  0.00    +0.000 A 
ATOM     18  C   UNL     1       1.939   8.499  19.255  0.00  0.00    +0.000 A 
ENDBRANCH   7  17
ENDBRANCH   1   8
BRANCH   6  19
ATOM     19  S   UNL     1       5.607   5.275  19.408  0.00  0.00    +0.000 S 
BRANCH  19  20
ATOM     20  C   UNL     1       6.756   4.693  18.117  0.00  0.00    +0.000 C 
BRANCH  20  21
ATOM     21  C   UNL     1       6.300   4.879  16.695  0.00  0.00    +0.000 A 
ATOM     22  C   UNL     1       5.724   6.090  16.309  0.00  0.00    +0.000 A 
ATOM     23  C   UNL     1       5.266   6.220  15.012  0.00  0.00    +0.000 A 
ATOM     24  N   UNL     1       5.344   5.240  14.093  0.00  0.00    +0.000 NA
ATOM     25  C   UNL     1       5.891   4.068  14.455  0.00  0.00    +0.000 A 
ATOM     26  N   UNL     1       5.999   3.031  13.524  0.00  0.00    +0.000 N 
ATOM     27  C   UNL     1       5.594   3.087  12.204  0.00  0.00    +0.000 C 
ATOM     28  O   UNL     1       5.035   4.015  11.627  0.00  0.00    +0.000 OA
ATOM     29  C   UNL     1       6.366   3.846  15.746  0.00  0.00    +0.000 A 
ATOM     30  H   UNL     1       6.454   2.165  13.796  0.00  0.00    +0.000 HD
BRANCH  27  31
ATOM     31  C   UNL     1       5.868   1.778  11.455  0.00  0.00    +0.000 C 
BRANCH  31  32
ATOM     32  N   UNL     1       7.318   1.538  11.284  0.00  0.00    +0.000 NA
ATOM     33  H   UNL     1       7.480   1.324  10.297  0.00  0.00    +0.000 HD
ATOM     34  H   UNL     1       7.543   0.671  11.777  0.00  0.00    +0.000 HD
ENDBRANCH  31  32
ENDBRANCH  27  31
ENDBRANCH  20  21
ENDBRANCH  19  20
ENDBRANCH   6  19
TORSDOF 7
ENDMDL
