MODEL 1
REMARK VINA RESULT:      -6.5      0.000      0.000
REMARK  Name = 
REMARK  11 active torsions:
REMARK  status: ('A' for Active; 'I' for Inactive)
REMARK    1  A    between atoms: C_1  and  O_2
REMARK    2  A    between atoms: O_2  and  C_3
REMARK    3  A    between atoms: C_3  and  C_4
REMARK    4  A    between atoms: C_4  and  C_5
REMARK    5  A    between atoms: C_5  and  C_6
REMARK    6  A    between atoms: C_6  and  C_7
REMARK    7  A    between atoms: C_7  and  O_8
REMARK    8  A    between atoms: N_12  and  C_13
REMARK    9  A    between atoms: C_13  and  C_14
REMARK   10  A    between atoms: C_19  and  O_20
REMARK   11  A    between atoms: O_20  and  C_21
REMARK                            x       y       z     vdW  Elec       q    Type
REMARK                         _______ _______ _______ _____ _____    ______ ____
ROOT
ATOM      1  C   UNL     1       2.993   2.650  18.832  0.00  0.00    +0.000 C 
ATOM      2  C   UNL     1       1.687   1.979  19.317  0.00  0.00    +0.000 C 
ATOM      3  C   UNL     1       0.531   2.972  19.406  0.00  0.00    +0.000 C 
ATOM      4  C   UNL     1       0.909   4.209  20.227  0.00  0.00    +0.000 C 
ATOM      5  N   UNL     1       2.139   4.848  19.737  0.00  0.00    +0.000 NA
ATOM      6  C   UNL     1       3.261   3.884  19.738  0.00  0.00    +0.000 C 
ENDROOT
BRANCH   1   7
ATOM      7  C   UNL     1       2.893   3.129  17.346  0.00  0.00    +0.000 C 
BRANCH   7   8
ATOM      8  C   UNL     1       3.782   4.322  16.981  0.00  0.00    +0.000 C 
BRANCH   8   9
ATOM      9  C   UNL     1       5.114   3.872  16.391  0.00  0.00    +0.000 C 
BRANCH   9  11
ATOM     10  C   UNL     1       6.251   4.139  14.344  0.00  0.00    +0.000 C 
ATOM     11  O   UNL     1       5.450   4.769  15.333  0.00  0.00    +0.000 OA
ENDBRANCH   9  11
ENDBRANCH   8   9
ENDBRANCH   7   8
ENDBRANCH   1   7
BRANCH   1  12
ATOM     12  C   UNL     1       4.158   1.647  19.026  0.00  0.00    +0.000 C 
BRANCH  12  13
ATOM     13  O   UNL     1       5.100   2.092  19.995  0.00  0.00    +0.000 OA
ATOM     14  H   UNL     1       4.605   2.506  20.723  0.00  0.00    +0.000 HD
ENDBRANCH  12  13
ENDBRANCH   1  12
BRANCH   5  15
ATOM     15  C   UNL     1       2.459   6.040  20.556  0.00  0.00    +0.000 C 
BRANCH  15  16
ATOM     16  C   UNL     1       1.951   7.333  19.940  0.00  0.00    +0.000 A 
ATOM     17  C   UNL     1       2.287   7.667  18.622  0.00  0.00    +0.000 A 
ATOM     18  C   UNL     1       1.959   8.926  18.116  0.00  0.00    +0.000 A 
ATOM     19  C   UNL     1       1.270   9.840  18.910  0.00  0.00    +0.000 A 
ATOM     20  F   UNL     1       1.029  11.050  18.387  0.00  0.00    +0.000 F 
ATOM     21  C   UNL     1       0.864   9.506  20.202  0.00  0.00    +0.000 A 
ATOM     22  C   UNL     1       1.214   8.246  20.711  0.00  0.00    +0.000 A 
BRANCH  21  23
ATOM     23  O   UNL     1       0.154  10.287  21.077  0.00  0.00    +0.000 OA
ATOM     24  C   UNL     1       0.088   9.845  22.429  0.00  0.00    +0.000 C 
ENDBRANCH  21  23
ENDBRANCH  15  16
ENDBRANCH   5  15
TORSDOF 9
ENDMDL
MODEL 2
REMARK VINA RESULT:      -6.4      3.562      4.849
REMARK  Name = 
REMARK  11 active torsions:
REMARK  status: ('A' for Active; 'I' for Inactive)
REMARK    1  A    between atoms: C_1  and  O_2
REMARK    2  A    between atoms: O_2  and  C_3
REMARK    3  A    between atoms: C_3  and  C_4
REMARK    4  A    between atoms: C_4  and  C_5
REMARK    5  A    between atoms: C_5  and  C_6
REMARK    6  A    between atoms: C_6  and  C_7
REMARK    7  A    between atoms: C_7  and  O_8
REMARK    8  A    between atoms: N_12  and  C_13
REMARK    9  A    between atoms: C_13  and  C_14
REMARK   10  A    between atoms: C_19  and  O_20
REMARK   11  A    between atoms: O_20  and  C_21
REMARK                            x       y       z     vdW  Elec       q    Type
REMARK                         _______ _______ _______ _____ _____    ______ ____
ROOT
ATOM      1  C   UNL     1       7.068   5.593  17.882  0.00  0.00    +0.000 C 
ATOM      2  C   UNL     1       7.388   4.632  16.715  0.00  0.00    +0.000 C 
ATOM      3  C   UNL     1       6.298   4.644  15.646  0.00  0.00    +0.000 C 
ATOM      4  C   UNL     1       4.910   4.409  16.251  0.00  0.00    +0.000 C 
ATOM      5  N   UNL     1       4.613   5.347  17.343  0.00  0.00    +0.000 NA
ATOM      6  C   UNL     1       5.641   5.255  18.401  0.00  0.00    +0.000 C 
ENDROOT
BRANCH   1   7
ATOM      7  C   UNL     1       7.098   7.093  17.438  0.00  0.00    +0.000 C 
BRANCH   7   8
ATOM      8  C   UNL     1       8.216   7.937  18.056  0.00  0.00    +0.000 C 
BRANCH   8   9
ATOM      9  C   UNL     1       7.986   9.428  17.831  0.00  0.00    +0.000 C 
BRANCH   9  11
ATOM     10  C   UNL     1       9.283  11.367  18.172  0.00  0.00    +0.000 C 
ATOM     11  O   UNL     1       8.831  10.142  18.733  0.00  0.00    +0.000 OA
ENDBRANCH   9  11
ENDBRANCH   8   9
ENDBRANCH   7   8
ENDBRANCH   1   7
BRANCH   1  12
ATOM     12  C   UNL     1       8.075   5.321  19.028  0.00  0.00    +0.000 C 
BRANCH  12  13
ATOM     13  O   UNL     1       7.509   5.552  20.313  0.00  0.00    +0.000 OA
ATOM     14  H   UNL     1       7.619   4.741  20.838  0.00  0.00    +0.000 HD
ENDBRANCH  12  13
ENDBRANCH   1  12
BRANCH   5  15
ATOM     15  C   UNL     1       3.260   5.084  17.889  0.00  0.00    +0.000 C 
BRANCH  15  16
ATOM     16  C   UNL     1       2.726   6.237  18.723  0.00  0.00    +0.000 A 
ATOM     17  C   UNL     1       2.281   6.015  20.032  0.00  0.00    +0.000 A 
ATOM     18  C   UNL     1       1.641   7.037  20.734  0.00  0.00    +0.000 A 
ATOM     19  C   UNL     1       1.471   8.289  20.145  0.00  0.00    +0.000 A 
ATOM     20  F   UNL     1       0.804   9.214  20.849  0.00  0.00    +0.000 F 
ATOM     21  C   UNL     1       1.967   8.555  18.869  0.00  0.00    +0.000 A 
ATOM     22  C   UNL     1       2.592   7.517  18.161  0.00  0.00    +0.000 A 
BRANCH  21  23
ATOM     23  O   UNL     1       1.904   9.742  18.185  0.00  0.00    +0.000 OA
ATOM     24  C   UNL     1       0.816  10.606  18.495  0.00  0.00    +0.000 C 
ENDBRANCH  21  23
ENDBRANCH  15  16
ENDBRANCH   5  15
TORSDOF 9
ENDMDL
MODEL 3
REMARK VINA RESULT:      -6.4      1.029      1.063
REMARK  Name = 
REMARK  11 active torsions:
REMARK  status: ('A' for Active; 'I' for Inactive)
REMARK    1  A    between atoms: C_1  and  O_2
REMARK    2  A    between atoms: O_2  and  C_3
REMARK    3  A    between atoms: C_3  and  C_4
REMARK    4  A    between atoms: C_4  and  C_5
REMARK    5  A    between atoms: C_5  and  C_6
REMARK    6  A    between atoms: C_6  and  C_7
REMARK    7  A    between atoms: C_7  and  O_8
REMARK    8  A    between atoms: N_12  and  C_13
REMARK    9  A    between atoms: C_13  and  C_14
REMARK   10  A    between atoms: C_19  and  O_20
REMARK   11  A    between atoms: O_20  and  C_21
REMARK                            x       y       z     vdW  Elec       q    Type
REMARK                         _______ _______ _______ _____ _____    ______ ____
ROOT
ATOM      1  C   UNL     1       3.262   2.756  18.937  0.00  0.00    +0.000 C 
ATOM      2  C   UNL     1       1.981   1.936  19.217  0.00  0.00    +0.000 C 
ATOM      3  C   UNL     1       0.723   2.797  19.155  0.00  0.00    +0.000 C 
ATOM      4  C   UNL     1       0.843   4.040  20.043  0.00  0.00    +0.000 C 
ATOM      5  N   UNL     1       2.053   4.821  19.747  0.00  0.00    +0.000 NA
ATOM      6  C   UNL     1       3.262   3.981  19.893  0.00  0.00    +0.000 C 
ENDROOT
BRANCH   1   7
ATOM      7  C   UNL     1       3.321   3.270  17.461  0.00  0.00    +0.000 C 
BRANCH   7   8
ATOM      8  C   UNL     1       4.706   3.705  16.974  0.00  0.00    +0.000 C 
BRANCH   8   9
ATOM      9  C   UNL     1       4.735   5.185  16.606  0.00  0.00    +0.000 C 
BRANCH   9  11
ATOM     10  C   UNL     1       6.992   4.518  16.734  0.00  0.00    +0.000 C 
ATOM     11  O   UNL     1       6.090   5.545  16.344  0.00  0.00    +0.000 OA
ENDBRANCH   9  11
ENDBRANCH   8   9
ENDBRANCH   7   8
ENDBRANCH   1   7
BRANCH   1  12
ATOM     12  C   UNL     1       4.489   1.875  19.280  0.00  0.00    +0.000 C 
BRANCH  12  13
ATOM     13  O   UNL     1       4.438   0.603  18.645  0.00  0.00    +0.000 OA
ATOM     14  H   UNL     1       4.474   0.748  17.684  0.00  0.00    +0.000 HD
ENDBRANCH  12  13
ENDBRANCH   1  12
BRANCH   5  15
ATOM     15  C   UNL     1       2.121   6.013  20.624  0.00  0.00    +0.000 C 
BRANCH  15  16
ATOM     16  C   UNL     1       1.868   7.311  19.876  0.00  0.00    +0.000 A 
ATOM     17  C   UNL     1       2.362   7.485  18.577  0.00  0.00    +0.000 A 
ATOM     18  C   UNL     1       2.271   8.732  17.957  0.00  0.00    +0.000 A 
ATOM     19  C   UNL     1       1.663   9.798  18.618  0.00  0.00    +0.000 A 
ATOM     20  F   UNL     1       1.653  10.984  17.993  0.00  0.00    +0.000 F 
ATOM     21  C   UNL     1       1.104   9.632  19.885  0.00  0.00    +0.000 A 
ATOM     22  C   UNL     1       1.215   8.381  20.510  0.00  0.00    +0.000 A 
BRANCH  21  23
ATOM     23  O   UNL     1       0.449  10.576  20.633  0.00  0.00    +0.000 OA
ATOM     24  C   UNL     1      -0.825  11.001  20.162  0.00  0.00    +0.000 C 
ENDBRANCH  21  23
ENDBRANCH  15  16
ENDBRANCH   5  15
TORSDOF 9
ENDMDL
MODEL 4
REMARK VINA RESULT:      -6.4      4.372      6.412
REMARK  Name = 
REMARK  11 active torsions:
REMARK  status: ('A' for Active; 'I' for Inactive)
REMARK    1  A    between atoms: C_1  and  O_2
REMARK    2  A    between atoms: O_2  and  C_3
REMARK    3  A    between atoms: C_3  and  C_4
REMARK    4  A    between atoms: C_4  and  C_5
REMARK    5  A    between atoms: C_5  and  C_6
REMARK    6  A    between atoms: C_6  and  C_7
REMARK    7  A    between atoms: C_7  and  O_8
REMARK    8  A    between atoms: N_12  and  C_13
REMARK    9  A    between atoms: C_13  and  C_14
REMARK   10  A    between atoms: C_19  and  O_20
REMARK   11  A    between atoms: O_20  and  C_21
REMARK                            x       y       z     vdW  Elec       q    Type
REMARK                         _______ _______ _______ _____ _____    ______ ____
ROOT
ATOM      1  C   UNL     1       7.243   6.104  17.977  0.00  0.00    +0.000 C 
ATOM      2  C   UNL     1       7.252   5.128  16.778  0.00  0.00    +0.000 C 
ATOM      3  C   UNL     1       6.114   5.408  15.800  0.00  0.00    +0.000 C 
ATOM      4  C   UNL     1       4.759   5.468  16.512  0.00  0.00    +0.000 C 
ATOM      5  N   UNL     1       4.760   6.419  17.633  0.00  0.00    +0.000 NA
ATOM      6  C   UNL     1       5.821   6.075  18.604  0.00  0.00    +0.000 C 
ENDROOT
BRANCH   1   7
ATOM      7  C   UNL     1       7.571   7.572  17.545  0.00  0.00    +0.000 C 
BRANCH   7   8
ATOM      8  C   UNL     1       8.438   8.365  18.526  0.00  0.00    +0.000 C 
BRANCH   8   9
ATOM      9  C   UNL     1       8.610   9.814  18.082  0.00  0.00    +0.000 C 
BRANCH   9  11
ATOM     10  C   UNL     1      10.401  11.182  18.771  0.00  0.00    +0.000 C 
ATOM     11  O   UNL     1       9.198  10.536  19.163  0.00  0.00    +0.000 OA
ENDBRANCH   9  11
ENDBRANCH   8   9
ENDBRANCH   7   8
ENDBRANCH   1   7
BRANCH   1  12
ATOM     12  C   UNL     1       8.249   5.587  19.035  0.00  0.00    +0.000 C 
BRANCH  12  13
ATOM     13  O   UNL     1       7.686   5.545  20.341  0.00  0.00    +0.000 OA
ATOM     14  H   UNL     1       7.912   6.379  20.790  0.00  0.00    +0.000 HD
ENDBRANCH  12  13
ENDBRANCH   1  12
BRANCH   5  15
ATOM     15  C   UNL     1       3.429   6.446  18.283  0.00  0.00    +0.000 C 
BRANCH  15  16
ATOM     16  C   UNL     1       2.843   5.059  18.487  0.00  0.00    +0.000 A 
ATOM     17  C   UNL     1       1.731   4.646  17.742  0.00  0.00    +0.000 A 
ATOM     18  C   UNL     1       1.096   3.441  18.046  0.00  0.00    +0.000 A 
ATOM     19  C   UNL     1       1.584   2.633  19.071  0.00  0.00    +0.000 A 
ATOM     20  F   UNL     1       0.902   1.514  19.350  0.00  0.00    +0.000 F 
ATOM     21  C   UNL     1       2.730   2.990  19.782  0.00  0.00    +0.000 A 
ATOM     22  C   UNL     1       3.353   4.212  19.484  0.00  0.00    +0.000 A 
BRANCH  21  23
ATOM     23  O   UNL     1       3.339   2.280  20.784  0.00  0.00    +0.000 OA
ATOM     24  C   UNL     1       4.719   1.974  20.611  0.00  0.00    +0.000 C 
ENDBRANCH  21  23
ENDBRANCH  15  16
ENDBRANCH   5  15
TORSDOF 9
ENDMDL
MODEL 5
REMARK VINA RESULT:      -6.4      1.555      2.447
REMARK  Name = 
REMARK  11 active torsions:
REMARK  status: ('A' for Active; 'I' for Inactive)
REMARK    1  A    between atoms: C_1  and  O_2
REMARK    2  A    between atoms: O_2  and  C_3
REMARK    3  A    between atoms: C_3  and  C_4
REMARK    4  A    between atoms: C_4  and  C_5
REMARK    5  A    between atoms: C_5  and  C_6
REMARK    6  A    between atoms: C_6  and  C_7
REMARK    7  A    between atoms: C_7  and  O_8
REMARK    8  A    between atoms: N_12  and  C_13
REMARK    9  A    between atoms: C_13  and  C_14
REMARK   10  A    between atoms: C_19  and  O_20
REMARK   11  A    between atoms: O_20  and  C_21
REMARK                            x       y       z     vdW  Elec       q    Type
REMARK                         _______ _______ _______ _____ _____    ______ ____
ROOT
ATOM      1  C   UNL     1       3.164   2.450  18.871  0.00  0.00    +0.000 C 
ATOM      2  C   UNL     1       1.823   1.681  18.878  0.00  0.00    +0.000 C 
ATOM      3  C   UNL     1       0.622   2.622  18.834  0.00  0.00    +0.000 C 
ATOM      4  C   UNL     1       0.703   3.694  19.925  0.00  0.00    +0.000 C 
ATOM      5  N   UNL     1       1.974   4.431  19.889  0.00  0.00    +0.000 NA
ATOM      6  C   UNL     1       3.117   3.502  20.014  0.00  0.00    +0.000 C 
ENDROOT
BRANCH   1   7
ATOM      7  C   UNL     1       3.412   3.191  17.516  0.00  0.00    +0.000 C 
BRANCH   7   8
ATOM      8  C   UNL     1       4.215   4.491  17.617  0.00  0.00    +0.000 C 
BRANCH   8   9
ATOM      9  C   UNL     1       5.692   4.266  17.311  0.00  0.00    +0.000 C 
BRANCH   9  11
ATOM     10  C   UNL     1       6.335   5.410  19.269  0.00  0.00    +0.000 C 
ATOM     11  O   UNL     1       6.389   4.184  18.554  0.00  0.00    +0.000 OA
ENDBRANCH   9  11
ENDBRANCH   8   9
ENDBRANCH   7   8
ENDBRANCH   1   7
BRANCH   1  12
ATOM     12  C   UNL     1       4.303   1.447  19.184  0.00  0.00    +0.000 C 
BRANCH  12  13
ATOM     13  O   UNL     1       5.219   1.952  20.148  0.00  0.00    +0.000 OA
ATOM     14  H   UNL     1       5.747   1.204  20.478  0.00  0.00    +0.000 HD
ENDBRANCH  12  13
ENDBRANCH   1  12
BRANCH   5  15
ATOM     15  C   UNL     1       2.002   5.459  20.956  0.00  0.00    +0.000 C 
BRANCH  15  16
ATOM     16  C   UNL     1       1.834   6.871  20.421  0.00  0.00    +0.000 A 
ATOM     17  C   UNL     1       1.120   7.825  21.157  0.00  0.00    +0.000 A 
ATOM     18  C   UNL     1       0.828   9.067  20.592  0.00  0.00    +0.000 A 
ATOM     19  C   UNL     1       1.271   9.370  19.305  0.00  0.00    +0.000 A 
ATOM     20  F   UNL     1       0.914  10.558  18.797  0.00  0.00    +0.000 F 
ATOM     21  C   UNL     1       2.041   8.462  18.579  0.00  0.00    +0.000 A 
ATOM     22  C   UNL     1       2.315   7.209  19.146  0.00  0.00    +0.000 A 
BRANCH  21  23
ATOM     23  O   UNL     1       2.570   8.640  17.326  0.00  0.00    +0.000 OA
ATOM     24  C   UNL     1       3.754   7.911  17.018  0.00  0.00    +0.000 C 
ENDBRANCH  21  23
ENDBRANCH  15  16
ENDBRANCH   5  15
TORSDOF 9
ENDMDL
MODEL 6
REMARK VINA RESULT:      -6.3      2.057      4.029
REMARK  Name = 
REMARK  11 active torsions:
REMARK  status: ('A' for Active; 'I' for Inactive)
REMARK    1  A    between atoms: C_1  and  O_2
REMARK    2  A    between atoms: O_2  and  C_3
REMARK    3  A    between atoms: C_3  and  C_4
REMARK    4  A    between atoms: C_4  and  C_5
REMARK    5  A    between atoms: C_5  and  C_6
REMARK    6  A    between atoms: C_6  and  C_7
REMARK    7  A    between atoms: C_7  and  O_8
REMARK    8  A    between atoms: N_12  and  C_13
REMARK    9  A    between atoms: C_13  and  C_14
REMARK   10  A    between atoms: C_19  and  O_20
REMARK   11  A    between atoms: O_20  and  C_21
REMARK                            x       y       z     vdW  Elec       q    Type
REMARK                         _______ _______ _______ _____ _____    ______ ____
ROOT
ATOM      1  C   UNL     1       4.063   4.103  17.949  0.00  0.00    +0.000 C 
ATOM      2  C   UNL     1       5.423   4.267  17.232  0.00  0.00    +0.000 C 
ATOM      3  C   UNL     1       6.061   5.625  17.515  0.00  0.00    +0.000 C 
ATOM      4  C   UNL     1       5.091   6.776  17.228  0.00  0.00    +0.000 C 
ATOM      5  N   UNL     1       3.813   6.616  17.936  0.00  0.00    +0.000 NA
ATOM      6  C   UNL     1       3.180   5.328  17.581  0.00  0.00    +0.000 C 
ENDROOT
BRANCH   1   7
ATOM      7  C   UNL     1       4.220   4.045  19.504  0.00  0.00    +0.000 C 
BRANCH   7   8
ATOM      8  C   UNL     1       3.909   2.689  20.144  0.00  0.00    +0.000 C 
BRANCH   8   9
ATOM      9  C   UNL     1       2.730   2.777  21.108  0.00  0.00    +0.000 C 
BRANCH   9  11
ATOM     10  C   UNL     1       0.839   3.940  20.316  0.00  0.00    +0.000 C 
ATOM     11  O   UNL     1       1.530   2.699  20.340  0.00  0.00    +0.000 OA
ENDBRANCH   9  11
ENDBRANCH   8   9
ENDBRANCH   7   8
ENDBRANCH   1   7
BRANCH   1  12
ATOM     12  C   UNL     1       3.374   2.829  17.400  0.00  0.00    +0.000 C 
BRANCH  12  13
ATOM     13  O   UNL     1       1.987   3.028  17.151  0.00  0.00    +0.000 OA
ATOM     14  H   UNL     1       1.575   3.326  17.980  0.00  0.00    +0.000 HD
ENDBRANCH  12  13
ENDBRANCH   1  12
BRANCH   5  15
ATOM     15  C   UNL     1       2.914   7.755  17.634  0.00  0.00    +0.000 C 
BRANCH  15  16
ATOM     16  C   UNL     1       2.132   8.228  18.847  0.00  0.00    +0.000 A 
ATOM     17  C   UNL     1       2.109   7.458  20.017  0.00  0.00    +0.000 A 
ATOM     18  C   UNL     1       1.261   7.809  21.068  0.00  0.00    +0.000 A 
ATOM     19  C   UNL     1       0.458   8.944  20.967  0.00  0.00    +0.000 A 
ATOM     20  F   UNL     1      -0.373   9.201  21.987  0.00  0.00    +0.000 F 
ATOM     21  C   UNL     1       0.512   9.764  19.840  0.00  0.00    +0.000 A 
ATOM     22  C   UNL     1       1.353   9.394  18.780  0.00  0.00    +0.000 A 
BRANCH  21  23
ATOM     23  O   UNL     1      -0.190  10.921  19.622  0.00  0.00    +0.000 OA
ATOM     24  C   UNL     1      -1.442  10.799  18.956  0.00  0.00    +0.000 C 
ENDBRANCH  21  23
ENDBRANCH  15  16
ENDBRANCH   5  15
TORSDOF 9
ENDMDL
MODEL 7
REMARK VINA RESULT:      -6.3      1.639      2.131
REMARK  Name = 
REMARK  11 active torsions:
REMARK  status: ('A' for Active; 'I' for Inactive)
REMARK    1  A    between atoms: C_1  and  O_2
REMARK    2  A    between atoms: O_2  and  C_3
REMARK    3  A    between atoms: C_3  and  C_4
REMARK    4  A    between atoms: C_4  and  C_5
REMARK    5  A    between atoms: C_5  and  C_6
REMARK    6  A    between atoms: C_6  and  C_7
REMARK    7  A    between atoms: C_7  and  O_8
REMARK    8  A    between atoms: N_12  and  C_13
REMARK    9  A    between atoms: C_13  and  C_14
REMARK   10  A    between atoms: C_19  and  O_20
REMARK   11  A    between atoms: O_20  and  C_21
REMARK                            x       y       z     vdW  Elec       q    Type
REMARK                         _______ _______ _______ _____ _____    ______ ____
ROOT
ATOM      1  C   UNL     1       4.428   5.033  18.269  0.00  0.00    +0.000 C 
ATOM      2  C   UNL     1       3.694   3.729  17.880  0.00  0.00    +0.000 C 
ATOM      3  C   UNL     1       2.178   3.909  17.855  0.00  0.00    +0.000 C 
ATOM      4  C   UNL     1       1.659   4.521  19.160  0.00  0.00    +0.000 C 
ATOM      5  N   UNL     1       2.351   5.772  19.502  0.00  0.00    +0.000 NA
ATOM      6  C   UNL     1       3.810   5.549  19.599  0.00  0.00    +0.000 C 
ENDROOT
BRANCH   1   7
ATOM      7  C   UNL     1       4.274   6.144  17.179  0.00  0.00    +0.000 C 
BRANCH   7   8
ATOM      8  C   UNL     1       5.554   6.492  16.413  0.00  0.00    +0.000 C 
BRANCH   8   9
ATOM      9  C   UNL     1       5.440   6.137  14.934  0.00  0.00    +0.000 C 
BRANCH   9  11
ATOM     10  C   UNL     1       6.430   4.000  14.854  0.00  0.00    +0.000 C 
ATOM     11  O   UNL     1       6.596   5.383  14.574  0.00  0.00    +0.000 OA
ENDBRANCH   9  11
ENDBRANCH   8   9
ENDBRANCH   7   8
ENDBRANCH   1   7
BRANCH   1  12
ATOM     12  C   UNL     1       5.917   4.695  18.528  0.00  0.00    +0.000 C 
BRANCH  12  13
ATOM     13  O   UNL     1       6.340   5.077  19.832  0.00  0.00    +0.000 OA
ATOM     14  H   UNL     1       6.914   5.857  19.743  0.00  0.00    +0.000 HD
ENDBRANCH  12  13
ENDBRANCH   1  12
BRANCH   5  15
ATOM     15  C   UNL     1       1.811   6.327  20.766  0.00  0.00    +0.000 C 
BRANCH  15  16
ATOM     16  C   UNL     1       1.394   7.783  20.640  0.00  0.00    +0.000 A 
ATOM     17  C   UNL     1       1.501   8.444  19.410  0.00  0.00    +0.000 A 
ATOM     18  C   UNL     1       1.276   9.819  19.335  0.00  0.00    +0.000 A 
ATOM     19  C   UNL     1       0.914  10.531  20.477  0.00  0.00    +0.000 A 
ATOM     20  F   UNL     1       0.761  11.857  20.353  0.00  0.00    +0.000 F 
ATOM     21  C   UNL     1       0.735   9.883  21.700  0.00  0.00    +0.000 A 
ATOM     22  C   UNL     1       0.982   8.504  21.772  0.00  0.00    +0.000 A 
BRANCH  21  23
ATOM     23  O   UNL     1       0.349  10.447  22.889  0.00  0.00    +0.000 OA
ATOM     24  C   UNL     1      -1.045  10.666  23.076  0.00  0.00    +0.000 C 
ENDBRANCH  21  23
ENDBRANCH  15  16
ENDBRANCH   5  15
TORSDOF 9
ENDMDL
MODEL 8
REMARK VINA RESULT:      -6.2      3.788      5.451
REMARK  Name = 
REMARK  11 active torsions:
REMARK  status: ('A' for Active; 'I' for Inactive)
REMARK    1  A    between atoms: C_1  and  O_2
REMARK    2  A    between atoms: O_2  and  C_3
REMARK    3  A    between atoms: C_3  and  C_4
REMARK    4  A    between atoms: C_4  and  C_5
REMARK    5  A    between atoms: C_5  and  C_6
REMARK    6  A    between atoms: C_6  and  C_7
REMARK    7  A    between atoms: C_7  and  O_8
REMARK    8  A    between atoms: N_12  and  C_13
REMARK    9  A    between atoms: C_13  and  C_14
REMARK   10  A    between atoms: C_19  and  O_20
REMARK   11  A    between atoms: O_20  and  C_21
REMARK                            x       y       z     vdW  Elec       q    Type
REMARK                         _______ _______ _______ _____ _____    ______ ____
ROOT
ATOM      1  C   UNL     1       6.882   5.699  18.185  0.00  0.00    +0.000 C 
ATOM      2  C   UNL     1       7.734   4.673  17.403  0.00  0.00    +0.000 C 
ATOM      3  C   UNL     1       7.111   4.318  16.055  0.00  0.00    +0.000 C 
ATOM      4  C   UNL     1       5.647   3.891  16.204  0.00  0.00    +0.000 C 
ATOM      5  N   UNL     1       4.847   4.889  16.928  0.00  0.00    +0.000 NA
ATOM      6  C   UNL     1       5.429   5.153  18.262  0.00  0.00    +0.000 C 
ENDROOT
BRANCH   1   7
ATOM      7  C   UNL     1       6.857   7.099  17.487  0.00  0.00    +0.000 C 
BRANCH   7   8
ATOM      8  C   UNL     1       8.198   7.837  17.449  0.00  0.00    +0.000 C 
BRANCH   8   9
ATOM      9  C   UNL     1       8.071   9.263  17.974  0.00  0.00    +0.000 C 
BRANCH   9  11
ATOM     10  C   UNL     1       9.390  10.783  19.201  0.00  0.00    +0.000 C 
ATOM     11  O   UNL     1       9.011   9.424  19.036  0.00  0.00    +0.000 OA
ENDBRANCH   9  11
ENDBRANCH   8   9
ENDBRANCH   7   8
ENDBRANCH   1   7
BRANCH   1  12
ATOM     12  C   UNL     1       7.438   5.796  19.628  0.00  0.00    +0.000 C 
BRANCH  12  13
ATOM     13  O   UNL     1       8.688   5.132  19.772  0.00  0.00    +0.000 OA
ATOM     14  H   UNL     1       9.202   5.606  20.448  0.00  0.00    +0.000 HD
ENDBRANCH  12  13
ENDBRANCH   1  12
BRANCH   5  15
ATOM     15  C   UNL     1       3.441   4.435  17.040  0.00  0.00    +0.000 C 
BRANCH  15  16
ATOM     16  C   UNL     1       2.705   5.074  18.205  0.00  0.00    +0.000 A 
ATOM     17  C   UNL     1       2.550   6.464  18.266  0.00  0.00    +0.000 A 
ATOM     18  C   UNL     1       2.022   7.059  19.412  0.00  0.00    +0.000 A 
ATOM     19  C   UNL     1       1.620   6.268  20.487  0.00  0.00    +0.000 A 
ATOM     20  F   UNL     1       1.170   6.899  21.580  0.00  0.00    +0.000 F 
ATOM     21  C   UNL     1       1.701   4.877  20.424  0.00  0.00    +0.000 A 
ATOM     22  C   UNL     1       2.251   4.287  19.276  0.00  0.00    +0.000 A 
BRANCH  21  23
ATOM     23  O   UNL     1       1.313   3.979  21.385  0.00  0.00    +0.000 OA
ATOM     24  C   UNL     1       1.879   2.675  21.314  0.00  0.00    +0.000 C 
ENDBRANCH  21  23
ENDBRANCH  15  16
ENDBRANCH   5  15
TORSDOF 9
ENDMDL
MODEL 9
REMARK VINA RESULT:      -6.2      4.155      6.231
REMARK  Name = 
REMARK  11 active torsions:
REMARK  status: ('A' for Active; 'I' for Inactive)
REMARK    1  A    between atoms: C_1  and  O_2
REMARK    2  A    between atoms: O_2  and  C_3
REMARK    3  A    between atoms: C_3  and  C_4
REMARK    4  A    between atoms: C_4  and  C_5
REMARK    5  A    between atoms: C_5  and  C_6
REMARK    6  A    between atoms: C_6  and  C_7
REMARK    7  A    between atoms: C_7  and  O_8
REMARK    8  A    between atoms: N_12  and  C_13
REMARK    9  A    between atoms: C_13  and  C_14
REMARK   10  A    between atoms: C_19  and  O_20
REMARK   11  A    between atoms: O_20  and  C_21
REMARK                            x       y       z     vdW  Elec       q    Type
REMARK                         _______ _______ _______ _____ _____    ______ ____
ROOT
ATOM      1  C   UNL     1       6.898   5.936  17.564  0.00  0.00    +0.000 C 
ATOM      2  C   UNL     1       6.728   5.106  16.271  0.00  0.00    +0.000 C 
ATOM      3  C   UNL     1       5.701   5.722  15.325  0.00  0.00    +0.000 C 
ATOM      4  C   UNL     1       4.372   6.001  16.035  0.00  0.00    +0.000 C 
ATOM      5  N   UNL     1       4.550   6.811  17.249  0.00  0.00    +0.000 NA
ATOM      6  C   UNL     1       5.488   6.150  18.182  0.00  0.00    +0.000 C 
ENDROOT
BRANCH   1   7
ATOM      7  C   UNL     1       7.544   7.334  17.288  0.00  0.00    +0.000 C 
BRANCH   7   8
ATOM      8  C   UNL     1       8.318   7.941  18.461  0.00  0.00    +0.000 C 
BRANCH   8   9
ATOM      9  C   UNL     1       8.531   9.441  18.279  0.00  0.00    +0.000 C 
BRANCH   9  11
ATOM     10  C   UNL     1       9.939  11.122  19.143  0.00  0.00    +0.000 C 
ATOM     11  O   UNL     1       9.226   9.926  19.427  0.00  0.00    +0.000 OA
ENDBRANCH   9  11
ENDBRANCH   8   9
ENDBRANCH   7   8
ENDBRANCH   1   7
BRANCH   1  12
ATOM     12  C   UNL     1       7.743   5.109  18.566  0.00  0.00    +0.000 C 
BRANCH  12  13
ATOM     13  O   UNL     1       8.429   4.033  17.937  0.00  0.00    +0.000 OA
ATOM     14  H   UNL     1       8.560   3.335  18.601  0.00  0.00    +0.000 HD
ENDBRANCH  12  13
ENDBRANCH   1  12
BRANCH   5  15
ATOM     15  C   UNL     1       3.240   7.059  17.896  0.00  0.00    +0.000 C 
BRANCH  15  16
ATOM     16  C   UNL     1       2.752   5.876  18.714  0.00  0.00    +0.000 A 
ATOM     17  C   UNL     1       2.476   6.026  20.079  0.00  0.00    +0.000 A 
ATOM     18  C   UNL     1       2.189   4.907  20.861  0.00  0.00    +0.000 A 
ATOM     19  C   UNL     1       2.145   3.641  20.279  0.00  0.00    +0.000 A 
ATOM     20  F   UNL     1       1.915   2.599  21.090  0.00  0.00    +0.000 F 
ATOM     21  C   UNL     1       2.349   3.474  18.909  0.00  0.00    +0.000 A 
ATOM     22  C   UNL     1       2.656   4.601  18.133  0.00  0.00    +0.000 A 
BRANCH  21  23
ATOM     23  O   UNL     1       2.302   2.301  18.201  0.00  0.00    +0.000 OA
ATOM     24  C   UNL     1       3.512   1.558  18.103  0.00  0.00    +0.000 C 
ENDBRANCH  21  23
ENDBRANCH  15  16
ENDBRANCH   5  15
TORSDOF 9
ENDMDL
