MODEL 1
REMARK VINA RESULT:      -7.1      0.000      0.000
REMARK  Name = 
REMARK  5 active torsions:
REMARK  status: ('A' for Active; 'I' for Inactive)
REMARK    1  A    between atoms: C_1  and  S_2
REMARK    2  A    between atoms: S_2  and  C_3
REMARK    3  A    between atoms: C_14  and  C_15
REMARK    4  A    between atoms: C_18  and  C_19
REMARK    5  A    between atoms: C_18  and  C_20
REMARK                            x       y       z     vdW  Elec       q    Type
REMARK                         _______ _______ _______ _____ _____    ______ ____
ROOT
ATOM      1  C   UNL     1       2.215   4.114  19.234  0.00  0.00    +0.000 A 
ATOM      2  N   UNL     1       1.985   5.445  19.381  0.00  0.00    +0.000 NA
ATOM      3  C   UNL     1       2.819   6.358  18.828  0.00  0.00    +0.000 A 
ATOM      4  N   UNL     1       2.483   7.678  19.019  0.00  0.00    +0.000 N 
ATOM      5  C   UNL     1       1.809   8.091  20.262  0.00  0.00    +0.000 C 
ATOM      6  C   UNL     1       0.542   8.904  19.957  0.00  0.00    +0.000 C 
ATOM      7  O   UNL     1       0.822  10.011  19.085  0.00  0.00    +0.000 OA
ATOM      8  C   UNL     1       1.318   9.522  17.836  0.00  0.00    +0.000 C 
ATOM      9  C   UNL     1       2.617   8.729  18.008  0.00  0.00    +0.000 C 
ATOM     10  C   UNL     1       3.953   5.931  18.114  0.00  0.00    +0.000 A 
ATOM     11  C   UNL     1       4.171   4.543  17.922  0.00  0.00    +0.000 A 
ATOM     12  C   UNL     1       3.298   3.618  18.517  0.00  0.00    +0.000 A 
ATOM     13  C   UNL     1       5.382   4.081  17.127  0.00  0.00    +0.000 C 
ATOM     14  C   UNL     1       5.942   5.193  16.225  0.00  0.00    +0.000 C 
ATOM     15  C   UNL     1       7.322   4.803  15.688  0.00  0.00    +0.000 C 
ATOM     16  C   UNL     1       5.025   5.490  15.021  0.00  0.00    +0.000 C 
ATOM     17  O   UNL     1       6.167   6.337  17.054  0.00  0.00    +0.000 OA
ATOM     18  C   UNL     1       4.969   6.913  17.570  0.00  0.00    +0.000 C 
ENDROOT
BRANCH   1  20
ATOM     19  C   UNL     1       1.749   2.784  21.647  0.00  0.00    +0.000 C 
ATOM     20  S   UNL     1       1.026   3.006  20.003  0.00  0.00    +0.000 S 
ENDBRANCH   1  20
BRANCH  12  21
ATOM     21  C   UNL     1       3.539   2.202  18.400  0.00  0.00    +0.000 C 
ATOM     22  N   UNL     1       3.738   1.061  18.360  0.00  0.00    +0.000 NA
ENDBRANCH  12  21
TORSDOF 2
ENDMDL
MODEL 2
REMARK VINA RESULT:      -6.0      2.761      5.936
REMARK  Name = 
REMARK  5 active torsions:
REMARK  status: ('A' for Active; 'I' for Inactive)
REMARK    1  A    between atoms: C_1  and  S_2
REMARK    2  A    between atoms: S_2  and  C_3
REMARK    3  A    between atoms: C_14  and  C_15
REMARK    4  A    between atoms: C_18  and  C_19
REMARK    5  A    between atoms: C_18  and  C_20
REMARK                            x       y       z     vdW  Elec       q    Type
REMARK                         _______ _______ _______ _____ _____    ______ ____
ROOT
ATOM      1  C   UNL     1       2.887   7.610  18.586  0.00  0.00    +0.000 A 
ATOM      2  N   UNL     1       3.801   7.003  17.784  0.00  0.00    +0.000 NA
ATOM      3  C   UNL     1       4.125   5.700  17.965  0.00  0.00    +0.000 A 
ATOM      4  N   UNL     1       5.045   5.178  17.086  0.00  0.00    +0.000 N 
ATOM      5  C   UNL     1       6.111   6.036  16.544  0.00  0.00    +0.000 C 
ATOM      6  C   UNL     1       6.164   5.949  15.011  0.00  0.00    +0.000 C 
ATOM      7  O   UNL     1       6.267   4.588  14.564  0.00  0.00    +0.000 OA
ATOM      8  C   UNL     1       5.114   3.856  14.987  0.00  0.00    +0.000 C 
ATOM      9  C   UNL     1       4.981   3.831  16.513  0.00  0.00    +0.000 C 
ATOM     10  C   UNL     1       3.530   4.967  19.008  0.00  0.00    +0.000 A 
ATOM     11  C   UNL     1       2.544   5.588  19.818  0.00  0.00    +0.000 A 
ATOM     12  C   UNL     1       2.238   6.943  19.617  0.00  0.00    +0.000 A 
ATOM     13  C   UNL     1       1.882   4.788  20.929  0.00  0.00    +0.000 C 
ATOM     14  C   UNL     1       2.019   3.272  20.714  0.00  0.00    +0.000 C 
ATOM     15  C   UNL     1       1.627   2.513  21.985  0.00  0.00    +0.000 C 
ATOM     16  C   UNL     1       1.136   2.760  19.558  0.00  0.00    +0.000 C 
ATOM     17  O   UNL     1       3.409   2.996  20.521  0.00  0.00    +0.000 OA
ATOM     18  C   UNL     1       3.939   3.542  19.314  0.00  0.00    +0.000 C 
ENDROOT
BRANCH   1  20
ATOM     19  C   UNL     1       0.819   9.248  17.663  0.00  0.00    +0.000 C 
ATOM     20  S   UNL     1       2.536   9.338  18.232  0.00  0.00    +0.000 S 
ENDBRANCH   1  20
BRANCH  12  21
ATOM     21  C   UNL     1       1.294   7.616  20.473  0.00  0.00    +0.000 C 
ATOM     22  N   UNL     1       0.576   8.166  21.198  0.00  0.00    +0.000 NA
ENDBRANCH  12  21
TORSDOF 2
ENDMDL
MODEL 3
REMARK VINA RESULT:      -5.9      5.783      8.244
REMARK  Name = 
REMARK  5 active torsions:
REMARK  status: ('A' for Active; 'I' for Inactive)
REMARK    1  A    between atoms: C_1  and  S_2
REMARK    2  A    between atoms: S_2  and  C_3
REMARK    3  A    between atoms: C_14  and  C_15
REMARK    4  A    between atoms: C_18  and  C_19
REMARK    5  A    between atoms: C_18  and  C_20
REMARK                            x       y       z     vdW  Elec       q    Type
REMARK                         _______ _______ _______ _____ _____    ______ ____
ROOT
ATOM      1  C   UNL     1      -3.374  11.520  18.338  0.00  0.00    +0.000 A 
ATOM      2  N   UNL     1      -3.182  12.056  19.572  0.00  0.00    +0.000 NA
ATOM      3  C   UNL     1      -2.036  11.827  20.256  0.00  0.00    +0.000 A 
ATOM      4  N   UNL     1      -1.936  12.433  21.487  0.00  0.00    +0.000 N 
ATOM      5  C   UNL     1      -3.143  12.640  22.304  0.00  0.00    +0.000 C 
ATOM      6  C   UNL     1      -3.254  14.101  22.764  0.00  0.00    +0.000 C 
ATOM      7  O   UNL     1      -2.056  14.538  23.426  0.00  0.00    +0.000 OA
ATOM      8  C   UNL     1      -0.954  14.465  22.517  0.00  0.00    +0.000 C 
ATOM      9  C   UNL     1      -0.713  13.036  22.024  0.00  0.00    +0.000 C 
ATOM     10  C   UNL     1      -1.039  11.006  19.701  0.00  0.00    +0.000 A 
ATOM     11  C   UNL     1      -1.219  10.481  18.395  0.00  0.00    +0.000 A 
ATOM     12  C   UNL     1      -2.422  10.723  17.713  0.00  0.00    +0.000 A 
ATOM     13  C   UNL     1      -0.128   9.616  17.783  0.00  0.00    +0.000 C 
ATOM     14  C   UNL     1       1.231   9.824  18.469  0.00  0.00    +0.000 C 
ATOM     15  C   UNL     1       2.216   8.728  18.049  0.00  0.00    +0.000 C 
ATOM     16  C   UNL     1       1.859  11.189  18.127  0.00  0.00    +0.000 C 
ATOM     17  O   UNL     1       1.031   9.635  19.872  0.00  0.00    +0.000 OA
ATOM     18  C   UNL     1       0.210  10.636  20.472  0.00  0.00    +0.000 C 
ENDROOT
BRANCH   1  20
ATOM     19  C   UNL     1      -6.086  10.851  18.434  0.00  0.00    +0.000 C 
ATOM     20  S   UNL     1      -4.931  11.912  17.528  0.00  0.00    +0.000 S 
ENDBRANCH   1  20
BRANCH  12  21
ATOM     21  C   UNL     1      -2.659  10.141  16.417  0.00  0.00    +0.000 C 
ATOM     22  N   UNL     1      -2.809   9.702  15.354  0.00  0.00    +0.000 NA
ENDBRANCH  12  21
TORSDOF 2
ENDMDL
MODEL 4
REMARK VINA RESULT:      -5.6      8.166     11.024
REMARK  Name = 
REMARK  5 active torsions:
REMARK  status: ('A' for Active; 'I' for Inactive)
REMARK    1  A    between atoms: C_1  and  S_2
REMARK    2  A    between atoms: S_2  and  C_3
REMARK    3  A    between atoms: C_14  and  C_15
REMARK    4  A    between atoms: C_18  and  C_19
REMARK    5  A    between atoms: C_18  and  C_20
REMARK                            x       y       z     vdW  Elec       q    Type
REMARK                         _______ _______ _______ _____ _____    ______ ____
ROOT
ATOM      1  C   UNL     1      -5.944  11.957  20.404  0.00  0.00    +0.000 A 
ATOM      2  N   UNL     1      -5.228  11.685  19.282  0.00  0.00    +0.000 NA
ATOM      3  C   UNL     1      -3.915  12.010  19.202  0.00  0.00    +0.000 A 
ATOM      4  N   UNL     1      -3.279  11.672  18.030  0.00  0.00    +0.000 N 
ATOM      5  C   UNL     1      -4.024  11.688  16.760  0.00  0.00    +0.000 C 
ATOM      6  C   UNL     1      -3.853  10.361  16.005  0.00  0.00    +0.000 C 
ATOM      7  O   UNL     1      -2.467  10.028  15.830  0.00  0.00    +0.000 OA
ATOM      8  C   UNL     1      -1.849   9.866  17.108  0.00  0.00    +0.000 C 
ATOM      9  C   UNL     1      -1.913  11.150  17.942  0.00  0.00    +0.000 C 
ATOM     10  C   UNL     1      -3.285  12.657  20.280  0.00  0.00    +0.000 A 
ATOM     11  C   UNL     1      -4.020  12.902  21.468  0.00  0.00    +0.000 A 
ATOM     12  C   UNL     1      -5.383  12.568  21.519  0.00  0.00    +0.000 A 
ATOM     13  C   UNL     1      -3.332  13.578  22.644  0.00  0.00    +0.000 C 
ATOM     14  C   UNL     1      -1.801  13.467  22.562  0.00  0.00    +0.000 C 
ATOM     15  C   UNL     1      -1.141  14.412  23.572  0.00  0.00    +0.000 C 
ATOM     16  C   UNL     1      -1.300  12.037  22.845  0.00  0.00    +0.000 C 
ATOM     17  O   UNL     1      -1.409  13.954  21.276  0.00  0.00    +0.000 OA
ATOM     18  C   UNL     1      -1.850  13.133  20.195  0.00  0.00    +0.000 C 
ENDROOT
BRANCH   1  20
ATOM     19  C   UNL     1      -7.533   9.658  20.439  0.00  0.00    +0.000 C 
ATOM     20  S   UNL     1      -7.673  11.463  20.388  0.00  0.00    +0.000 S 
ENDBRANCH   1  20
BRANCH  12  21
ATOM     21  C   UNL     1      -6.169  12.873  22.687  0.00  0.00    +0.000 C 
ATOM     22  N   UNL     1      -6.838  13.143  23.594  0.00  0.00    +0.000 NA
ENDBRANCH  12  21
TORSDOF 2
ENDMDL
MODEL 5
REMARK VINA RESULT:      -5.5      6.651      9.155
REMARK  Name = 
REMARK  5 active torsions:
REMARK  status: ('A' for Active; 'I' for Inactive)
REMARK    1  A    between atoms: C_1  and  S_2
REMARK    2  A    between atoms: S_2  and  C_3
REMARK    3  A    between atoms: C_14  and  C_15
REMARK    4  A    between atoms: C_18  and  C_19
REMARK    5  A    between atoms: C_18  and  C_20
REMARK                            x       y       z     vdW  Elec       q    Type
REMARK                         _______ _______ _______ _____ _____    ______ ____
ROOT
ATOM      1  C   UNL     1      -4.022  12.191  19.239  0.00  0.00    +0.000 A 
ATOM      2  N   UNL     1      -3.760  12.538  20.526  0.00  0.00    +0.000 NA
ATOM      3  C   UNL     1      -2.555  12.269  21.085  0.00  0.00    +0.000 A 
ATOM      4  N   UNL     1      -2.387  12.681  22.386  0.00  0.00    +0.000 N 
ATOM      5  C   UNL     1      -3.536  12.691  23.308  0.00  0.00    +0.000 C 
ATOM      6  C   UNL     1      -3.675  14.054  24.001  0.00  0.00    +0.000 C 
ATOM      7  O   UNL     1      -2.450  14.449  24.639  0.00  0.00    +0.000 OA
ATOM      8  C   UNL     1      -1.419  14.580  23.657  0.00  0.00    +0.000 C 
ATOM      9  C   UNL     1      -1.154  13.260  22.926  0.00  0.00    +0.000 C 
ATOM     10  C   UNL     1      -1.568  11.601  20.338  0.00  0.00    +0.000 A 
ATOM     11  C   UNL     1      -1.825  11.278  18.981  0.00  0.00    +0.000 A 
ATOM     12  C   UNL     1      -3.087  11.555  18.431  0.00  0.00    +0.000 A 
ATOM     13  C   UNL     1      -0.748  10.579  18.165  0.00  0.00    +0.000 C 
ATOM     14  C   UNL     1       0.650  10.754  18.780  0.00  0.00    +0.000 C 
ATOM     15  C   UNL     1       1.647   9.793  18.124  0.00  0.00    +0.000 C 
ATOM     16  C   UNL     1       1.189  12.189  18.617  0.00  0.00    +0.000 C 
ATOM     17  O   UNL     1       0.567  10.338  20.146  0.00  0.00    +0.000 OA
ATOM     18  C   UNL     1      -0.249  11.186  20.953  0.00  0.00    +0.000 C 
ENDROOT
BRANCH   1  20
ATOM     19  C   UNL     1      -6.587  11.111  18.982  0.00  0.00    +0.000 C 
ATOM     20  S   UNL     1      -5.653  12.617  18.612  0.00  0.00    +0.000 S 
ENDBRANCH   1  20
BRANCH  12  21
ATOM     21  C   UNL     1      -3.397  11.170  17.078  0.00  0.00    +0.000 C 
ATOM     22  N   UNL     1      -3.609  10.821  15.993  0.00  0.00    +0.000 NA
ENDBRANCH  12  21
TORSDOF 2
ENDMDL
MODEL 6
REMARK VINA RESULT:      -5.5      8.312     10.336
REMARK  Name = 
REMARK  5 active torsions:
REMARK  status: ('A' for Active; 'I' for Inactive)
REMARK    1  A    between atoms: C_1  and  S_2
REMARK    2  A    between atoms: S_2  and  C_3
REMARK    3  A    between atoms: C_14  and  C_15
REMARK    4  A    between atoms: C_18  and  C_19
REMARK    5  A    between atoms: C_18  and  C_20
REMARK                            x       y       z     vdW  Elec       q    Type
REMARK                         _______ _______ _______ _____ _____    ______ ____
ROOT
ATOM      1  C   UNL     1      -1.997  12.648  21.125  0.00  0.00    +0.000 A 
ATOM      2  N   UNL     1      -3.318  12.832  21.388  0.00  0.00    +0.000 NA
ATOM      3  C   UNL     1      -4.253  12.590  20.439  0.00  0.00    +0.000 A 
ATOM      4  N   UNL     1      -5.561  12.787  20.814  0.00  0.00    +0.000 N 
ATOM      5  C   UNL     1      -5.893  13.838  21.792  0.00  0.00    +0.000 C 
ATOM      6  C   UNL     1      -6.751  13.275  22.935  0.00  0.00    +0.000 C 
ATOM      7  O   UNL     1      -7.914  12.595  22.436  0.00  0.00    +0.000 OA
ATOM      8  C   UNL     1      -7.511  11.486  21.629  0.00  0.00    +0.000 C 
ATOM      9  C   UNL     1      -6.682  11.931  20.419  0.00  0.00    +0.000 C 
ATOM     10  C   UNL     1      -3.859  12.167  19.156  0.00  0.00    +0.000 A 
ATOM     11  C   UNL     1      -2.485  11.933  18.895  0.00  0.00    +0.000 A 
ATOM     12  C   UNL     1      -1.535  12.205  19.892  0.00  0.00    +0.000 A 
ATOM     13  C   UNL     1      -2.061  11.450  17.516  0.00  0.00    +0.000 C 
ATOM     14  C   UNL     1      -3.225  10.815  16.740  0.00  0.00    +0.000 C 
ATOM     15  C   UNL     1      -2.849  10.630  15.266  0.00  0.00    +0.000 C 
ATOM     16  C   UNL     1      -3.630   9.440  17.307  0.00  0.00    +0.000 C 
ATOM     17  O   UNL     1      -4.299  11.759  16.741  0.00  0.00    +0.000 OA
ATOM     18  C   UNL     1      -4.859  11.987  18.034  0.00  0.00    +0.000 C 
ENDROOT
BRANCH   1  20
ATOM     19  C   UNL     1      -0.467  14.734  22.184  0.00  0.00    +0.000 C 
ATOM     20  S   UNL     1      -0.858  12.990  22.475  0.00  0.00    +0.000 S 
ENDBRANCH   1  20
BRANCH  12  21
ATOM     21  C   UNL     1      -0.128  12.046  19.628  0.00  0.00    +0.000 C 
ATOM     22  N   UNL     1       0.994  11.869  19.394  0.00  0.00    +0.000 NA
ENDBRANCH  12  21
TORSDOF 2
ENDMDL
MODEL 7
REMARK VINA RESULT:      -5.4      2.716      4.281
REMARK  Name = 
REMARK  5 active torsions:
REMARK  status: ('A' for Active; 'I' for Inactive)
REMARK    1  A    between atoms: C_1  and  S_2
REMARK    2  A    between atoms: S_2  and  C_3
REMARK    3  A    between atoms: C_14  and  C_15
REMARK    4  A    between atoms: C_18  and  C_19
REMARK    5  A    between atoms: C_18  and  C_20
REMARK                            x       y       z     vdW  Elec       q    Type
REMARK                         _______ _______ _______ _____ _____    ______ ____
ROOT
ATOM      1  C   UNL     1       5.719   6.869  17.456  0.00  0.00    +0.000 A 
ATOM      2  N   UNL     1       4.594   7.580  17.730  0.00  0.00    +0.000 NA
ATOM      3  C   UNL     1       3.441   6.952  18.065  0.00  0.00    +0.000 A 
ATOM      4  N   UNL     1       2.368   7.766  18.343  0.00  0.00    +0.000 N 
ATOM      5  C   UNL     1       2.220   9.051  17.640  0.00  0.00    +0.000 C 
ATOM      6  C   UNL     1       2.008  10.202  18.634  0.00  0.00    +0.000 C 
ATOM      7  O   UNL     1       0.917   9.932  19.530  0.00  0.00    +0.000 OA
ATOM      8  C   UNL     1       1.207   8.761  20.297  0.00  0.00    +0.000 C 
ATOM      9  C   UNL     1       1.392   7.526  19.410  0.00  0.00    +0.000 C 
ATOM     10  C   UNL     1       3.394   5.547  18.106  0.00  0.00    +0.000 A 
ATOM     11  C   UNL     1       4.578   4.805  17.863  0.00  0.00    +0.000 A 
ATOM     12  C   UNL     1       5.755   5.480  17.506  0.00  0.00    +0.000 A 
ATOM     13  C   UNL     1       4.533   3.286  17.935  0.00  0.00    +0.000 C 
ATOM     14  C   UNL     1       3.325   2.778  18.737  0.00  0.00    +0.000 C 
ATOM     15  C   UNL     1       3.137   1.273  18.526  0.00  0.00    +0.000 C 
ATOM     16  C   UNL     1       3.474   3.036  20.250  0.00  0.00    +0.000 C 
ATOM     17  O   UNL     1       2.158   3.388  18.177  0.00  0.00    +0.000 OA
ATOM     18  C   UNL     1       2.103   4.800  18.370  0.00  0.00    +0.000 C 
ENDROOT
BRANCH   1  20
ATOM     19  C   UNL     1       8.208   7.571  18.514  0.00  0.00    +0.000 C 
ATOM     20  S   UNL     1       7.186   7.822  17.041  0.00  0.00    +0.000 S 
ENDBRANCH   1  20
BRANCH  12  21
ATOM     21  C   UNL     1       6.952   4.746  17.182  0.00  0.00    +0.000 C 
ATOM     22  N   UNL     1       7.929   4.196  16.888  0.00  0.00    +0.000 NA
ENDBRANCH  12  21
TORSDOF 2
ENDMDL
MODEL 8
REMARK VINA RESULT:      -5.4      7.146      9.899
REMARK  Name = 
REMARK  5 active torsions:
REMARK  status: ('A' for Active; 'I' for Inactive)
REMARK    1  A    between atoms: C_1  and  S_2
REMARK    2  A    between atoms: S_2  and  C_3
REMARK    3  A    between atoms: C_14  and  C_15
REMARK    4  A    between atoms: C_18  and  C_19
REMARK    5  A    between atoms: C_18  and  C_20
REMARK                            x       y       z     vdW  Elec       q    Type
REMARK                         _______ _______ _______ _____ _____    ______ ____
ROOT
ATOM      1  C   UNL     1      -4.806  12.153  18.422  0.00  0.00    +0.000 A 
ATOM      2  N   UNL     1      -4.807  12.667  19.680  0.00  0.00    +0.000 NA
ATOM      3  C   UNL     1      -3.695  12.615  20.452  0.00  0.00    +0.000 A 
ATOM      4  N   UNL     1      -3.797  13.182  21.700  0.00  0.00    +0.000 N 
ATOM      5  C   UNL     1      -5.082  13.145  22.420  0.00  0.00    +0.000 C 
ATOM      6  C   UNL     1      -5.483  14.546  22.904  0.00  0.00    +0.000 C 
ATOM      7  O   UNL     1      -4.436  15.159  23.672  0.00  0.00    +0.000 OA
ATOM      8  C   UNL     1      -3.272  15.314  22.857  0.00  0.00    +0.000 C 
ATOM      9  C   UNL     1      -2.745  13.968  22.350  0.00  0.00    +0.000 C 
ATOM     10  C   UNL     1      -2.528  12.002  19.961  0.00  0.00    +0.000 A 
ATOM     11  C   UNL     1      -2.512  11.504  18.632  0.00  0.00    +0.000 A 
ATOM     12  C   UNL     1      -3.683  11.559  17.860  0.00  0.00    +0.000 A 
ATOM     13  C   UNL     1      -1.242  10.865  18.092  0.00  0.00    +0.000 C 
ATOM     14  C   UNL     1       0.003  11.280  18.892  0.00  0.00    +0.000 C 
ATOM     15  C   UNL     1       1.195  10.390  18.528  0.00  0.00    +0.000 C 
ATOM     16  C   UNL     1       0.404  12.746  18.636  0.00  0.00    +0.000 C 
ATOM     17  O   UNL     1      -0.269  11.006  20.269  0.00  0.00    +0.000 OA
ATOM     18  C   UNL     1      -1.297  11.826  20.823  0.00  0.00    +0.000 C 
ENDROOT
BRANCH   1  20
ATOM     19  C   UNL     1      -7.519  12.699  18.813  0.00  0.00    +0.000 C 
ATOM     20  S   UNL     1      -6.341  12.299  17.497  0.00  0.00    +0.000 S 
ENDBRANCH   1  20
BRANCH  12  21
ATOM     21  C   UNL     1      -3.713  10.994  16.535  0.00  0.00    +0.000 C 
ATOM     22  N   UNL     1      -3.717  10.586  15.449  0.00  0.00    +0.000 NA
ENDBRANCH  12  21
TORSDOF 2
ENDMDL
MODEL 9
REMARK VINA RESULT:      -5.3      7.824     11.924
REMARK  Name = 
REMARK  5 active torsions:
REMARK  status: ('A' for Active; 'I' for Inactive)
REMARK    1  A    between atoms: C_1  and  S_2
REMARK    2  A    between atoms: S_2  and  C_3
REMARK    3  A    between atoms: C_14  and  C_15
REMARK    4  A    between atoms: C_18  and  C_19
REMARK    5  A    between atoms: C_18  and  C_20
REMARK                            x       y       z     vdW  Elec       q    Type
REMARK                         _______ _______ _______ _____ _____    ______ ____
ROOT
ATOM      1  C   UNL     1      -4.340  12.130  18.994  0.00  0.00    +0.000 A 
ATOM      2  N   UNL     1      -3.156  11.952  19.637  0.00  0.00    +0.000 NA
ATOM      3  C   UNL     1      -2.971  12.429  20.891  0.00  0.00    +0.000 A 
ATOM      4  N   UNL     1      -1.744  12.176  21.459  0.00  0.00    +0.000 N 
ATOM      5  C   UNL     1      -0.542  12.112  20.610  0.00  0.00    +0.000 C 
ATOM      6  C   UNL     1       0.247  10.820  20.868  0.00  0.00    +0.000 C 
ATOM      7  O   UNL     1       0.545  10.653  22.264  0.00  0.00    +0.000 OA
ATOM      8  C   UNL     1      -0.674  10.557  23.005  0.00  0.00    +0.000 C 
ATOM      9  C   UNL     1      -1.531  11.819  22.864  0.00  0.00    +0.000 C 
ATOM     10  C   UNL     1      -4.002  13.139  21.532  0.00  0.00    +0.000 A 
ATOM     11  C   UNL     1      -5.252  13.287  20.879  0.00  0.00    +0.000 A 
ATOM     12  C   UNL     1      -5.413  12.795  19.574  0.00  0.00    +0.000 A 
ATOM     13  C   UNL     1      -6.376  14.032  21.583  0.00  0.00    +0.000 C 
ATOM     14  C   UNL     1      -6.163  14.102  23.103  0.00  0.00    +0.000 C 
ATOM     15  C   UNL     1      -7.129  15.111  23.733  0.00  0.00    +0.000 C 
ATOM     16  C   UNL     1      -6.378  12.739  23.791  0.00  0.00    +0.000 C 
ATOM     17  O   UNL     1      -4.856  14.640  23.323  0.00  0.00    +0.000 OA
ATOM     18  C   UNL     1      -3.804  13.781  22.889  0.00  0.00    +0.000 C 
ENDROOT
BRANCH   1  20
ATOM     19  C   UNL     1      -3.346  10.016  17.459  0.00  0.00    +0.000 C 
ATOM     20  S   UNL     1      -4.463  11.436  17.339  0.00  0.00    +0.000 S 
ENDBRANCH   1  20
BRANCH  12  21
ATOM     21  C   UNL     1      -6.649  12.998  18.861  0.00  0.00    +0.000 C 
ATOM     22  N   UNL     1      -7.665  13.121  18.317  0.00  0.00    +0.000 NA
ENDBRANCH  12  21
TORSDOF 2
ENDMDL
