MODEL 1
REMARK VINA RESULT:      -6.7      0.000      0.000
REMARK  Name = 
REMARK  4 active torsions:
REMARK  status: ('A' for Active; 'I' for Inactive)
REMARK    1  A    between atoms: C_1  and  N_2
REMARK    2  A    between atoms: N_2  and  C_3
REMARK    3  A    between atoms: C_4  and  O_6
REMARK    4  A    between atoms: O_6  and  C_7
REMARK                            x       y       z     vdW  Elec       q    Type
REMARK                         _______ _______ _______ _____ _____    ______ ____
ROOT
ATOM      1  C   UNL     1       4.979   4.040  17.376  0.00  0.00    +0.000 A 
ATOM      2  C   UNL     1       5.277   4.482  18.688  0.00  0.00    +0.000 A 
ATOM      3  C   UNL     1       6.397   5.302  18.924  0.00  0.00    +0.000 A 
ATOM      4  C   UNL     1       7.220   5.698  17.858  0.00  0.00    +0.000 A 
ATOM      5  C   UNL     1       6.909   5.241  16.582  0.00  0.00    +0.000 A 
ATOM      6  C   UNL     1       5.837   4.430  16.345  0.00  0.00    +0.000 A 
ATOM      7  C   UNL     1       5.723   4.137  14.885  0.00  0.00    +0.000 C 
ATOM      8  C   UNL     1       6.975   4.833  14.292  0.00  0.00    +0.000 C 
ATOM      9  N   UNL     1       7.586   5.535  15.396  0.00  0.00    +0.000 N 
ATOM     10  H   UNL     1       8.430   6.121  15.330  0.00  0.00    +0.000 HD
ENDROOT
BRANCH   1  11
ATOM     11  O   UNL     1       3.876   3.324  17.045  0.00  0.00    +0.000 OA
BRANCH  11  15
ATOM     12  C   UNL     1       1.459   4.269  17.868  0.00  0.00    +0.000 C 
ATOM     13  N   UNL     1       1.976   3.001  18.361  0.00  0.00    +0.000 N 
ATOM     14  C   UNL     1       1.254   2.265  19.381  0.00  0.00    +0.000 C 
ATOM     15  C   UNL     1       3.171   2.542  17.893  0.00  0.00    +0.000 C 
ATOM     16  O   UNL     1       3.622   1.472  18.284  0.00  0.00    +0.000 OA
ENDBRANCH  11  15
ENDBRANCH   1  11
TORSDOF 2
ENDMDL
MODEL 2
REMARK VINA RESULT:      -6.6      1.341      1.386
REMARK  Name = 
REMARK  4 active torsions:
REMARK  status: ('A' for Active; 'I' for Inactive)
REMARK    1  A    between atoms: C_1  and  N_2
REMARK    2  A    between atoms: N_2  and  C_3
REMARK    3  A    between atoms: C_4  and  O_6
REMARK    4  A    between atoms: O_6  and  C_7
REMARK                            x       y       z     vdW  Elec       q    Type
REMARK                         _______ _______ _______ _____ _____    ______ ____
ROOT
ATOM      1  C   UNL     1       5.542   4.319  18.192  0.00  0.00    +0.000 A 
ATOM      2  C   UNL     1       6.086   5.107  19.235  0.00  0.00    +0.000 A 
ATOM      3  C   UNL     1       7.098   6.047  18.962  0.00  0.00    +0.000 A 
ATOM      4  C   UNL     1       7.569   6.217  17.651  0.00  0.00    +0.000 A 
ATOM      5  C   UNL     1       7.023   5.422  16.648  0.00  0.00    +0.000 A 
ATOM      6  C   UNL     1       6.055   4.495  16.906  0.00  0.00    +0.000 A 
ATOM      7  C   UNL     1       5.631   3.826  15.639  0.00  0.00    +0.000 C 
ATOM      8  C   UNL     1       6.585   4.441  14.583  0.00  0.00    +0.000 C 
ATOM      9  N   UNL     1       7.340   5.451  15.287  0.00  0.00    +0.000 N 
ATOM     10  H   UNL     1       8.048   6.065  14.861  0.00  0.00    +0.000 HD
ENDROOT
BRANCH   1  11
ATOM     11  O   UNL     1       4.508   3.457  18.348  0.00  0.00    +0.000 OA
BRANCH  11  15
ATOM     12  C   UNL     1       2.059   4.167  19.301  0.00  0.00    +0.000 C 
ATOM     13  N   UNL     1       2.923   3.268  20.051  0.00  0.00    +0.000 N 
ATOM     14  C   UNL     1       2.534   2.815  21.372  0.00  0.00    +0.000 C 
ATOM     15  C   UNL     1       4.124   2.903  19.522  0.00  0.00    +0.000 C 
ATOM     16  O   UNL     1       4.865   2.139  20.128  0.00  0.00    +0.000 OA
ENDBRANCH  11  15
ENDBRANCH   1  11
TORSDOF 2
ENDMDL
MODEL 3
REMARK VINA RESULT:      -6.6      0.843      1.364
REMARK  Name = 
REMARK  4 active torsions:
REMARK  status: ('A' for Active; 'I' for Inactive)
REMARK    1  A    between atoms: C_1  and  N_2
REMARK    2  A    between atoms: N_2  and  C_3
REMARK    3  A    between atoms: C_4  and  O_6
REMARK    4  A    between atoms: O_6  and  C_7
REMARK                            x       y       z     vdW  Elec       q    Type
REMARK                         _______ _______ _______ _____ _____    ______ ____
ROOT
ATOM      1  C   UNL     1       4.866   4.314  17.285  0.00  0.00    +0.000 A 
ATOM      2  C   UNL     1       5.222   4.745  18.586  0.00  0.00    +0.000 A 
ATOM      3  C   UNL     1       6.427   5.440  18.798  0.00  0.00    +0.000 A 
ATOM      4  C   UNL     1       7.281   5.722  17.720  0.00  0.00    +0.000 A 
ATOM      5  C   UNL     1       6.910   5.277  16.455  0.00  0.00    +0.000 A 
ATOM      6  C   UNL     1       5.752   4.586  16.241  0.00  0.00    +0.000 A 
ATOM      7  C   UNL     1       5.595   4.280  14.788  0.00  0.00    +0.000 C 
ATOM      8  C   UNL     1       6.912   4.820  14.173  0.00  0.00    +0.000 C 
ATOM      9  N   UNL     1       7.606   5.471  15.259  0.00  0.00    +0.000 N 
ATOM     10  H   UNL     1       8.509   5.959  15.177  0.00  0.00    +0.000 HD
ENDROOT
BRANCH   1  11
ATOM     11  O   UNL     1       3.688   3.718  16.975  0.00  0.00    +0.000 OA
BRANCH  11  15
ATOM     12  C   UNL     1       3.116   1.549  18.516  0.00  0.00    +0.000 C 
ATOM     13  N   UNL     1       2.221   2.695  18.474  0.00  0.00    +0.000 N 
ATOM     14  C   UNL     1       0.953   2.657  19.176  0.00  0.00    +0.000 C 
ATOM     15  C   UNL     1       2.562   3.779  17.723  0.00  0.00    +0.000 C 
ATOM     16  O   UNL     1       1.831   4.762  17.680  0.00  0.00    +0.000 OA
ENDBRANCH  11  15
ENDBRANCH   1  11
TORSDOF 2
ENDMDL
MODEL 4
REMARK VINA RESULT:      -6.5      1.232      1.614
REMARK  Name = 
REMARK  4 active torsions:
REMARK  status: ('A' for Active; 'I' for Inactive)
REMARK    1  A    between atoms: C_1  and  N_2
REMARK    2  A    between atoms: N_2  and  C_3
REMARK    3  A    between atoms: C_4  and  O_6
REMARK    4  A    between atoms: O_6  and  C_7
REMARK                            x       y       z     vdW  Elec       q    Type
REMARK                         _______ _______ _______ _____ _____    ______ ____
ROOT
ATOM      1  C   UNL     1       5.287   4.343  18.097  0.00  0.00    +0.000 A 
ATOM      2  C   UNL     1       5.862   4.957  19.237  0.00  0.00    +0.000 A 
ATOM      3  C   UNL     1       7.006   5.766  19.106  0.00  0.00    +0.000 A 
ATOM      4  C   UNL     1       7.581   5.981  17.844  0.00  0.00    +0.000 A 
ATOM      5  C   UNL     1       7.001   5.357  16.743  0.00  0.00    +0.000 A 
ATOM      6  C   UNL     1       5.903   4.555  16.862  0.00  0.00    +0.000 A 
ATOM      7  C   UNL     1       5.477   4.062  15.517  0.00  0.00    +0.000 C 
ATOM      8  C   UNL     1       6.572   4.626  14.576  0.00  0.00    +0.000 C 
ATOM      9  N   UNL     1       7.407   5.458  15.411  0.00  0.00    +0.000 N 
ATOM     10  H   UNL     1       8.217   6.002  15.082  0.00  0.00    +0.000 HD
ENDROOT
BRANCH   1  11
ATOM     11  O   UNL     1       4.139   3.623  18.117  0.00  0.00    +0.000 OA
BRANCH  11  15
ATOM     12  C   UNL     1       3.156   2.663  20.467  0.00  0.00    +0.000 C 
ATOM     13  N   UNL     1       2.388   3.600  19.660  0.00  0.00    +0.000 N 
ATOM     14  C   UNL     1       1.038   3.959  20.045  0.00  0.00    +0.000 C 
ATOM     15  C   UNL     1       2.932   4.090  18.510  0.00  0.00    +0.000 C 
ATOM     16  O   UNL     1       2.311   4.888  17.819  0.00  0.00    +0.000 OA
ENDBRANCH  11  15
ENDBRANCH   1  11
TORSDOF 2
ENDMDL
MODEL 5
REMARK VINA RESULT:      -6.5      1.101      1.233
REMARK  Name = 
REMARK  4 active torsions:
REMARK  status: ('A' for Active; 'I' for Inactive)
REMARK    1  A    between atoms: C_1  and  N_2
REMARK    2  A    between atoms: N_2  and  C_3
REMARK    3  A    between atoms: C_4  and  O_6
REMARK    4  A    between atoms: O_6  and  C_7
REMARK                            x       y       z     vdW  Elec       q    Type
REMARK                         _______ _______ _______ _____ _____    ______ ____
ROOT
ATOM      1  C   UNL     1       4.662   5.012  17.845  0.00  0.00    +0.000 A 
ATOM      2  C   UNL     1       5.223   5.250  19.124  0.00  0.00    +0.000 A 
ATOM      3  C   UNL     1       6.620   5.316  19.285  0.00  0.00    +0.000 A 
ATOM      4  C   UNL     1       7.468   5.157  18.178  0.00  0.00    +0.000 A 
ATOM      5  C   UNL     1       6.889   4.914  16.936  0.00  0.00    +0.000 A 
ATOM      6  C   UNL     1       5.537   4.830  16.772  0.00  0.00    +0.000 A 
ATOM      7  C   UNL     1       5.205   4.609  15.333  0.00  0.00    +0.000 C 
ATOM      8  C   UNL     1       6.599   4.473  14.670  0.00  0.00    +0.000 C 
ATOM      9  N   UNL     1       7.553   4.748  15.719  0.00  0.00    +0.000 N 
ATOM     10  H   UNL     1       8.576   4.764  15.599  0.00  0.00    +0.000 HD
ENDROOT
BRANCH   1  11
ATOM     11  O   UNL     1       3.332   5.021  17.583  0.00  0.00    +0.000 OA
BRANCH  11  15
ATOM     12  C   UNL     1       1.798   4.952  19.830  0.00  0.00    +0.000 C 
ATOM     13  N   UNL     1       1.750   3.872  18.857  0.00  0.00    +0.000 N 
ATOM     14  C   UNL     1       0.957   2.687  19.120  0.00  0.00    +0.000 C 
ATOM     15  C   UNL     1       2.501   3.962  17.724  0.00  0.00    +0.000 C 
ATOM     16  O   UNL     1       2.470   3.071  16.884  0.00  0.00    +0.000 OA
ENDBRANCH  11  15
ENDBRANCH   1  11
TORSDOF 2
ENDMDL
MODEL 6
REMARK VINA RESULT:      -6.4      1.441      1.967
REMARK  Name = 
REMARK  4 active torsions:
REMARK  status: ('A' for Active; 'I' for Inactive)
REMARK    1  A    between atoms: C_1  and  N_2
REMARK    2  A    between atoms: N_2  and  C_3
REMARK    3  A    between atoms: C_4  and  O_6
REMARK    4  A    between atoms: O_6  and  C_7
REMARK                            x       y       z     vdW  Elec       q    Type
REMARK                         _______ _______ _______ _____ _____    ______ ____
ROOT
ATOM      1  C   UNL     1       6.053   4.613  18.531  0.00  0.00    +0.000 A 
ATOM      2  C   UNL     1       6.900   5.488  19.254  0.00  0.00    +0.000 A 
ATOM      3  C   UNL     1       7.634   6.482  18.581  0.00  0.00    +0.000 A 
ATOM      4  C   UNL     1       7.523   6.623  17.189  0.00  0.00    +0.000 A 
ATOM      5  C   UNL     1       6.691   5.742  16.504  0.00  0.00    +0.000 A 
ATOM      6  C   UNL     1       5.990   4.763  17.145  0.00  0.00    +0.000 A 
ATOM      7  C   UNL     1       5.151   4.005  16.168  0.00  0.00    +0.000 C 
ATOM      8  C   UNL     1       5.546   4.634  14.808  0.00  0.00    +0.000 C 
ATOM      9  N   UNL     1       6.431   5.729  15.131  0.00  0.00    +0.000 N 
ATOM     10  H   UNL     1       6.854   6.370  14.446  0.00  0.00    +0.000 HD
ENDROOT
BRANCH   1  11
ATOM     11  O   UNL     1       5.245   3.688  19.106  0.00  0.00    +0.000 OA
BRANCH  11  15
ATOM     12  C   UNL     1       3.522   1.653  18.557  0.00  0.00    +0.000 C 
ATOM     13  N   UNL     1       3.047   2.901  19.134  0.00  0.00    +0.000 N 
ATOM     14  C   UNL     1       1.628   3.121  19.333  0.00  0.00    +0.000 C 
ATOM     15  C   UNL     1       3.947   3.881  19.433  0.00  0.00    +0.000 C 
ATOM     16  O   UNL     1       3.574   4.937  19.931  0.00  0.00    +0.000 OA
ENDBRANCH  11  15
ENDBRANCH   1  11
TORSDOF 2
ENDMDL
MODEL 7
REMARK VINA RESULT:      -6.3      1.840      1.964
REMARK  Name = 
REMARK  4 active torsions:
REMARK  status: ('A' for Active; 'I' for Inactive)
REMARK    1  A    between atoms: C_1  and  N_2
REMARK    2  A    between atoms: N_2  and  C_3
REMARK    3  A    between atoms: C_4  and  O_6
REMARK    4  A    between atoms: O_6  and  C_7
REMARK                            x       y       z     vdW  Elec       q    Type
REMARK                         _______ _______ _______ _____ _____    ______ ____
ROOT
ATOM      1  C   UNL     1       4.073   4.658  17.551  0.00  0.00    +0.000 A 
ATOM      2  C   UNL     1       3.532   5.883  18.011  0.00  0.00    +0.000 A 
ATOM      3  C   UNL     1       3.927   7.099  17.421  0.00  0.00    +0.000 A 
ATOM      4  C   UNL     1       4.852   7.105  16.365  0.00  0.00    +0.000 A 
ATOM      5  C   UNL     1       5.375   5.887  15.942  0.00  0.00    +0.000 A 
ATOM      6  C   UNL     1       5.012   4.705  16.519  0.00  0.00    +0.000 A 
ATOM      7  C   UNL     1       5.695   3.566  15.834  0.00  0.00    +0.000 C 
ATOM      8  C   UNL     1       6.611   4.276  14.805  0.00  0.00    +0.000 C 
ATOM      9  N   UNL     1       6.285   5.680  14.903  0.00  0.00    +0.000 N 
ATOM     10  H   UNL     1       6.704   6.426  14.329  0.00  0.00    +0.000 HD
ENDROOT
BRANCH   1  11
ATOM     11  O   UNL     1       3.686   3.438  17.999  0.00  0.00    +0.000 OA
BRANCH  11  15
ATOM     12  C   UNL     1       1.334   3.087  19.324  0.00  0.00    +0.000 C 
ATOM     13  N   UNL     1       2.609   2.871  19.991  0.00  0.00    +0.000 N 
ATOM     14  C   UNL     1       2.649   2.564  21.407  0.00  0.00    +0.000 C 
ATOM     15  C   UNL     1       3.764   3.017  19.282  0.00  0.00    +0.000 C 
ATOM     16  O   UNL     1       4.850   2.831  19.817  0.00  0.00    +0.000 OA
ENDBRANCH  11  15
ENDBRANCH   1  11
TORSDOF 2
ENDMDL
MODEL 8
REMARK VINA RESULT:      -6.2      1.618      2.625
REMARK  Name = 
REMARK  4 active torsions:
REMARK  status: ('A' for Active; 'I' for Inactive)
REMARK    1  A    between atoms: C_1  and  N_2
REMARK    2  A    between atoms: N_2  and  C_3
REMARK    3  A    between atoms: C_4  and  O_6
REMARK    4  A    between atoms: O_6  and  C_7
REMARK                            x       y       z     vdW  Elec       q    Type
REMARK                         _______ _______ _______ _____ _____    ______ ____
ROOT
ATOM      1  C   UNL     1       5.389   4.230  18.021  0.00  0.00    +0.000 A 
ATOM      2  C   UNL     1       4.756   3.773  16.839  0.00  0.00    +0.000 A 
ATOM      3  C   UNL     1       5.071   4.353  15.596  0.00  0.00    +0.000 A 
ATOM      4  C   UNL     1       6.023   5.381  15.515  0.00  0.00    +0.000 A 
ATOM      5  C   UNL     1       6.621   5.816  16.694  0.00  0.00    +0.000 A 
ATOM      6  C   UNL     1       6.309   5.273  17.907  0.00  0.00    +0.000 A 
ATOM      7  C   UNL     1       7.135   5.903  18.981  0.00  0.00    +0.000 C 
ATOM      8  C   UNL     1       7.930   6.992  18.217  0.00  0.00    +0.000 C 
ATOM      9  N   UNL     1       7.599   6.806  16.823  0.00  0.00    +0.000 N 
ATOM     10  H   UNL     1       7.984   7.358  16.044  0.00  0.00    +0.000 HD
ENDROOT
BRANCH   1  11
ATOM     11  O   UNL     1       5.213   3.672  19.244  0.00  0.00    +0.000 OA
BRANCH  11  15
ATOM     12  C   UNL     1       2.984   4.936  20.161  0.00  0.00    +0.000 C 
ATOM     13  N   UNL     1       3.053   3.483  20.106  0.00  0.00    +0.000 N 
ATOM     14  C   UNL     1       1.969   2.680  20.637  0.00  0.00    +0.000 C 
ATOM     15  C   UNL     1       4.170   2.888  19.601  0.00  0.00    +0.000 C 
ATOM     16  O   UNL     1       4.249   1.668  19.533  0.00  0.00    +0.000 OA
ENDBRANCH  11  15
ENDBRANCH   1  11
TORSDOF 2
ENDMDL
MODEL 9
REMARK VINA RESULT:      -6.1      2.085      5.181
REMARK  Name = 
REMARK  4 active torsions:
REMARK  status: ('A' for Active; 'I' for Inactive)
REMARK    1  A    between atoms: C_1  and  N_2
REMARK    2  A    between atoms: N_2  and  C_3
REMARK    3  A    between atoms: C_4  and  O_6
REMARK    4  A    between atoms: O_6  and  C_7
REMARK                            x       y       z     vdW  Elec       q    Type
REMARK                         _______ _______ _______ _____ _____    ______ ____
ROOT
ATOM      1  C   UNL     1       3.149   5.308  18.964  0.00  0.00    +0.000 A 
ATOM      2  C   UNL     1       2.446   5.953  20.011  0.00  0.00    +0.000 A 
ATOM      3  C   UNL     1       1.396   5.290  20.673  0.00  0.00    +0.000 A 
ATOM      4  C   UNL     1       1.044   3.980  20.309  0.00  0.00    +0.000 A 
ATOM      5  C   UNL     1       1.746   3.376  19.270  0.00  0.00    +0.000 A 
ATOM      6  C   UNL     1       2.753   4.017  18.609  0.00  0.00    +0.000 A 
ATOM      7  C   UNL     1       3.351   3.114  17.580  0.00  0.00    +0.000 C 
ATOM      8  C   UNL     1       2.460   1.848  17.667  0.00  0.00    +0.000 C 
ATOM      9  N   UNL     1       1.564   2.083  18.775  0.00  0.00    +0.000 N 
ATOM     10  H   UNL     1       0.855   1.417  19.114  0.00  0.00    +0.000 HD
ENDROOT
BRANCH   1  11
ATOM     11  O   UNL     1       4.227   5.835  18.333  0.00  0.00    +0.000 OA
BRANCH  11  15
ATOM     12  C   UNL     1       5.771   5.445  16.125  0.00  0.00    +0.000 C 
ATOM     13  N   UNL     1       6.303   5.220  17.461  0.00  0.00    +0.000 N 
ATOM     14  C   UNL     1       7.639   4.684  17.634  0.00  0.00    +0.000 C 
ATOM     15  C   UNL     1       5.512   5.467  18.543  0.00  0.00    +0.000 C 
ATOM     16  O   UNL     1       5.939   5.297  19.678  0.00  0.00    +0.000 OA
ENDBRANCH  11  15
ENDBRANCH   1  11
TORSDOF 2
ENDMDL
