MODEL 1
REMARK VINA RESULT:      -7.0      0.000      0.000
REMARK  Name = 
REMARK  10 active torsions:
REMARK  status: ('A' for Active; 'I' for Inactive)
REMARK    1  A    between atoms: C_1  and  C_2
REMARK    2  A    between atoms: C_5  and  N_6
REMARK    3  A    between atoms: N_9  and  C_10
REMARK    4  A    between atoms: C_10  and  C_11
REMARK    5  A    between atoms: C_11  and  N_12
REMARK    6  A    between atoms: C_13  and  C_15
REMARK    7  A    between atoms: C_15  and  C_16
REMARK    8  A    between atoms: C_16  and  C_17
REMARK    9  A    between atoms: C_17  and  C_18
REMARK   10  A    between atoms: C_18  and  N_19
REMARK                            x       y       z     vdW  Elec       q    Type
REMARK                         _______ _______ _______ _____ _____    ______ ____
ROOT
ATOM      1  N   UNL     1       2.795   4.343  18.284  0.00  0.00    +0.000 N 
ATOM      2  C   UNL     1       1.791   3.524  18.746  0.00  0.00    +0.000 C 
ATOM      3  O   UNL     1       1.357   2.581  18.094  0.00  0.00    +0.000 OA
ATOM      4  H   UNL     1       3.206   5.027  18.910  0.00  0.00    +0.000 HD
ENDROOT
BRANCH   1   5
ATOM      5  C   UNL     1       3.485   4.034  17.045  0.00  0.00    +0.000 C 
BRANCH   5   6
ATOM      6  C   UNL     1       4.916   3.543  17.274  0.00  0.00    +0.000 C 
BRANCH   6  12
ATOM      7  C   UNL     1       5.942   4.258  14.449  0.00  0.00    +0.000 C 
ATOM      8  C   UNL     1       6.364   4.914  15.716  0.00  0.00    +0.000 A 
ATOM      9  N   UNL     1       7.201   5.934  15.794  0.00  0.00    +0.000 NA
ATOM     10  C   UNL     1       7.280   6.270  17.119  0.00  0.00    +0.000 A 
ATOM     11  C   UNL     1       6.505   5.419  17.855  0.00  0.00    +0.000 A 
ATOM     12  N   UNL     1       5.915   4.553  16.975  0.00  0.00    +0.000 N 
BRANCH  11  13
ATOM     13  N   UNL     1       6.287   5.407  19.252  0.00  0.00    +0.000 N 
ATOM     14  O   UNL     1       5.126   5.584  19.632  0.00  0.00    +0.000 OA
ATOM     15  O   UNL     1       7.273   5.202  19.966  0.00  0.00    +0.000 OA
ENDBRANCH  11  13
ENDBRANCH   6  12
ENDBRANCH   5   6
ENDBRANCH   1   5
BRANCH   2  16
ATOM     16  C   UNL     1       1.235   3.925  20.095  0.00  0.00    +0.000 C 
BRANCH  16  17
ATOM     17  C   UNL     1       2.005   5.124  20.640  0.00  0.00    +0.000 C 
BRANCH  17  18
ATOM     18  C   UNL     1       1.076   6.273  21.011  0.00  0.00    +0.000 C 
BRANCH  18  19
ATOM     19  C   UNL     1       1.851   7.589  21.063  0.00  0.00    +0.000 C 
BRANCH  19  20
ATOM     20  N   UNL     1       1.760   8.328  19.818  0.00  0.00    +0.000 N 
ATOM     21  C   UNL     1       2.274   7.905  18.617  0.00  0.00    +0.000 A 
ATOM     22  C   UNL     1       1.899   8.868  17.705  0.00  0.00    +0.000 A 
ATOM     23  N   UNL     1       1.164   9.859  18.307  0.00  0.00    +0.000 NA
ATOM     24  C   UNL     1       1.109   9.502  19.574  0.00  0.00    +0.000 A 
ATOM     25  N   UNL     1       0.433  10.257  20.583  0.00  0.00    +0.000 N 
ATOM     26  O   UNL     1       1.082  10.531  21.602  0.00  0.00    +0.000 OA
ATOM     27  O   UNL     1      -0.757  10.527  20.384  0.00  0.00    +0.000 OA
ENDBRANCH  19  20
ENDBRANCH  18  19
ENDBRANCH  17  18
ENDBRANCH  16  17
ENDBRANCH   2  16
TORSDOF 9
ENDMDL
MODEL 2
REMARK VINA RESULT:      -7.0      1.551      7.115
REMARK  Name = 
REMARK  10 active torsions:
REMARK  status: ('A' for Active; 'I' for Inactive)
REMARK    1  A    between atoms: C_1  and  C_2
REMARK    2  A    between atoms: C_5  and  N_6
REMARK    3  A    between atoms: N_9  and  C_10
REMARK    4  A    between atoms: C_10  and  C_11
REMARK    5  A    between atoms: C_11  and  N_12
REMARK    6  A    between atoms: C_13  and  C_15
REMARK    7  A    between atoms: C_15  and  C_16
REMARK    8  A    between atoms: C_16  and  C_17
REMARK    9  A    between atoms: C_17  and  C_18
REMARK   10  A    between atoms: C_18  and  N_19
REMARK                            x       y       z     vdW  Elec       q    Type
REMARK                         _______ _______ _______ _____ _____    ______ ____
ROOT
ATOM      1  N   UNL     1       2.042   5.619  19.819  0.00  0.00    +0.000 N 
ATOM      2  C   UNL     1       1.875   4.262  19.980  0.00  0.00    +0.000 C 
ATOM      3  O   UNL     1       1.216   3.783  20.896  0.00  0.00    +0.000 OA
ATOM      4  H   UNL     1       2.487   5.967  18.976  0.00  0.00    +0.000 HD
ENDROOT
BRANCH   1   5
ATOM      5  C   UNL     1       1.320   6.553  20.662  0.00  0.00    +0.000 C 
BRANCH   5   6
ATOM      6  C   UNL     1       1.969   7.939  20.693  0.00  0.00    +0.000 C 
BRANCH   6  12
ATOM      7  C   UNL     1       1.858   9.032  17.805  0.00  0.00    +0.000 C 
ATOM      8  C   UNL     1       0.990   9.470  18.932  0.00  0.00    +0.000 A 
ATOM      9  N   UNL     1       0.013  10.355  18.830  0.00  0.00    +0.000 NA
ATOM     10  C   UNL     1      -0.566  10.435  20.068  0.00  0.00    +0.000 A 
ATOM     11  C   UNL     1       0.091   9.611  20.937  0.00  0.00    +0.000 A 
ATOM     12  N   UNL     1       1.082   8.990  20.228  0.00  0.00    +0.000 N 
BRANCH  11  13
ATOM     13  N   UNL     1      -0.176   9.376  22.306  0.00  0.00    +0.000 N 
ATOM     14  O   UNL     1      -0.931   8.436  22.569  0.00  0.00    +0.000 OA
ATOM     15  O   UNL     1       0.384  10.121  23.116  0.00  0.00    +0.000 OA
ENDBRANCH  11  13
ENDBRANCH   6  12
ENDBRANCH   5   6
ENDBRANCH   1   5
BRANCH   2  16
ATOM     16  C   UNL     1       2.620   3.421  18.966  0.00  0.00    +0.000 C 
BRANCH  16  17
ATOM     17  C   UNL     1       2.550   4.079  17.591  0.00  0.00    +0.000 C 
BRANCH  17  18
ATOM     18  C   UNL     1       3.871   4.736  17.209  0.00  0.00    +0.000 C 
BRANCH  18  19
ATOM     19  C   UNL     1       4.895   3.678  16.805  0.00  0.00    +0.000 C 
BRANCH  19  20
ATOM     20  N   UNL     1       5.898   4.203  15.899  0.00  0.00    +0.000 N 
ATOM     21  C   UNL     1       5.855   4.087  14.531  0.00  0.00    +0.000 A 
ATOM     22  C   UNL     1       6.953   4.783  14.075  0.00  0.00    +0.000 A 
ATOM     23  N   UNL     1       7.660   5.329  15.118  0.00  0.00    +0.000 NA
ATOM     24  C   UNL     1       6.999   4.952  16.194  0.00  0.00    +0.000 A 
ATOM     25  N   UNL     1       7.387   5.298  17.526  0.00  0.00    +0.000 N 
ATOM     26  O   UNL     1       7.486   4.366  18.336  0.00  0.00    +0.000 OA
ATOM     27  O   UNL     1       7.538   6.499  17.776  0.00  0.00    +0.000 OA
ENDBRANCH  19  20
ENDBRANCH  18  19
ENDBRANCH  17  18
ENDBRANCH  16  17
ENDBRANCH   2  16
TORSDOF 9
ENDMDL
MODEL 3
REMARK VINA RESULT:      -6.9      5.456      7.597
REMARK  Name = 
REMARK  10 active torsions:
REMARK  status: ('A' for Active; 'I' for Inactive)
REMARK    1  A    between atoms: C_1  and  C_2
REMARK    2  A    between atoms: C_5  and  N_6
REMARK    3  A    between atoms: N_9  and  C_10
REMARK    4  A    between atoms: C_10  and  C_11
REMARK    5  A    between atoms: C_11  and  N_12
REMARK    6  A    between atoms: C_13  and  C_15
REMARK    7  A    between atoms: C_15  and  C_16
REMARK    8  A    between atoms: C_16  and  C_17
REMARK    9  A    between atoms: C_17  and  C_18
REMARK   10  A    between atoms: C_18  and  N_19
REMARK                            x       y       z     vdW  Elec       q    Type
REMARK                         _______ _______ _______ _____ _____    ______ ____
ROOT
ATOM      1  N   UNL     1       6.610   7.284  17.104  0.00  0.00    +0.000 N 
ATOM      2  C   UNL     1       7.683   7.703  17.857  0.00  0.00    +0.000 C 
ATOM      3  O   UNL     1       8.233   6.980  18.681  0.00  0.00    +0.000 OA
ATOM      4  H   UNL     1       6.274   7.873  16.349  0.00  0.00    +0.000 HD
ENDROOT
BRANCH   1   5
ATOM      5  C   UNL     1       6.168   5.903  17.159  0.00  0.00    +0.000 C 
BRANCH   5   6
ATOM      6  C   UNL     1       4.671   5.753  16.881  0.00  0.00    +0.000 C 
BRANCH   6  12
ATOM      7  C   UNL     1       2.847   8.069  17.807  0.00  0.00    +0.000 C 
ATOM      8  C   UNL     1       3.016   6.766  18.506  0.00  0.00    +0.000 A 
ATOM      9  N   UNL     1       2.361   6.405  19.595  0.00  0.00    +0.000 NA
ATOM     10  C   UNL     1       2.762   5.128  19.883  0.00  0.00    +0.000 A 
ATOM     11  C   UNL     1       3.696   4.724  18.972  0.00  0.00    +0.000 A 
ATOM     12  N   UNL     1       3.867   5.756  18.089  0.00  0.00    +0.000 N 
BRANCH  11  13
ATOM     13  N   UNL     1       4.367   3.483  18.885  0.00  0.00    +0.000 N 
ATOM     14  O   UNL     1       5.411   3.370  19.535  0.00  0.00    +0.000 OA
ATOM     15  O   UNL     1       3.841   2.616  18.181  0.00  0.00    +0.000 OA
ENDBRANCH  11  13
ENDBRANCH   6  12
ENDBRANCH   5   6
ENDBRANCH   1   5
BRANCH   2  16
ATOM     16  C   UNL     1       8.082   9.143  17.620  0.00  0.00    +0.000 C 
BRANCH  16  17
ATOM     17  C   UNL     1       8.851   9.676  18.827  0.00  0.00    +0.000 C 
BRANCH  17  18
ATOM     18  C   UNL     1       9.857  10.749  18.430  0.00  0.00    +0.000 C 
BRANCH  18  19
ATOM     19  C   UNL     1       9.315  12.137  18.764  0.00  0.00    +0.000 C 
BRANCH  19  20
ATOM     20  N   UNL     1      10.091  13.192  18.143  0.00  0.00    +0.000 N 
ATOM     21  C   UNL     1      11.301  13.012  17.518  0.00  0.00    +0.000 A 
ATOM     22  C   UNL     1      11.637  14.251  17.017  0.00  0.00    +0.000 A 
ATOM     23  N   UNL     1      10.668  15.179  17.304  0.00  0.00    +0.000 NA
ATOM     24  C   UNL     1       9.762  14.508  17.986  0.00  0.00    +0.000 A 
ATOM     25  N   UNL     1       8.562  15.090  18.498  0.00  0.00    +0.000 N 
ATOM     26  O   UNL     1       8.323  14.907  19.701  0.00  0.00    +0.000 OA
ATOM     27  O   UNL     1       7.831  15.679  17.693  0.00  0.00    +0.000 OA
ENDBRANCH  19  20
ENDBRANCH  18  19
ENDBRANCH  17  18
ENDBRANCH  16  17
ENDBRANCH   2  16
TORSDOF 9
ENDMDL
MODEL 4
REMARK VINA RESULT:      -6.9      2.921      7.652
REMARK  Name = 
REMARK  10 active torsions:
REMARK  status: ('A' for Active; 'I' for Inactive)
REMARK    1  A    between atoms: C_1  and  C_2
REMARK    2  A    between atoms: C_5  and  N_6
REMARK    3  A    between atoms: N_9  and  C_10
REMARK    4  A    between atoms: C_10  and  C_11
REMARK    5  A    between atoms: C_11  and  N_12
REMARK    6  A    between atoms: C_13  and  C_15
REMARK    7  A    between atoms: C_15  and  C_16
REMARK    8  A    between atoms: C_16  and  C_17
REMARK    9  A    between atoms: C_17  and  C_18
REMARK   10  A    between atoms: C_18  and  N_19
REMARK                            x       y       z     vdW  Elec       q    Type
REMARK                         _______ _______ _______ _____ _____    ______ ____
ROOT
ATOM      1  N   UNL     1       2.101   8.387  18.534  0.00  0.00    +0.000 N 
ATOM      2  C   UNL     1       2.993   7.739  17.712  0.00  0.00    +0.000 C 
ATOM      3  O   UNL     1       3.302   8.168  16.605  0.00  0.00    +0.000 OA
ATOM      4  H   UNL     1       1.977   8.061  19.487  0.00  0.00    +0.000 HD
ENDROOT
BRANCH   1   5
ATOM      5  C   UNL     1       1.588   9.696  18.175  0.00  0.00    +0.000 C 
BRANCH   5   6
ATOM      6  C   UNL     1       0.140   9.904  18.624  0.00  0.00    +0.000 C 
BRANCH   6  12
ATOM      7  C   UNL     1      -0.313  12.954  18.823  0.00  0.00    +0.000 C 
ATOM      8  C   UNL     1      -0.206  12.016  19.973  0.00  0.00    +0.000 A 
ATOM      9  N   UNL     1      -0.345  12.362  21.242  0.00  0.00    +0.000 NA
ATOM     10  C   UNL     1      -0.229  11.209  21.972  0.00  0.00    +0.000 A 
ATOM     11  C   UNL     1       0.017  10.158  21.135  0.00  0.00    +0.000 A 
ATOM     12  N   UNL     1       0.032  10.657  19.860  0.00  0.00    +0.000 N 
BRANCH  11  13
ATOM     13  N   UNL     1       0.194   8.793  21.458  0.00  0.00    +0.000 N 
ATOM     14  O   UNL     1       1.351   8.365  21.436  0.00  0.00    +0.000 OA
ATOM     15  O   UNL     1      -0.823   8.156  21.750  0.00  0.00    +0.000 OA
ENDBRANCH  11  13
ENDBRANCH   6  12
ENDBRANCH   5   6
ENDBRANCH   1   5
BRANCH   2  16
ATOM     16  C   UNL     1       3.510   6.430  18.267  0.00  0.00    +0.000 C 
BRANCH  16  17
ATOM     17  C   UNL     1       2.351   5.605  18.820  0.00  0.00    +0.000 C 
BRANCH  17  18
ATOM     18  C   UNL     1       1.863   4.567  17.818  0.00  0.00    +0.000 C 
BRANCH  18  19
ATOM     19  C   UNL     1       2.292   3.167  18.250  0.00  0.00    +0.000 C 
BRANCH  19  20
ATOM     20  N   UNL     1       2.222   2.991  19.687  0.00  0.00    +0.000 N 
ATOM     21  C   UNL     1       1.067   3.043  20.428  0.00  0.00    +0.000 A 
ATOM     22  C   UNL     1       1.452   2.754  21.719  0.00  0.00    +0.000 A 
ATOM     23  N   UNL     1       2.802   2.516  21.790  0.00  0.00    +0.000 NA
ATOM     24  C   UNL     1       3.229   2.676  20.554  0.00  0.00    +0.000 A 
ATOM     25  N   UNL     1       4.594   2.526  20.159  0.00  0.00    +0.000 N 
ATOM     26  O   UNL     1       5.094   3.459  19.515  0.00  0.00    +0.000 OA
ATOM     27  O   UNL     1       5.150   1.458  20.442  0.00  0.00    +0.000 OA
ENDBRANCH  19  20
ENDBRANCH  18  19
ENDBRANCH  17  18
ENDBRANCH  16  17
ENDBRANCH   2  16
TORSDOF 9
ENDMDL
MODEL 5
REMARK VINA RESULT:      -6.8      1.093      1.252
REMARK  Name = 
REMARK  10 active torsions:
REMARK  status: ('A' for Active; 'I' for Inactive)
REMARK    1  A    between atoms: C_1  and  C_2
REMARK    2  A    between atoms: C_5  and  N_6
REMARK    3  A    between atoms: N_9  and  C_10
REMARK    4  A    between atoms: C_10  and  C_11
REMARK    5  A    between atoms: C_11  and  N_12
REMARK    6  A    between atoms: C_13  and  C_15
REMARK    7  A    between atoms: C_15  and  C_16
REMARK    8  A    between atoms: C_16  and  C_17
REMARK    9  A    between atoms: C_17  and  C_18
REMARK   10  A    between atoms: C_18  and  N_19
REMARK                            x       y       z     vdW  Elec       q    Type
REMARK                         _______ _______ _______ _____ _____    ______ ____
ROOT
ATOM      1  N   UNL     1       2.562   3.769  18.188  0.00  0.00    +0.000 N 
ATOM      2  C   UNL     1       1.781   2.846  18.844  0.00  0.00    +0.000 C 
ATOM      3  O   UNL     1       1.703   1.675  18.488  0.00  0.00    +0.000 OA
ATOM      4  H   UNL     1       2.693   4.688  18.596  0.00  0.00    +0.000 HD
ENDROOT
BRANCH   1   5
ATOM      5  C   UNL     1       3.445   3.353  17.113  0.00  0.00    +0.000 C 
BRANCH   5   6
ATOM      6  C   UNL     1       4.198   4.527  16.483  0.00  0.00    +0.000 C 
BRANCH   6  12
ATOM      7  C   UNL     1       6.310   4.412  14.231  0.00  0.00    +0.000 C 
ATOM      8  C   UNL     1       6.599   4.435  15.690  0.00  0.00    +0.000 A 
ATOM      9  N   UNL     1       7.811   4.464  16.218  0.00  0.00    +0.000 NA
ATOM     10  C   UNL     1       7.641   4.532  17.575  0.00  0.00    +0.000 A 
ATOM     11  C   UNL     1       6.308   4.512  17.872  0.00  0.00    +0.000 A 
ATOM     12  N   UNL     1       5.634   4.452  16.683  0.00  0.00    +0.000 N 
BRANCH  11  13
ATOM     13  N   UNL     1       5.683   4.573  19.139  0.00  0.00    +0.000 N 
ATOM     14  O   UNL     1       5.342   3.498  19.641  0.00  0.00    +0.000 OA
ATOM     15  O   UNL     1       5.551   5.695  19.639  0.00  0.00    +0.000 OA
ENDBRANCH  11  13
ENDBRANCH   6  12
ENDBRANCH   5   6
ENDBRANCH   1   5
BRANCH   2  16
ATOM     16  C   UNL     1       0.988   3.415  20.000  0.00  0.00    +0.000 C 
BRANCH  16  17
ATOM     17  C   UNL     1       1.921   3.732  21.166  0.00  0.00    +0.000 C 
BRANCH  17  18
ATOM     18  C   UNL     1       2.464   5.154  21.087  0.00  0.00    +0.000 C 
BRANCH  18  19
ATOM     19  C   UNL     1       1.343   6.134  20.747  0.00  0.00    +0.000 C 
BRANCH  19  20
ATOM     20  N   UNL     1       1.774   7.157  19.815  0.00  0.00    +0.000 N 
ATOM     21  C   UNL     1       2.449   6.916  18.643  0.00  0.00    +0.000 A 
ATOM     22  C   UNL     1       2.590   8.151  18.047  0.00  0.00    +0.000 A 
ATOM     23  N   UNL     1       2.014   9.136  18.809  0.00  0.00    +0.000 NA
ATOM     24  C   UNL     1       1.543   8.502  19.864  0.00  0.00    +0.000 A 
ATOM     25  N   UNL     1       0.855   9.147  20.937  0.00  0.00    +0.000 N 
ATOM     26  O   UNL     1       1.270   8.917  22.082  0.00  0.00    +0.000 OA
ATOM     27  O   UNL     1      -0.128   9.837  20.645  0.00  0.00    +0.000 OA
ENDBRANCH  19  20
ENDBRANCH  18  19
ENDBRANCH  17  18
ENDBRANCH  16  17
ENDBRANCH   2  16
TORSDOF 9
ENDMDL
MODEL 6
REMARK VINA RESULT:      -6.7      4.771      7.037
REMARK  Name = 
REMARK  10 active torsions:
REMARK  status: ('A' for Active; 'I' for Inactive)
REMARK    1  A    between atoms: C_1  and  C_2
REMARK    2  A    between atoms: C_5  and  N_6
REMARK    3  A    between atoms: N_9  and  C_10
REMARK    4  A    between atoms: C_10  and  C_11
REMARK    5  A    between atoms: C_11  and  N_12
REMARK    6  A    between atoms: C_13  and  C_15
REMARK    7  A    between atoms: C_15  and  C_16
REMARK    8  A    between atoms: C_16  and  C_17
REMARK    9  A    between atoms: C_17  and  C_18
REMARK   10  A    between atoms: C_18  and  N_19
REMARK                            x       y       z     vdW  Elec       q    Type
REMARK                         _______ _______ _______ _____ _____    ______ ____
ROOT
ATOM      1  N   UNL     1       6.019   5.783  17.030  0.00  0.00    +0.000 N 
ATOM      2  C   UNL     1       7.091   6.306  17.715  0.00  0.00    +0.000 C 
ATOM      3  O   UNL     1       7.748   5.647  18.515  0.00  0.00    +0.000 OA
ATOM      4  H   UNL     1       5.590   6.327  16.289  0.00  0.00    +0.000 HD
ENDROOT
BRANCH   1   5
ATOM      5  C   UNL     1       5.703   4.370  17.127  0.00  0.00    +0.000 C 
BRANCH   5   6
ATOM      6  C   UNL     1       4.197   4.105  17.177  0.00  0.00    +0.000 C 
BRANCH   6  12
ATOM      7  C   UNL     1       2.785   6.678  18.144  0.00  0.00    +0.000 C 
ATOM      8  C   UNL     1       2.962   5.434  18.941  0.00  0.00    +0.000 A 
ATOM      9  N   UNL     1       2.488   5.247  20.161  0.00  0.00    +0.000 NA
ATOM     10  C   UNL     1       2.820   3.966  20.513  0.00  0.00    +0.000 A 
ATOM     11  C   UNL     1       3.533   3.383  19.505  0.00  0.00    +0.000 A 
ATOM     12  N   UNL     1       3.630   4.305  18.498  0.00  0.00    +0.000 N 
BRANCH  11  13
ATOM     13  N   UNL     1       4.064   2.075  19.440  0.00  0.00    +0.000 N 
ATOM     14  O   UNL     1       5.018   1.827  20.183  0.00  0.00    +0.000 OA
ATOM     15  O   UNL     1       3.515   1.291  18.660  0.00  0.00    +0.000 OA
ENDBRANCH  11  13
ENDBRANCH   6  12
ENDBRANCH   5   6
ENDBRANCH   1   5
BRANCH   2  16
ATOM     16  C   UNL     1       7.349   7.771  17.440  0.00  0.00    +0.000 C 
BRANCH  16  17
ATOM     17  C   UNL     1       8.454   8.287  18.357  0.00  0.00    +0.000 C 
BRANCH  17  18
ATOM     18  C   UNL     1       8.674   9.786  18.192  0.00  0.00    +0.000 C 
BRANCH  18  19
ATOM     19  C   UNL     1       9.344  10.366  19.435  0.00  0.00    +0.000 C 
BRANCH  19  20
ATOM     20  N   UNL     1       9.991  11.635  19.168  0.00  0.00    +0.000 N 
ATOM     21  C   UNL     1      10.850  11.872  18.123  0.00  0.00    +0.000 A 
ATOM     22  C   UNL     1      11.164  13.211  18.209  0.00  0.00    +0.000 A 
ATOM     23  N   UNL     1      10.518  13.803  19.266  0.00  0.00    +0.000 NA
ATOM     24  C   UNL     1       9.831  12.824  19.819  0.00  0.00    +0.000 A 
ATOM     25  N   UNL     1       9.000  12.989  20.971  0.00  0.00    +0.000 N 
ATOM     26  O   UNL     1       9.189  12.205  21.911  0.00  0.00    +0.000 OA
ATOM     27  O   UNL     1       8.125  13.861  20.916  0.00  0.00    +0.000 OA
ENDBRANCH  19  20
ENDBRANCH  18  19
ENDBRANCH  17  18
ENDBRANCH  16  17
ENDBRANCH   2  16
TORSDOF 9
ENDMDL
MODEL 7
REMARK VINA RESULT:      -6.7      2.602      5.213
REMARK  Name = 
REMARK  10 active torsions:
REMARK  status: ('A' for Active; 'I' for Inactive)
REMARK    1  A    between atoms: C_1  and  C_2
REMARK    2  A    between atoms: C_5  and  N_6
REMARK    3  A    between atoms: N_9  and  C_10
REMARK    4  A    between atoms: C_10  and  C_11
REMARK    5  A    between atoms: C_11  and  N_12
REMARK    6  A    between atoms: C_13  and  C_15
REMARK    7  A    between atoms: C_15  and  C_16
REMARK    8  A    between atoms: C_16  and  C_17
REMARK    9  A    between atoms: C_17  and  C_18
REMARK   10  A    between atoms: C_18  and  N_19
REMARK                            x       y       z     vdW  Elec       q    Type
REMARK                         _______ _______ _______ _____ _____    ______ ____
ROOT
ATOM      1  N   UNL     1       3.358   5.903  18.963  0.00  0.00    +0.000 N 
ATOM      2  C   UNL     1       2.368   6.702  19.487  0.00  0.00    +0.000 C 
ATOM      3  O   UNL     1       2.032   7.761  18.969  0.00  0.00    +0.000 OA
ATOM      4  H   UNL     1       3.511   4.980  19.355  0.00  0.00    +0.000 HD
ENDROOT
BRANCH   1   5
ATOM      5  C   UNL     1       3.957   6.222  17.680  0.00  0.00    +0.000 C 
BRANCH   5   6
ATOM      6  C   UNL     1       5.375   6.781  17.815  0.00  0.00    +0.000 C 
BRANCH   6  12
ATOM      7  C   UNL     1       7.814   5.785  19.429  0.00  0.00    +0.000 C 
ATOM      8  C   UNL     1       7.473   5.384  18.038  0.00  0.00    +0.000 A 
ATOM      9  N   UNL     1       8.146   4.499  17.323  0.00  0.00    +0.000 NA
ATOM     10  C   UNL     1       7.482   4.379  16.131  0.00  0.00    +0.000 A 
ATOM     11  C   UNL     1       6.411   5.227  16.115  0.00  0.00    +0.000 A 
ATOM     12  N   UNL     1       6.392   5.871  17.321  0.00  0.00    +0.000 N 
BRANCH  11  13
ATOM     13  N   UNL     1       5.453   5.420  15.094  0.00  0.00    +0.000 N 
ATOM     14  O   UNL     1       4.862   4.414  14.691  0.00  0.00    +0.000 OA
ATOM     15  O   UNL     1       5.279   6.580  14.709  0.00  0.00    +0.000 OA
ENDBRANCH  11  13
ENDBRANCH   6  12
ENDBRANCH   5   6
ENDBRANCH   1   5
BRANCH   2  16
ATOM     16  C   UNL     1       1.779   6.189  20.783  0.00  0.00    +0.000 C 
BRANCH  16  17
ATOM     17  C   UNL     1       2.369   4.822  21.119  0.00  0.00    +0.000 C 
BRANCH  17  18
ATOM     18  C   UNL     1       1.293   3.747  21.212  0.00  0.00    +0.000 C 
BRANCH  18  19
ATOM     19  C   UNL     1       1.849   2.398  20.760  0.00  0.00    +0.000 C 
BRANCH  19  20
ATOM     20  N   UNL     1       2.347   2.438  19.399  0.00  0.00    +0.000 N 
ATOM     21  C   UNL     1       1.557   2.424  18.276  0.00  0.00    +0.000 A 
ATOM     22  C   UNL     1       2.431   2.547  17.218  0.00  0.00    +0.000 A 
ATOM     23  N   UNL     1       3.728   2.646  17.658  0.00  0.00    +0.000 NA
ATOM     24  C   UNL     1       3.636   2.569  18.970  0.00  0.00    +0.000 A 
ATOM     25  N   UNL     1       4.760   2.626  19.850  0.00  0.00    +0.000 N 
ATOM     26  O   UNL     1       4.860   1.717  20.686  0.00  0.00    +0.000 OA
ATOM     27  O   UNL     1       5.511   3.604  19.745  0.00  0.00    +0.000 OA
ENDBRANCH  19  20
ENDBRANCH  18  19
ENDBRANCH  17  18
ENDBRANCH  16  17
ENDBRANCH   2  16
TORSDOF 9
ENDMDL
MODEL 8
REMARK VINA RESULT:      -6.7      2.870      7.889
REMARK  Name = 
REMARK  10 active torsions:
REMARK  status: ('A' for Active; 'I' for Inactive)
REMARK    1  A    between atoms: C_1  and  C_2
REMARK    2  A    between atoms: C_5  and  N_6
REMARK    3  A    between atoms: N_9  and  C_10
REMARK    4  A    between atoms: C_10  and  C_11
REMARK    5  A    between atoms: C_11  and  N_12
REMARK    6  A    between atoms: C_13  and  C_15
REMARK    7  A    between atoms: C_15  and  C_16
REMARK    8  A    between atoms: C_16  and  C_17
REMARK    9  A    between atoms: C_17  and  C_18
REMARK   10  A    between atoms: C_18  and  N_19
REMARK                            x       y       z     vdW  Elec       q    Type
REMARK                         _______ _______ _______ _____ _____    ______ ____
ROOT
ATOM      1  N   UNL     1       2.120   8.171  18.805  0.00  0.00    +0.000 N 
ATOM      2  C   UNL     1       2.275   6.965  19.449  0.00  0.00    +0.000 C 
ATOM      3  O   UNL     1       1.814   6.748  20.564  0.00  0.00    +0.000 OA
ATOM      4  H   UNL     1       2.409   8.257  17.836  0.00  0.00    +0.000 HD
ENDROOT
BRANCH   1   5
ATOM      5  C   UNL     1       1.274   9.204  19.374  0.00  0.00    +0.000 C 
BRANCH   5   6
ATOM      6  C   UNL     1       1.002  10.347  18.393  0.00  0.00    +0.000 C 
BRANCH   6  12
ATOM      7  C   UNL     1      -1.809   9.887  17.195  0.00  0.00    +0.000 C 
ATOM      8  C   UNL     1      -1.463  10.898  18.231  0.00  0.00    +0.000 A 
ATOM      9  N   UNL     1      -2.331  11.703  18.818  0.00  0.00    +0.000 NA
ATOM     10  C   UNL     1      -1.624  12.432  19.736  0.00  0.00    +0.000 A 
ATOM     11  C   UNL     1      -0.304  12.085  19.680  0.00  0.00    +0.000 A 
ATOM     12  N   UNL     1      -0.187  11.109  18.728  0.00  0.00    +0.000 N 
BRANCH  11  13
ATOM     13  N   UNL     1       0.773  12.576  20.452  0.00  0.00    +0.000 N 
ATOM     14  O   UNL     1       0.957  12.041  21.549  0.00  0.00    +0.000 OA
ATOM     15  O   UNL     1       1.444  13.485  19.954  0.00  0.00    +0.000 OA
ENDBRANCH  11  13
ENDBRANCH   6  12
ENDBRANCH   5   6
ENDBRANCH   1   5
BRANCH   2  16
ATOM     16  C   UNL     1       3.109   5.958  18.687  0.00  0.00    +0.000 C 
BRANCH  16  17
ATOM     17  C   UNL     1       2.199   4.969  17.963  0.00  0.00    +0.000 C 
BRANCH  17  18
ATOM     18  C   UNL     1       2.971   3.762  17.446  0.00  0.00    +0.000 C 
BRANCH  18  19
ATOM     19  C   UNL     1       2.471   2.483  18.115  0.00  0.00    +0.000 C 
BRANCH  19  20
ATOM     20  N   UNL     1       2.310   2.641  19.547  0.00  0.00    +0.000 N 
ATOM     21  C   UNL     1       1.106   2.812  20.186  0.00  0.00    +0.000 A 
ATOM     22  C   UNL     1       1.411   2.845  21.529  0.00  0.00    +0.000 A 
ATOM     23  N   UNL     1       2.760   2.690  21.733  0.00  0.00    +0.000 NA
ATOM     24  C   UNL     1       3.264   2.578  20.521  0.00  0.00    +0.000 A 
ATOM     25  N   UNL     1       4.657   2.401  20.254  0.00  0.00    +0.000 N 
ATOM     26  O   UNL     1       5.172   3.181  19.441  0.00  0.00    +0.000 OA
ATOM     27  O   UNL     1       5.223   1.452  20.810  0.00  0.00    +0.000 OA
ENDBRANCH  19  20
ENDBRANCH  18  19
ENDBRANCH  17  18
ENDBRANCH  16  17
ENDBRANCH   2  16
TORSDOF 9
ENDMDL
MODEL 9
REMARK VINA RESULT:      -6.7      1.864      7.368
REMARK  Name = 
REMARK  10 active torsions:
REMARK  status: ('A' for Active; 'I' for Inactive)
REMARK    1  A    between atoms: C_1  and  C_2
REMARK    2  A    between atoms: C_5  and  N_6
REMARK    3  A    between atoms: N_9  and  C_10
REMARK    4  A    between atoms: C_10  and  C_11
REMARK    5  A    between atoms: C_11  and  N_12
REMARK    6  A    between atoms: C_13  and  C_15
REMARK    7  A    between atoms: C_15  and  C_16
REMARK    8  A    between atoms: C_16  and  C_17
REMARK    9  A    between atoms: C_17  and  C_18
REMARK   10  A    between atoms: C_18  and  N_19
REMARK                            x       y       z     vdW  Elec       q    Type
REMARK                         _______ _______ _______ _____ _____    ______ ____
ROOT
ATOM      1  N   UNL     1       2.096   6.120  20.705  0.00  0.00    +0.000 N 
ATOM      2  C   UNL     1       1.809   4.805  20.417  0.00  0.00    +0.000 C 
ATOM      3  O   UNL     1       0.662   4.372  20.383  0.00  0.00    +0.000 OA
ATOM      4  H   UNL     1       3.047   6.456  20.595  0.00  0.00    +0.000 HD
ENDROOT
BRANCH   1   5
ATOM      5  C   UNL     1       1.027   7.091  20.847  0.00  0.00    +0.000 C 
BRANCH   5   6
ATOM      6  C   UNL     1       1.547   8.525  20.968  0.00  0.00    +0.000 C 
BRANCH   6  12
ATOM      7  C   UNL     1      -0.070   9.518  23.406  0.00  0.00    +0.000 C 
ATOM      8  C   UNL     1      -0.224  10.003  22.008  0.00  0.00    +0.000 A 
ATOM      9  N   UNL     1      -1.044  10.969  21.632  0.00  0.00    +0.000 NA
ATOM     10  C   UNL     1      -0.846  11.144  20.288  0.00  0.00    +0.000 A 
ATOM     11  C   UNL     1       0.083  10.248  19.841  0.00  0.00    +0.000 A 
ATOM     12  N   UNL     1       0.488   9.517  20.924  0.00  0.00    +0.000 N 
BRANCH  11  13
ATOM     13  N   UNL     1       0.594  10.083  18.533  0.00  0.00    +0.000 N 
ATOM     14  O   UNL     1       1.742  10.489  18.332  0.00  0.00    +0.000 OA
ATOM     15  O   UNL     1      -0.147   9.531  17.714  0.00  0.00    +0.000 OA
ENDBRANCH  11  13
ENDBRANCH   6  12
ENDBRANCH   5   6
ENDBRANCH   1   5
BRANCH   2  16
ATOM     16  C   UNL     1       3.029   3.936  20.205  0.00  0.00    +0.000 C 
BRANCH  16  17
ATOM     17  C   UNL     1       3.079   3.450  18.759  0.00  0.00    +0.000 C 
BRANCH  17  18
ATOM     18  C   UNL     1       3.183   4.609  17.774  0.00  0.00    +0.000 C 
BRANCH  18  19
ATOM     19  C   UNL     1       4.422   5.450  18.072  0.00  0.00    +0.000 C 
BRANCH  19  20
ATOM     20  N   UNL     1       5.577   5.013  17.312  0.00  0.00    +0.000 N 
ATOM     21  C   UNL     1       5.522   4.417  16.077  0.00  0.00    +0.000 A 
ATOM     22  C   UNL     1       6.836   4.239  15.702  0.00  0.00    +0.000 A 
ATOM     23  N   UNL     1       7.692   4.717  16.663  0.00  0.00    +0.000 NA
ATOM     24  C   UNL     1       6.899   5.165  17.615  0.00  0.00    +0.000 A 
ATOM     25  N   UNL     1       7.370   5.757  18.828  0.00  0.00    +0.000 N 
ATOM     26  O   UNL     1       6.916   5.295  19.885  0.00  0.00    +0.000 OA
ATOM     27  O   UNL     1       8.146   6.714  18.726  0.00  0.00    +0.000 OA
ENDBRANCH  19  20
ENDBRANCH  18  19
ENDBRANCH  17  18
ENDBRANCH  16  17
ENDBRANCH   2  16
TORSDOF 9
ENDMDL
