MODEL 1
REMARK VINA RESULT:      -7.6      0.000      0.000
REMARK  Name = 
REMARK  11 active torsions:
REMARK  status: ('A' for Active; 'I' for Inactive)
REMARK    1  A    between atoms: C_1  and  O_2
REMARK    2  A    between atoms: O_2  and  C_3
REMARK    3  A    between atoms: C_9  and  C_10
REMARK    4  A    between atoms: C_13  and  O_14
REMARK    5  A    between atoms: O_14  and  C_15
REMARK    6  A    between atoms: C_16  and  C_17
REMARK    7  A    between atoms: C_17  and  C_18
REMARK    8  A    between atoms: C_17  and  C_22
REMARK    9  A    between atoms: C_18  and  C_19
REMARK   10  A    between atoms: C_19  and  O_21
REMARK   11  A    between atoms: C_25  and  C_26
REMARK                            x       y       z     vdW  Elec       q    Type
REMARK                         _______ _______ _______ _____ _____    ______ ____
ROOT
ATOM      1  C   UNL     1       2.091   6.114  20.102  0.00  0.00    +0.000 A 
ATOM      2  C   UNL     1       1.456   4.978  20.614  0.00  0.00    +0.000 A 
ATOM      3  C   UNL     1       1.988   3.696  20.441  0.00  0.00    +0.000 A 
ATOM      4  C   UNL     1       3.153   3.497  19.700  0.00  0.00    +0.000 A 
ATOM      5  C   UNL     1       3.758   4.595  19.063  0.00  0.00    +0.000 A 
ATOM      6  C   UNL     1       3.235   5.885  19.311  0.00  0.00    +0.000 A 
ENDROOT
BRANCH   1  13
ATOM      7  C   UNL     1       1.467   8.488  19.342  0.00  0.00    +0.000 A 
ATOM      8  C   UNL     1       0.934   9.755  19.636  0.00  0.00    +0.000 A 
ATOM      9  C   UNL     1       0.520  10.066  20.929  0.00  0.00    +0.000 A 
ATOM     10  C   UNL     1       0.638   9.117  21.933  0.00  0.00    +0.000 A 
ATOM     11 CL   UNL     1       0.099   9.487  23.523  0.00  0.00    +0.000 Cl
ATOM     12  C   UNL     1       1.169   7.857  21.654  0.00  0.00    +0.000 A 
ATOM     13  C   UNL     1       1.581   7.496  20.351  0.00  0.00    +0.000 A 
BRANCH   7  15
ATOM     14  C   UNL     1       2.800   8.984  17.447  0.00  0.00    +0.000 C 
ATOM     15  O   UNL     1       1.807   8.158  18.051  0.00  0.00    +0.000 OA
ENDBRANCH   7  15
ENDBRANCH   1  13
BRANCH   4  16
ATOM     16  O   UNL     1       3.726   2.261  19.533  0.00  0.00    +0.000 OA
ATOM     17  C   UNL     1       4.628   1.863  20.568  0.00  0.00    +0.000 C 
ENDBRANCH   4  16
BRANCH   5  18
ATOM     18  C   UNL     1       4.895   4.412  18.056  0.00  0.00    +0.000 C 
BRANCH  18  19
ATOM     19  C   UNL     1       6.052   5.394  18.202  0.00  0.00    +0.000 A 
ATOM     20  N   UNL     1       7.104   5.182  18.978  0.00  0.00    +0.000 NA
ATOM     21  C   UNL     1       7.958   6.266  18.923  0.00  0.00    +0.000 A 
ATOM     22  C   UNL     1       7.566   7.291  18.089  0.00  0.00    +0.000 A 
ATOM     23  C   UNL     1       8.255   8.573  17.795  0.00  0.00    +0.000 C 
ATOM     24  S   UNL     1       6.063   6.899  17.364  0.00  0.00    +0.000 S 
ENDBRANCH  18  19
BRANCH  18  25
ATOM     25  C   UNL     1       4.366   4.396  16.603  0.00  0.00    +0.000 C 
BRANCH  25  26
ATOM     26  C   UNL     1       5.365   4.061  15.517  0.00  0.00    +0.000 C 
ATOM     27  O   UNL     1       5.455   4.700  14.474  0.00  0.00    +0.000 OA
BRANCH  26  28
ATOM     28  O   UNL     1       6.109   2.955  15.719  0.00  0.00    +0.000 OA
ATOM     29  H   UNL     1       5.872   2.206  15.118  0.00  0.00    +0.000 HD
ENDBRANCH  26  28
ENDBRANCH  25  26
ENDBRANCH  18  25
ENDBRANCH   5  18
TORSDOF 8
ENDMDL
MODEL 2
REMARK VINA RESULT:      -7.4      4.082      7.744
REMARK  Name = 
REMARK  11 active torsions:
REMARK  status: ('A' for Active; 'I' for Inactive)
REMARK    1  A    between atoms: C_1  and  O_2
REMARK    2  A    between atoms: O_2  and  C_3
REMARK    3  A    between atoms: C_9  and  C_10
REMARK    4  A    between atoms: C_13  and  O_14
REMARK    5  A    between atoms: O_14  and  C_15
REMARK    6  A    between atoms: C_16  and  C_17
REMARK    7  A    between atoms: C_17  and  C_18
REMARK    8  A    between atoms: C_17  and  C_22
REMARK    9  A    between atoms: C_18  and  C_19
REMARK   10  A    between atoms: C_19  and  O_21
REMARK   11  A    between atoms: C_25  and  C_26
REMARK                            x       y       z     vdW  Elec       q    Type
REMARK                         _______ _______ _______ _____ _____    ______ ____
ROOT
ATOM      1  C   UNL     1       2.507   6.875  19.180  0.00  0.00    +0.000 A 
ATOM      2  C   UNL     1       2.176   6.492  20.483  0.00  0.00    +0.000 A 
ATOM      3  C   UNL     1       1.302   7.245  21.273  0.00  0.00    +0.000 A 
ATOM      4  C   UNL     1       0.765   8.445  20.805  0.00  0.00    +0.000 A 
ATOM      5  C   UNL     1       1.167   8.932  19.549  0.00  0.00    +0.000 A 
ATOM      6  C   UNL     1       1.998   8.117  18.748  0.00  0.00    +0.000 A 
ENDROOT
BRANCH   1  13
ATOM      7  C   UNL     1       2.930   4.845  17.661  0.00  0.00    +0.000 A 
ATOM      8  C   UNL     1       3.782   4.130  16.803  0.00  0.00    +0.000 A 
ATOM      9  C   UNL     1       5.083   4.570  16.568  0.00  0.00    +0.000 A 
ATOM     10  C   UNL     1       5.538   5.722  17.189  0.00  0.00    +0.000 A 
ATOM     11 CL   UNL     1       7.132   6.285  16.878  0.00  0.00    +0.000 Cl
ATOM     12  C   UNL     1       4.703   6.438  18.048  0.00  0.00    +0.000 A 
ATOM     13  C   UNL     1       3.371   6.037  18.295  0.00  0.00    +0.000 A 
BRANCH   7  15
ATOM     14  C   UNL     1       1.440   3.238  18.562  0.00  0.00    +0.000 C 
ATOM     15  O   UNL     1       1.624   4.450  17.834  0.00  0.00    +0.000 OA
ENDBRANCH   7  15
ENDBRANCH   1  13
BRANCH   4  16
ATOM     16  O   UNL     1      -0.120   9.198  21.534  0.00  0.00    +0.000 OA
ATOM     17  C   UNL     1       0.245   9.415  22.899  0.00  0.00    +0.000 C 
ENDBRANCH   4  16
BRANCH   5  18
ATOM     18  C   UNL     1       0.798  10.342  19.080  0.00  0.00    +0.000 C 
BRANCH  18  19
ATOM     19  C   UNL     1      -0.582  10.472  18.447  0.00  0.00    +0.000 A 
ATOM     20  N   UNL     1      -0.971   9.788  17.382  0.00  0.00    +0.000 NA
ATOM     21  C   UNL     1      -2.257  10.151  17.030  0.00  0.00    +0.000 A 
ATOM     22  C   UNL     1      -2.852  11.093  17.841  0.00  0.00    +0.000 A 
ATOM     23  C   UNL     1      -4.212  11.681  17.750  0.00  0.00    +0.000 C 
ATOM     24  S   UNL     1      -1.758  11.563  19.075  0.00  0.00    +0.000 S 
ENDBRANCH  18  19
BRANCH  18  25
ATOM     25  C   UNL     1       1.887  10.931  18.153  0.00  0.00    +0.000 C 
BRANCH  25  26
ATOM     26  C   UNL     1       2.285  12.370  18.398  0.00  0.00    +0.000 C 
ATOM     27  O   UNL     1       1.734  13.081  19.231  0.00  0.00    +0.000 OA
BRANCH  26  28
ATOM     28  O   UNL     1       3.238  12.867  17.585  0.00  0.00    +0.000 OA
ATOM     29  H   UNL     1       3.192  13.850  17.478  0.00  0.00    +0.000 HD
ENDBRANCH  26  28
ENDBRANCH  25  26
ENDBRANCH  18  25
ENDBRANCH   5  18
TORSDOF 8
ENDMDL
MODEL 3
REMARK VINA RESULT:      -7.2      1.282      1.362
REMARK  Name = 
REMARK  11 active torsions:
REMARK  status: ('A' for Active; 'I' for Inactive)
REMARK    1  A    between atoms: C_1  and  O_2
REMARK    2  A    between atoms: O_2  and  C_3
REMARK    3  A    between atoms: C_9  and  C_10
REMARK    4  A    between atoms: C_13  and  O_14
REMARK    5  A    between atoms: O_14  and  C_15
REMARK    6  A    between atoms: C_16  and  C_17
REMARK    7  A    between atoms: C_17  and  C_18
REMARK    8  A    between atoms: C_17  and  C_22
REMARK    9  A    between atoms: C_18  and  C_19
REMARK   10  A    between atoms: C_19  and  O_21
REMARK   11  A    between atoms: C_25  and  C_26
REMARK                            x       y       z     vdW  Elec       q    Type
REMARK                         _______ _______ _______ _____ _____    ______ ____
ROOT
ATOM      1  C   UNL     1       1.957   6.049  20.392  0.00  0.00    +0.000 A 
ATOM      2  C   UNL     1       1.276   5.006  21.027  0.00  0.00    +0.000 A 
ATOM      3  C   UNL     1       1.748   3.690  20.995  0.00  0.00    +0.000 A 
ATOM      4  C   UNL     1       2.897   3.358  20.277  0.00  0.00    +0.000 A 
ATOM      5  C   UNL     1       3.545   4.350  19.520  0.00  0.00    +0.000 A 
ATOM      6  C   UNL     1       3.083   5.682  19.627  0.00  0.00    +0.000 A 
ENDROOT
BRANCH   1  13
ATOM      7  C   UNL     1       1.563   8.390  19.407  0.00  0.00    +0.000 A 
ATOM      8  C   UNL     1       1.084   9.702  19.555  0.00  0.00    +0.000 A 
ATOM      9  C   UNL     1       0.561  10.133  20.772  0.00  0.00    +0.000 A 
ATOM     10  C   UNL     1       0.518   9.257  21.846  0.00  0.00    +0.000 A 
ATOM     11 CL   UNL     1      -0.154   9.775  23.341  0.00  0.00    +0.000 Cl
ATOM     12  C   UNL     1       0.995   7.953  21.713  0.00  0.00    +0.000 A 
ATOM     13  C   UNL     1       1.512   7.471  20.489  0.00  0.00    +0.000 A 
BRANCH   7  15
ATOM     14  C   UNL     1       2.799   8.873  17.443  0.00  0.00    +0.000 C 
ATOM     15  O   UNL     1       2.011   7.945  18.185  0.00  0.00    +0.000 OA
ENDBRANCH   7  15
ENDBRANCH   1  13
BRANCH   4  16
ATOM     16  O   UNL     1       3.412   2.086  20.245  0.00  0.00    +0.000 OA
ATOM     17  C   UNL     1       4.687   1.929  20.871  0.00  0.00    +0.000 C 
ENDBRANCH   4  16
BRANCH   5  18
ATOM     18  C   UNL     1       4.664   4.006  18.535  0.00  0.00    +0.000 C 
BRANCH  18  19
ATOM     19  C   UNL     1       5.810   5.009  18.483  0.00  0.00    +0.000 A 
ATOM     20  N   UNL     1       6.884   4.941  19.256  0.00  0.00    +0.000 NA
ATOM     21  C   UNL     1       7.722   6.008  18.997  0.00  0.00    +0.000 A 
ATOM     22  C   UNL     1       7.296   6.874  18.012  0.00  0.00    +0.000 A 
ATOM     23  C   UNL     1       7.959   8.094  17.488  0.00  0.00    +0.000 C 
ATOM     24  S   UNL     1       5.781   6.350  17.403  0.00  0.00    +0.000 S 
ENDBRANCH  18  19
BRANCH  18  25
ATOM     25  C   UNL     1       4.106   3.733  17.119  0.00  0.00    +0.000 C 
BRANCH  25  26
ATOM     26  C   UNL     1       2.732   3.103  17.038  0.00  0.00    +0.000 C 
ATOM     27  O   UNL     1       1.717   3.747  16.795  0.00  0.00    +0.000 OA
BRANCH  26  28
ATOM     28  O   UNL     1       2.665   1.789  17.332  0.00  0.00    +0.000 OA
ATOM     29  H   UNL     1       2.139   1.594  18.147  0.00  0.00    +0.000 HD
ENDBRANCH  26  28
ENDBRANCH  25  26
ENDBRANCH  18  25
ENDBRANCH   5  18
TORSDOF 8
ENDMDL
MODEL 4
REMARK VINA RESULT:      -7.2      4.319      8.129
REMARK  Name = 
REMARK  11 active torsions:
REMARK  status: ('A' for Active; 'I' for Inactive)
REMARK    1  A    between atoms: C_1  and  O_2
REMARK    2  A    between atoms: O_2  and  C_3
REMARK    3  A    between atoms: C_9  and  C_10
REMARK    4  A    between atoms: C_13  and  O_14
REMARK    5  A    between atoms: O_14  and  C_15
REMARK    6  A    between atoms: C_16  and  C_17
REMARK    7  A    between atoms: C_17  and  C_18
REMARK    8  A    between atoms: C_17  and  C_22
REMARK    9  A    between atoms: C_18  and  C_19
REMARK   10  A    between atoms: C_19  and  O_21
REMARK   11  A    between atoms: C_25  and  C_26
REMARK                            x       y       z     vdW  Elec       q    Type
REMARK                         _______ _______ _______ _____ _____    ______ ____
ROOT
ATOM      1  C   UNL     1       1.888   7.765  19.949  0.00  0.00    +0.000 A 
ATOM      2  C   UNL     1       1.854   7.804  21.347  0.00  0.00    +0.000 A 
ATOM      3  C   UNL     1       1.193   8.822  22.040  0.00  0.00    +0.000 A 
ATOM      4  C   UNL     1       0.582   9.875  21.358  0.00  0.00    +0.000 A 
ATOM      5  C   UNL     1       0.696   9.944  19.959  0.00  0.00    +0.000 A 
ATOM      6  C   UNL     1       1.313   8.866  19.283  0.00  0.00    +0.000 A 
ENDROOT
BRANCH   1  13
ATOM      7  C   UNL     1       2.253   5.270  19.458  0.00  0.00    +0.000 A 
ATOM      8  C   UNL     1       2.844   4.262  18.678  0.00  0.00    +0.000 A 
ATOM      9  C   UNL     1       3.712   4.587  17.639  0.00  0.00    +0.000 A 
ATOM     10  C   UNL     1       3.996   5.918  17.376  0.00  0.00    +0.000 A 
ATOM     11 CL   UNL     1       5.044   6.326  16.075  0.00  0.00    +0.000 Cl
ATOM     12  C   UNL     1       3.419   6.929  18.147  0.00  0.00    +0.000 A 
ATOM     13  C   UNL     1       2.516   6.640  19.195  0.00  0.00    +0.000 A 
BRANCH   7  15
ATOM     14  C   UNL     1       1.179   3.556  20.693  0.00  0.00    +0.000 C 
ATOM     15  O   UNL     1       1.340   4.949  20.435  0.00  0.00    +0.000 OA
ENDBRANCH   7  15
ENDBRANCH   1  13
BRANCH   4  16
ATOM     16  O   UNL     1      -0.104  10.877  21.998  0.00  0.00    +0.000 OA
ATOM     17  C   UNL     1      -0.939  10.450  23.077  0.00  0.00    +0.000 C 
ENDBRANCH   4  16
BRANCH   5  18
ATOM     18  C   UNL     1       0.252  11.183  19.177  0.00  0.00    +0.000 C 
BRANCH  18  19
ATOM     19  C   UNL     1      -1.084  11.047  18.456  0.00  0.00    +0.000 A 
ATOM     20  N   UNL     1      -1.285  10.238  17.426  0.00  0.00    +0.000 NA
ATOM     21  C   UNL     1      -2.583  10.365  16.971  0.00  0.00    +0.000 A 
ATOM     22  C   UNL     1      -3.374  11.253  17.669  0.00  0.00    +0.000 A 
ATOM     23  C   UNL     1      -4.799  11.608  17.452  0.00  0.00    +0.000 C 
ATOM     24  S   UNL     1      -2.456  11.975  18.925  0.00  0.00    +0.000 S 
ENDBRANCH  18  19
BRANCH  18  25
ATOM     25  C   UNL     1       1.356  11.664  18.207  0.00  0.00    +0.000 C 
BRANCH  25  26
ATOM     26  C   UNL     1       2.249  12.785  18.693  0.00  0.00    +0.000 C 
ATOM     27  O   UNL     1       2.334  13.104  19.874  0.00  0.00    +0.000 OA
BRANCH  26  28
ATOM     28  O   UNL     1       2.896  13.483  17.739  0.00  0.00    +0.000 OA
ATOM     29  H   UNL     1       3.607  12.965  17.286  0.00  0.00    +0.000 HD
ENDBRANCH  26  28
ENDBRANCH  25  26
ENDBRANCH  18  25
ENDBRANCH   5  18
TORSDOF 8
ENDMDL
MODEL 5
REMARK VINA RESULT:      -7.2      4.969      8.184
REMARK  Name = 
REMARK  11 active torsions:
REMARK  status: ('A' for Active; 'I' for Inactive)
REMARK    1  A    between atoms: C_1  and  O_2
REMARK    2  A    between atoms: O_2  and  C_3
REMARK    3  A    between atoms: C_9  and  C_10
REMARK    4  A    between atoms: C_13  and  O_14
REMARK    5  A    between atoms: O_14  and  C_15
REMARK    6  A    between atoms: C_16  and  C_17
REMARK    7  A    between atoms: C_17  and  C_18
REMARK    8  A    between atoms: C_17  and  C_22
REMARK    9  A    between atoms: C_18  and  C_19
REMARK   10  A    between atoms: C_19  and  O_21
REMARK   11  A    between atoms: C_25  and  C_26
REMARK                            x       y       z     vdW  Elec       q    Type
REMARK                         _______ _______ _______ _____ _____    ______ ____
ROOT
ATOM      1  C   UNL     1      -1.953  12.130  19.363  0.00  0.00    +0.000 A 
ATOM      2  C   UNL     1      -1.404  13.392  19.613  0.00  0.00    +0.000 A 
ATOM      3  C   UNL     1      -0.100  13.547  20.093  0.00  0.00    +0.000 A 
ATOM      4  C   UNL     1       0.690  12.436  20.394  0.00  0.00    +0.000 A 
ATOM      5  C   UNL     1       0.137  11.149  20.278  0.00  0.00    +0.000 A 
ATOM      6  C   UNL     1      -1.159  11.023  19.727  0.00  0.00    +0.000 A 
ENDROOT
BRANCH   1  13
ATOM      7  C   UNL     1      -3.541  11.498  17.445  0.00  0.00    +0.000 A 
ATOM      8  C   UNL     1      -4.848  11.307  16.966  0.00  0.00    +0.000 A 
ATOM      9  C   UNL     1      -5.947  11.574  17.779  0.00  0.00    +0.000 A 
ATOM     10  C   UNL     1      -5.746  12.034  19.071  0.00  0.00    +0.000 A 
ATOM     11 CL   UNL     1      -7.098  12.336  20.089  0.00  0.00    +0.000 Cl
ATOM     12  C   UNL     1      -4.452  12.232  19.557  0.00  0.00    +0.000 A 
ATOM     13  C   UNL     1      -3.312  11.952  18.771  0.00  0.00    +0.000 A 
BRANCH   7  15
ATOM     14  C   UNL     1      -2.767  10.636  15.377  0.00  0.00    +0.000 C 
ATOM     15  O   UNL     1      -2.458  11.164  16.666  0.00  0.00    +0.000 OA
ENDBRANCH   7  15
ENDBRANCH   1  13
BRANCH   4  16
ATOM     16  O   UNL     1       1.984  12.544  20.838  0.00  0.00    +0.000 OA
ATOM     17  C   UNL     1       2.510  13.873  20.867  0.00  0.00    +0.000 C 
ENDBRANCH   4  16
BRANCH   5  18
ATOM     18  C   UNL     1       0.866   9.912  20.807  0.00  0.00    +0.000 C 
BRANCH  18  19
ATOM     19  C   UNL     1       1.477   9.014  19.737  0.00  0.00    +0.000 A 
ATOM     20  N   UNL     1       1.661   9.389  18.480  0.00  0.00    +0.000 NA
ATOM     21  C   UNL     1       2.200   8.346  17.751  0.00  0.00    +0.000 A 
ATOM     22  C   UNL     1       2.445   7.189  18.458  0.00  0.00    +0.000 A 
ATOM     23  C   UNL     1       3.026   5.907  17.984  0.00  0.00    +0.000 C 
ATOM     24  S   UNL     1       1.963   7.400  20.090  0.00  0.00    +0.000 S 
ENDBRANCH  18  19
BRANCH  18  25
ATOM     25  C   UNL     1      -0.032   9.095  21.765  0.00  0.00    +0.000 C 
BRANCH  25  26
ATOM     26  C   UNL     1      -0.240   9.661  23.153  0.00  0.00    +0.000 C 
ATOM     27  O   UNL     1       0.586   9.541  24.052  0.00  0.00    +0.000 OA
BRANCH  26  28
ATOM     28  O   UNL     1      -1.434  10.242  23.382  0.00  0.00    +0.000 OA
ATOM     29  H   UNL     1      -2.043  10.211  22.603  0.00  0.00    +0.000 HD
ENDBRANCH  26  28
ENDBRANCH  25  26
ENDBRANCH  18  25
ENDBRANCH   5  18
TORSDOF 8
ENDMDL
MODEL 6
REMARK VINA RESULT:      -7.1      2.961      4.474
REMARK  Name = 
REMARK  11 active torsions:
REMARK  status: ('A' for Active; 'I' for Inactive)
REMARK    1  A    between atoms: C_1  and  O_2
REMARK    2  A    between atoms: O_2  and  C_3
REMARK    3  A    between atoms: C_9  and  C_10
REMARK    4  A    between atoms: C_13  and  O_14
REMARK    5  A    between atoms: O_14  and  C_15
REMARK    6  A    between atoms: C_16  and  C_17
REMARK    7  A    between atoms: C_17  and  C_18
REMARK    8  A    between atoms: C_17  and  C_22
REMARK    9  A    between atoms: C_18  and  C_19
REMARK   10  A    between atoms: C_19  and  O_21
REMARK   11  A    between atoms: C_25  and  C_26
REMARK                            x       y       z     vdW  Elec       q    Type
REMARK                         _______ _______ _______ _____ _____    ______ ____
ROOT
ATOM      1  C   UNL     1       1.233   9.379  19.228  0.00  0.00    +0.000 A 
ATOM      2  C   UNL     1       0.919   8.786  20.455  0.00  0.00    +0.000 A 
ATOM      3  C   UNL     1       1.465   7.558  20.841  0.00  0.00    +0.000 A 
ATOM      4  C   UNL     1       2.310   6.849  19.986  0.00  0.00    +0.000 A 
ATOM      5  C   UNL     1       2.555   7.346  18.695  0.00  0.00    +0.000 A 
ATOM      6  C   UNL     1       2.042   8.620  18.359  0.00  0.00    +0.000 A 
ENDROOT
BRANCH   1  13
ATOM      7  C   UNL     1      -0.636  11.002  18.537  0.00  0.00    +0.000 A 
ATOM      8  C   UNL     1      -1.055  12.306  18.223  0.00  0.00    +0.000 A 
ATOM      9  C   UNL     1      -0.139  13.355  18.188  0.00  0.00    +0.000 A 
ATOM     10  C   UNL     1       1.196  13.106  18.463  0.00  0.00    +0.000 A 
ATOM     11 CL   UNL     1       2.324  14.403  18.451  0.00  0.00    +0.000 Cl
ATOM     12  C   UNL     1       1.625  11.815  18.772  0.00  0.00    +0.000 A 
ATOM     13  C   UNL     1       0.724  10.728  18.839  0.00  0.00    +0.000 A 
BRANCH   7  15
ATOM     14  C   UNL     1      -2.458   9.853  17.549  0.00  0.00    +0.000 C 
ATOM     15  O   UNL     1      -1.553   9.982  18.643  0.00  0.00    +0.000 OA
ENDBRANCH   7  15
ENDBRANCH   1  13
BRANCH   4  16
ATOM     16  O   UNL     1       2.893   5.657  20.338  0.00  0.00    +0.000 OA
ATOM     17  C   UNL     1       2.080   4.794  21.137  0.00  0.00    +0.000 C 
ENDBRANCH   4  16
BRANCH   5  18
ATOM     18  C   UNL     1       3.278   6.510  17.636  0.00  0.00    +0.000 C 
BRANCH  18  19
ATOM     19  C   UNL     1       3.054   5.007  17.735  0.00  0.00    +0.000 A 
ATOM     20  N   UNL     1       1.877   4.425  17.561  0.00  0.00    +0.000 NA
ATOM     21  C   UNL     1       1.991   3.061  17.749  0.00  0.00    +0.000 A 
ATOM     22  C   UNL     1       3.258   2.605  18.043  0.00  0.00    +0.000 A 
ATOM     23  C   UNL     1       3.719   1.214  18.284  0.00  0.00    +0.000 C 
ATOM     24  S   UNL     1       4.344   3.929  18.112  0.00  0.00    +0.000 S 
ENDBRANCH  18  19
BRANCH  18  25
ATOM     25  C   UNL     1       4.789   6.841  17.591  0.00  0.00    +0.000 C 
BRANCH  25  26
ATOM     26  C   UNL     1       5.487   6.660  16.261  0.00  0.00    +0.000 C 
ATOM     27  O   UNL     1       4.966   6.952  15.190  0.00  0.00    +0.000 OA
BRANCH  26  28
ATOM     28  O   UNL     1       6.700   6.074  16.305  0.00  0.00    +0.000 OA
ATOM     29  H   UNL     1       7.032   5.789  15.418  0.00  0.00    +0.000 HD
ENDBRANCH  26  28
ENDBRANCH  25  26
ENDBRANCH  18  25
ENDBRANCH   5  18
TORSDOF 8
ENDMDL
MODEL 7
REMARK VINA RESULT:      -7.0      3.918      7.336
REMARK  Name = 
REMARK  11 active torsions:
REMARK  status: ('A' for Active; 'I' for Inactive)
REMARK    1  A    between atoms: C_1  and  O_2
REMARK    2  A    between atoms: O_2  and  C_3
REMARK    3  A    between atoms: C_9  and  C_10
REMARK    4  A    between atoms: C_13  and  O_14
REMARK    5  A    between atoms: O_14  and  C_15
REMARK    6  A    between atoms: C_16  and  C_17
REMARK    7  A    between atoms: C_17  and  C_18
REMARK    8  A    between atoms: C_17  and  C_22
REMARK    9  A    between atoms: C_18  and  C_19
REMARK   10  A    between atoms: C_19  and  O_21
REMARK   11  A    between atoms: C_25  and  C_26
REMARK                            x       y       z     vdW  Elec       q    Type
REMARK                         _______ _______ _______ _____ _____    ______ ____
ROOT
ATOM      1  C   UNL     1       2.397   7.161  19.062  0.00  0.00    +0.000 A 
ATOM      2  C   UNL     1       2.160   6.963  20.425  0.00  0.00    +0.000 A 
ATOM      3  C   UNL     1       1.337   7.819  21.163  0.00  0.00    +0.000 A 
ATOM      4  C   UNL     1       0.760   8.944  20.572  0.00  0.00    +0.000 A 
ATOM      5  C   UNL     1       1.071   9.253  19.237  0.00  0.00    +0.000 A 
ATOM      6  C   UNL     1       1.851   8.333  18.500  0.00  0.00    +0.000 A 
ENDROOT
BRANCH   1  13
ATOM      7  C   UNL     1       2.747   4.922  17.851  0.00  0.00    +0.000 A 
ATOM      8  C   UNL     1       3.540   4.093  17.040  0.00  0.00    +0.000 A 
ATOM      9  C   UNL     1       4.798   4.512  16.615  0.00  0.00    +0.000 A 
ATOM     10  C   UNL     1       5.271   5.757  17.000  0.00  0.00    +0.000 A 
ATOM     11 CL   UNL     1       6.810   6.291  16.454  0.00  0.00    +0.000 Cl
ATOM     12  C   UNL     1       4.494   6.587  17.810  0.00  0.00    +0.000 A 
ATOM     13  C   UNL     1       3.204   6.208  18.243  0.00  0.00    +0.000 A 
BRANCH   7  15
ATOM     14  C   UNL     1       1.290   3.137  18.407  0.00  0.00    +0.000 C 
ATOM     15  O   UNL     1       1.475   4.536  18.208  0.00  0.00    +0.000 OA
ENDBRANCH   7  15
ENDBRANCH   1  13
BRANCH   4  16
ATOM     16  O   UNL     1      -0.078   9.793  21.251  0.00  0.00    +0.000 OA
ATOM     17  C   UNL     1      -0.378   9.407  22.594  0.00  0.00    +0.000 C 
ENDBRANCH   4  16
BRANCH   5  18
ATOM     18  C   UNL     1       0.660  10.585  18.604  0.00  0.00    +0.000 C 
BRANCH  18  19
ATOM     19  C   UNL     1       1.425  11.803  19.107  0.00  0.00    +0.000 A 
ATOM     20  N   UNL     1       1.262  12.329  20.312  0.00  0.00    +0.000 NA
ATOM     21  C   UNL     1       2.069  13.441  20.456  0.00  0.00    +0.000 A 
ATOM     22  C   UNL     1       2.861  13.746  19.370  0.00  0.00    +0.000 A 
ATOM     23  C   UNL     1       3.839  14.851  19.206  0.00  0.00    +0.000 C 
ATOM     24  S   UNL     1       2.571  12.618  18.112  0.00  0.00    +0.000 S 
ENDBRANCH  18  19
BRANCH  18  25
ATOM     25  C   UNL     1      -0.866  10.812  18.707  0.00  0.00    +0.000 C 
BRANCH  25  26
ATOM     26  C   UNL     1      -1.654  10.743  17.416  0.00  0.00    +0.000 C 
ATOM     27  O   UNL     1      -2.035   9.687  16.924  0.00  0.00    +0.000 OA
BRANCH  26  28
ATOM     28  O   UNL     1      -1.849  11.915  16.779  0.00  0.00    +0.000 OA
ATOM     29  H   UNL     1      -1.349  12.669  17.180  0.00  0.00    +0.000 HD
ENDBRANCH  26  28
ENDBRANCH  25  26
ENDBRANCH  18  25
ENDBRANCH   5  18
TORSDOF 8
ENDMDL
MODEL 8
REMARK VINA RESULT:      -7.0      4.047      7.593
REMARK  Name = 
REMARK  11 active torsions:
REMARK  status: ('A' for Active; 'I' for Inactive)
REMARK    1  A    between atoms: C_1  and  O_2
REMARK    2  A    between atoms: O_2  and  C_3
REMARK    3  A    between atoms: C_9  and  C_10
REMARK    4  A    between atoms: C_13  and  O_14
REMARK    5  A    between atoms: O_14  and  C_15
REMARK    6  A    between atoms: C_16  and  C_17
REMARK    7  A    between atoms: C_17  and  C_18
REMARK    8  A    between atoms: C_17  and  C_22
REMARK    9  A    between atoms: C_18  and  C_19
REMARK   10  A    between atoms: C_19  and  O_21
REMARK   11  A    between atoms: C_25  and  C_26
REMARK                            x       y       z     vdW  Elec       q    Type
REMARK                         _______ _______ _______ _____ _____    ______ ____
ROOT
ATOM      1  C   UNL     1       2.166   7.260  19.115  0.00  0.00    +0.000 A 
ATOM      2  C   UNL     1       2.122   7.281  20.513  0.00  0.00    +0.000 A 
ATOM      3  C   UNL     1       1.376   8.235  21.212  0.00  0.00    +0.000 A 
ATOM      4  C   UNL     1       0.686   9.243  20.536  0.00  0.00    +0.000 A 
ATOM      5  C   UNL     1       0.803   9.336  19.139  0.00  0.00    +0.000 A 
ATOM      6  C   UNL     1       1.509   8.319  18.456  0.00  0.00    +0.000 A 
ENDROOT
BRANCH   1  13
ATOM      7  C   UNL     1       2.511   4.828  18.360  0.00  0.00    +0.000 A 
ATOM      8  C   UNL     1       3.207   3.888  17.582  0.00  0.00    +0.000 A 
ATOM      9  C   UNL     1       4.292   4.278  16.801  0.00  0.00    +0.000 A 
ATOM     10  C   UNL     1       4.687   5.606  16.794  0.00  0.00    +0.000 A 
ATOM     11 CL   UNL     1       6.006   6.098  15.807  0.00  0.00    +0.000 Cl
ATOM     12  C   UNL     1       4.007   6.550  17.565  0.00  0.00    +0.000 A 
ATOM     13  C   UNL     1       2.888   6.197  18.354  0.00  0.00    +0.000 A 
BRANCH   7  15
ATOM     14  C   UNL     1       1.065   3.069  19.014  0.00  0.00    +0.000 C 
ATOM     15  O   UNL     1       1.396   4.455  19.073  0.00  0.00    +0.000 OA
ENDBRANCH   7  15
ENDBRANCH   1  13
BRANCH   4  16
ATOM     16  O   UNL     1      -0.082  10.179  21.182  0.00  0.00    +0.000 OA
ATOM     17  C   UNL     1      -0.318   9.923  22.568  0.00  0.00    +0.000 C 
ENDBRANCH   4  16
BRANCH   5  18
ATOM     18  C   UNL     1       0.265  10.543  18.366  0.00  0.00    +0.000 C 
BRANCH  18  19
ATOM     19  C   UNL     1       0.966  11.863  18.661  0.00  0.00    +0.000 A 
ATOM     20  N   UNL     1       2.262  12.065  18.479  0.00  0.00    +0.000 NA
ATOM     21  C   UNL     1       2.601  13.347  18.868  0.00  0.00    +0.000 A 
ATOM     22  C   UNL     1       1.558  14.125  19.324  0.00  0.00    +0.000 A 
ATOM     23  C   UNL     1       1.578  15.533  19.797  0.00  0.00    +0.000 C 
ATOM     24  S   UNL     1       0.105  13.216  19.289  0.00  0.00    +0.000 S 
ENDBRANCH  18  19
BRANCH  18  25
ATOM     25  C   UNL     1      -1.266  10.682  18.532  0.00  0.00    +0.000 C 
BRANCH  25  26
ATOM     26  C   UNL     1      -2.094  10.660  17.265  0.00  0.00    +0.000 C 
ATOM     27  O   UNL     1      -2.774   9.696  16.930  0.00  0.00    +0.000 OA
BRANCH  26  28
ATOM     28  O   UNL     1      -1.980  11.740  16.466  0.00  0.00    +0.000 OA
ATOM     29  H   UNL     1      -1.755  12.570  16.956  0.00  0.00    +0.000 HD
ENDBRANCH  26  28
ENDBRANCH  25  26
ENDBRANCH  18  25
ENDBRANCH   5  18
TORSDOF 8
ENDMDL
MODEL 9
REMARK VINA RESULT:      -7.0      4.250      7.897
REMARK  Name = 
REMARK  11 active torsions:
REMARK  status: ('A' for Active; 'I' for Inactive)
REMARK    1  A    between atoms: C_1  and  O_2
REMARK    2  A    between atoms: O_2  and  C_3
REMARK    3  A    between atoms: C_9  and  C_10
REMARK    4  A    between atoms: C_13  and  O_14
REMARK    5  A    between atoms: O_14  and  C_15
REMARK    6  A    between atoms: C_16  and  C_17
REMARK    7  A    between atoms: C_17  and  C_18
REMARK    8  A    between atoms: C_17  and  C_22
REMARK    9  A    between atoms: C_18  and  C_19
REMARK   10  A    between atoms: C_19  and  O_21
REMARK   11  A    between atoms: C_25  and  C_26
REMARK                            x       y       z     vdW  Elec       q    Type
REMARK                         _______ _______ _______ _____ _____    ______ ____
ROOT
ATOM      1  C   UNL     1       1.750   7.991  19.734  0.00  0.00    +0.000 A 
ATOM      2  C   UNL     1       1.486   8.051  21.106  0.00  0.00    +0.000 A 
ATOM      3  C   UNL     1       0.653   9.031  21.654  0.00  0.00    +0.000 A 
ATOM      4  C   UNL     1       0.093  10.026  20.852  0.00  0.00    +0.000 A 
ATOM      5  C   UNL     1       0.430  10.080  19.489  0.00  0.00    +0.000 A 
ATOM      6  C   UNL     1       1.220   9.037  18.952  0.00  0.00    +0.000 A 
ENDROOT
BRANCH   1  13
ATOM      7  C   UNL     1       2.581   5.563  19.600  0.00  0.00    +0.000 A 
ATOM      8  C   UNL     1       3.338   4.575  18.950  0.00  0.00    +0.000 A 
ATOM      9  C   UNL     1       4.105   4.892  17.831  0.00  0.00    +0.000 A 
ATOM     10  C   UNL     1       4.120   6.196  17.360  0.00  0.00    +0.000 A 
ATOM     11 CL   UNL     1       5.041   6.586  15.961  0.00  0.00    +0.000 Cl
ATOM     12  C   UNL     1       3.376   7.187  18.000  0.00  0.00    +0.000 A 
ATOM     13  C   UNL     1       2.568   6.900  19.124  0.00  0.00    +0.000 A 
BRANCH   7  15
ATOM     14  C   UNL     1       1.881   3.889  21.126  0.00  0.00    +0.000 C 
ATOM     15  O   UNL     1       1.767   5.232  20.659  0.00  0.00    +0.000 OA
ENDBRANCH   7  15
ENDBRANCH   1  13
BRANCH   4  16
ATOM     16  O   UNL     1      -0.755  10.987  21.344  0.00  0.00    +0.000 OA
ATOM     17  C   UNL     1      -0.856  11.039  22.769  0.00  0.00    +0.000 C 
ENDBRANCH   4  16
BRANCH   5  18
ATOM     18  C   UNL     1       0.037  11.270  18.610  0.00  0.00    +0.000 C 
BRANCH  18  19
ATOM     19  C   UNL     1       0.695  12.593  18.982  0.00  0.00    +0.000 A 
ATOM     20  N   UNL     1       1.959  12.704  19.365  0.00  0.00    +0.000 NA
ATOM     21  C   UNL     1       2.247  14.021  19.665  0.00  0.00    +0.000 A 
ATOM     22  C   UNL     1       1.211  14.913  19.489  0.00  0.00    +0.000 A 
ATOM     23  C   UNL     1       1.193  16.382  19.704  0.00  0.00    +0.000 C 
ATOM     24  S   UNL     1      -0.184  14.073  18.952  0.00  0.00    +0.000 S 
ENDBRANCH  18  19
BRANCH  18  25
ATOM     25  C   UNL     1      -1.499  11.424  18.522  0.00  0.00    +0.000 C 
BRANCH  25  26
ATOM     26  C   UNL     1      -2.174  10.842  17.299  0.00  0.00    +0.000 C 
ATOM     27  O   UNL     1      -2.591   9.690  17.253  0.00  0.00    +0.000 OA
BRANCH  26  28
ATOM     28  O   UNL     1      -2.221  11.640  16.214  0.00  0.00    +0.000 OA
ATOM     29  H   UNL     1      -1.656  12.448  16.294  0.00  0.00    +0.000 HD
ENDBRANCH  26  28
ENDBRANCH  25  26
ENDBRANCH  18  25
ENDBRANCH   5  18
TORSDOF 8
ENDMDL
