MODEL 1
REMARK VINA RESULT:      -7.7      0.000      0.000
REMARK  Name = 
REMARK  11 active torsions:
REMARK  status: ('A' for Active; 'I' for Inactive)
REMARK    1  A    between atoms: C_1  and  O_2
REMARK    2  A    between atoms: O_2  and  C_3
REMARK    3  A    between atoms: C_6  and  C_7
REMARK    4  A    between atoms: C_12  and  C_13
REMARK    5  A    between atoms: C_13  and  C_15
REMARK    6  A    between atoms: C_17  and  O_18
REMARK    7  A    between atoms: O_18  and  C_19
REMARK    8  A    between atoms: C_20  and  O_21
REMARK    9  A    between atoms: O_21  and  C_22
REMARK   10  A    between atoms: C_23  and  O_24
REMARK   11  A    between atoms: O_24  and  C_25
REMARK                            x       y       z     vdW  Elec       q    Type
REMARK                         _______ _______ _______ _____ _____    ______ ____
ROOT
ATOM      1  C   UNL     1       2.252   8.283  18.429  0.00  0.00    +0.000 A 
ATOM      2  C   UNL     1       1.793   8.080  19.726  0.00  0.00    +0.000 A 
ATOM      3  C   UNL     1       1.818   6.803  20.302  0.00  0.00    +0.000 A 
ATOM      4  C   UNL     1       2.330   5.688  19.611  0.00  0.00    +0.000 A 
ATOM      5  C   UNL     1       2.812   5.906  18.299  0.00  0.00    +0.000 A 
ATOM      6  C   UNL     1       2.729   7.189  17.713  0.00  0.00    +0.000 A 
ENDROOT
BRANCH   4   7
ATOM      7  C   UNL     1       2.318   4.395  20.324  0.00  0.00    +0.000 A 
ATOM      8  C   UNL     1       1.286   3.757  21.000  0.00  0.00    +0.000 A 
ATOM      9  C   UNL     1       1.771   2.536  21.527  0.00  0.00    +0.000 A 
ATOM     10  C   UNL     1       3.092   2.438  21.163  0.00  0.00    +0.000 A 
ATOM     11  N   UNL     1       3.409   3.554  20.437  0.00  0.00    +0.000 N 
ATOM     12  H   UNL     1       4.291   3.692  19.964  0.00  0.00    +0.000 HD
ENDBRANCH   4   7
BRANCH   1  14
ATOM     13  C   UNL     1       1.203  10.414  18.568  0.00  0.00    +0.000 C 
ATOM     14  O   UNL     1       2.189   9.571  17.983  0.00  0.00    +0.000 OA
ENDBRANCH   1  14
BRANCH   5  15
ATOM     15  C   UNL     1       3.345   4.808  17.446  0.00  0.00    +0.000 C 
ATOM     16  O   UNL     1       2.695   3.777  17.269  0.00  0.00    +0.000 OA
BRANCH  15  17
ATOM     17  C   UNL     1       4.637   4.918  16.723  0.00  0.00    +0.000 A 
ATOM     18  C   UNL     1       4.847   4.023  15.677  0.00  0.00    +0.000 A 
ATOM     19  C   UNL     1       5.987   4.114  14.882  0.00  0.00    +0.000 A 
ATOM     20  C   UNL     1       6.965   5.091  15.168  0.00  0.00    +0.000 A 
ATOM     21  C   UNL     1       6.784   5.966  16.264  0.00  0.00    +0.000 A 
ATOM     22  C   UNL     1       5.620   5.863  17.040  0.00  0.00    +0.000 A 
BRANCH  19  23
ATOM     23  O   UNL     1       6.204   3.285  13.806  0.00  0.00    +0.000 OA
ATOM     24  C   UNL     1       5.358   3.494  12.677  0.00  0.00    +0.000 C 
ENDBRANCH  19  23
BRANCH  20  25
ATOM     25  O   UNL     1       8.083   5.050  14.366  0.00  0.00    +0.000 OA
ATOM     26  C   UNL     1       8.037   5.794  13.155  0.00  0.00    +0.000 C 
ENDBRANCH  20  25
BRANCH  21  27
ATOM     27  O   UNL     1       7.776   6.871  16.534  0.00  0.00    +0.000 OA
ATOM     28  C   UNL     1       7.563   7.828  17.565  0.00  0.00    +0.000 C 
ENDBRANCH  21  27
ENDBRANCH  15  17
ENDBRANCH   5  15
TORSDOF 7
ENDMDL
MODEL 2
REMARK VINA RESULT:      -7.6      0.308      2.495
REMARK  Name = 
REMARK  11 active torsions:
REMARK  status: ('A' for Active; 'I' for Inactive)
REMARK    1  A    between atoms: C_1  and  O_2
REMARK    2  A    between atoms: O_2  and  C_3
REMARK    3  A    between atoms: C_6  and  C_7
REMARK    4  A    between atoms: C_12  and  C_13
REMARK    5  A    between atoms: C_13  and  C_15
REMARK    6  A    between atoms: C_17  and  O_18
REMARK    7  A    between atoms: O_18  and  C_19
REMARK    8  A    between atoms: C_20  and  O_21
REMARK    9  A    between atoms: O_21  and  C_22
REMARK   10  A    between atoms: C_23  and  O_24
REMARK   11  A    between atoms: O_24  and  C_25
REMARK                            x       y       z     vdW  Elec       q    Type
REMARK                         _______ _______ _______ _____ _____    ______ ____
ROOT
ATOM      1  C   UNL     1       2.450   8.300  18.118  0.00  0.00    +0.000 A 
ATOM      2  C   UNL     1       1.919   8.181  19.398  0.00  0.00    +0.000 A 
ATOM      3  C   UNL     1       1.868   6.937  20.039  0.00  0.00    +0.000 A 
ATOM      4  C   UNL     1       2.374   5.770  19.434  0.00  0.00    +0.000 A 
ATOM      5  C   UNL     1       2.929   5.902  18.140  0.00  0.00    +0.000 A 
ATOM      6  C   UNL     1       2.923   7.155  17.485  0.00  0.00    +0.000 A 
ENDROOT
BRANCH   4   7
ATOM      7  C   UNL     1       2.279   4.518  20.210  0.00  0.00    +0.000 A 
ATOM      8  C   UNL     1       1.175   3.912  20.797  0.00  0.00    +0.000 A 
ATOM      9  C   UNL     1       1.596   2.724  21.443  0.00  0.00    +0.000 A 
ATOM     10  C   UNL     1       2.950   2.614  21.240  0.00  0.00    +0.000 A 
ATOM     11  N   UNL     1       3.349   3.690  20.495  0.00  0.00    +0.000 N 
ATOM     12  H   UNL     1       4.281   3.808  20.120  0.00  0.00    +0.000 HD
ENDBRANCH   4   7
BRANCH   1  14
ATOM     13  C   UNL     1       1.767  10.569  18.340  0.00  0.00    +0.000 C 
ATOM     14  O   UNL     1       2.456   9.564  17.604  0.00  0.00    +0.000 OA
ENDBRANCH   1  14
BRANCH   5  15
ATOM     15  C   UNL     1       3.466   4.743  17.373  0.00  0.00    +0.000 C 
ATOM     16  O   UNL     1       2.907   3.647  17.419  0.00  0.00    +0.000 OA
BRANCH  15  17
ATOM     17  C   UNL     1       4.644   4.858  16.478  0.00  0.00    +0.000 A 
ATOM     18  C   UNL     1       5.636   5.756  16.862  0.00  0.00    +0.000 A 
ATOM     19  C   UNL     1       6.820   5.861  16.136  0.00  0.00    +0.000 A 
ATOM     20  C   UNL     1       6.998   5.086  14.970  0.00  0.00    +0.000 A 
ATOM     21  C   UNL     1       5.970   4.212  14.543  0.00  0.00    +0.000 A 
ATOM     22  C   UNL     1       4.794   4.115  15.301  0.00  0.00    +0.000 A 
BRANCH  19  23
ATOM     23  O   UNL     1       7.846   6.696  16.513  0.00  0.00    +0.000 OA
ATOM     24  C   UNL     1       7.522   7.675  17.498  0.00  0.00    +0.000 C 
ENDBRANCH  19  23
BRANCH  20  25
ATOM     25  O   UNL     1       8.171   5.316  14.289  0.00  0.00    +0.000 OA
ATOM     26  C   UNL     1       8.064   5.630  12.905  0.00  0.00    +0.000 C 
ENDBRANCH  20  25
BRANCH  21  27
ATOM     27  O   UNL     1       6.165   3.510  13.384  0.00  0.00    +0.000 OA
ATOM     28  C   UNL     1       5.101   3.441  12.442  0.00  0.00    +0.000 C 
ENDBRANCH  21  27
ENDBRANCH  15  17
ENDBRANCH   5  15
TORSDOF 7
ENDMDL
MODEL 3
REMARK VINA RESULT:      -7.5      2.226      7.197
REMARK  Name = 
REMARK  11 active torsions:
REMARK  status: ('A' for Active; 'I' for Inactive)
REMARK    1  A    between atoms: C_1  and  O_2
REMARK    2  A    between atoms: O_2  and  C_3
REMARK    3  A    between atoms: C_6  and  C_7
REMARK    4  A    between atoms: C_12  and  C_13
REMARK    5  A    between atoms: C_13  and  C_15
REMARK    6  A    between atoms: C_17  and  O_18
REMARK    7  A    between atoms: O_18  and  C_19
REMARK    8  A    between atoms: C_20  and  O_21
REMARK    9  A    between atoms: O_21  and  C_22
REMARK   10  A    between atoms: C_23  and  O_24
REMARK   11  A    between atoms: O_24  and  C_25
REMARK                            x       y       z     vdW  Elec       q    Type
REMARK                         _______ _______ _______ _____ _____    ______ ____
ROOT
ATOM      1  C   UNL     1       5.672   4.119  14.009  0.00  0.00    +0.000 A 
ATOM      2  C   UNL     1       7.043   4.300  14.160  0.00  0.00    +0.000 A 
ATOM      3  C   UNL     1       7.550   5.101  15.190  0.00  0.00    +0.000 A 
ATOM      4  C   UNL     1       6.705   5.728  16.126  0.00  0.00    +0.000 A 
ATOM      5  C   UNL     1       5.313   5.525  15.977  0.00  0.00    +0.000 A 
ATOM      6  C   UNL     1       4.815   4.759  14.900  0.00  0.00    +0.000 A 
ENDROOT
BRANCH   4   7
ATOM      7  C   UNL     1       7.353   6.538  17.177  0.00  0.00    +0.000 A 
ATOM      8  C   UNL     1       7.827   6.164  18.428  0.00  0.00    +0.000 A 
ATOM      9  C   UNL     1       8.358   7.306  19.075  0.00  0.00    +0.000 A 
ATOM     10  C   UNL     1       8.208   8.363  18.212  0.00  0.00    +0.000 A 
ATOM     11  N   UNL     1       7.611   7.892  17.074  0.00  0.00    +0.000 N 
ATOM     12  H   UNL     1       7.471   8.441  16.236  0.00  0.00    +0.000 HD
ENDBRANCH   4   7
BRANCH   1  14
ATOM     13  C   UNL     1       6.152   3.274  11.837  0.00  0.00    +0.000 C 
ATOM     14  O   UNL     1       5.299   3.308  12.977  0.00  0.00    +0.000 OA
ENDBRANCH   1  14
BRANCH   5  15
ATOM     15  C   UNL     1       4.308   6.159  16.876  0.00  0.00    +0.000 C 
ATOM     16  O   UNL     1       4.016   7.348  16.751  0.00  0.00    +0.000 OA
BRANCH  15  17
ATOM     17  C   UNL     1       3.570   5.392  17.910  0.00  0.00    +0.000 A 
ATOM     18  C   UNL     1       2.935   6.133  18.904  0.00  0.00    +0.000 A 
ATOM     19  C   UNL     1       2.141   5.505  19.860  0.00  0.00    +0.000 A 
ATOM     20  C   UNL     1       2.015   4.099  19.854  0.00  0.00    +0.000 A 
ATOM     21  C   UNL     1       2.703   3.337  18.881  0.00  0.00    +0.000 A 
ATOM     22  C   UNL     1       3.484   3.995  17.920  0.00  0.00    +0.000 A 
BRANCH  19  23
ATOM     23  O   UNL     1       1.454   6.206  20.825  0.00  0.00    +0.000 OA
ATOM     24  C   UNL     1       1.601   7.624  20.788  0.00  0.00    +0.000 C 
ENDBRANCH  19  23
BRANCH  20  25
ATOM     25  O   UNL     1       1.265   3.575  20.882  0.00  0.00    +0.000 OA
ATOM     26  C   UNL     1       1.969   2.883  21.907  0.00  0.00    +0.000 C 
ENDBRANCH  20  25
BRANCH  21  27
ATOM     27  O   UNL     1       2.589   1.973  18.936  0.00  0.00    +0.000 OA
ATOM     28  C   UNL     1       3.714   1.181  18.573  0.00  0.00    +0.000 C 
ENDBRANCH  21  27
ENDBRANCH  15  17
ENDBRANCH   5  15
TORSDOF 7
ENDMDL
MODEL 4
REMARK VINA RESULT:      -7.2      2.227      6.707
REMARK  Name = 
REMARK  11 active torsions:
REMARK  status: ('A' for Active; 'I' for Inactive)
REMARK    1  A    between atoms: C_1  and  O_2
REMARK    2  A    between atoms: O_2  and  C_3
REMARK    3  A    between atoms: C_6  and  C_7
REMARK    4  A    between atoms: C_12  and  C_13
REMARK    5  A    between atoms: C_13  and  C_15
REMARK    6  A    between atoms: C_17  and  O_18
REMARK    7  A    between atoms: O_18  and  C_19
REMARK    8  A    between atoms: C_20  and  O_21
REMARK    9  A    between atoms: O_21  and  C_22
REMARK   10  A    between atoms: C_23  and  O_24
REMARK   11  A    between atoms: O_24  and  C_25
REMARK                            x       y       z     vdW  Elec       q    Type
REMARK                         _______ _______ _______ _____ _____    ______ ____
ROOT
ATOM      1  C   UNL     1       5.516   4.255  13.809  0.00  0.00    +0.000 A 
ATOM      2  C   UNL     1       6.858   4.079  14.127  0.00  0.00    +0.000 A 
ATOM      3  C   UNL     1       7.394   4.631  15.298  0.00  0.00    +0.000 A 
ATOM      4  C   UNL     1       6.600   5.355  16.207  0.00  0.00    +0.000 A 
ATOM      5  C   UNL     1       5.231   5.515  15.885  0.00  0.00    +0.000 A 
ATOM      6  C   UNL     1       4.719   4.999  14.674  0.00  0.00    +0.000 A 
ENDROOT
BRANCH   4   7
ATOM      7  C   UNL     1       7.271   5.878  17.414  0.00  0.00    +0.000 A 
ATOM      8  C   UNL     1       7.620   5.232  18.593  0.00  0.00    +0.000 A 
ATOM      9  C   UNL     1       8.238   6.167  19.460  0.00  0.00    +0.000 A 
ATOM     10  C   UNL     1       8.264   7.370  18.799  0.00  0.00    +0.000 A 
ATOM     11  N   UNL     1       7.688   7.187  17.571  0.00  0.00    +0.000 N 
ATOM     12  H   UNL     1       7.665   7.888  16.844  0.00  0.00    +0.000 HD
ENDBRANCH   4   7
BRANCH   1  14
ATOM     13  C   UNL     1       6.042   2.813  11.990  0.00  0.00    +0.000 C 
ATOM     14  O   UNL     1       5.107   3.661  12.650  0.00  0.00    +0.000 OA
ENDBRANCH   1  14
BRANCH   5  15
ATOM     15  C   UNL     1       4.289   6.289  16.741  0.00  0.00    +0.000 C 
ATOM     16  O   UNL     1       4.140   7.499  16.576  0.00  0.00    +0.000 OA
BRANCH  15  17
ATOM     17  C   UNL     1       3.447   5.645  17.780  0.00  0.00    +0.000 A 
ATOM     18  C   UNL     1       3.250   4.272  17.664  0.00  0.00    +0.000 A 
ATOM     19  C   UNL     1       2.555   3.568  18.644  0.00  0.00    +0.000 A 
ATOM     20  C   UNL     1       2.000   4.258  19.743  0.00  0.00    +0.000 A 
ATOM     21  C   UNL     1       2.148   5.662  19.837  0.00  0.00    +0.000 A 
ATOM     22  C   UNL     1       2.865   6.345  18.844  0.00  0.00    +0.000 A 
BRANCH  19  23
ATOM     23  O   UNL     1       2.386   2.203  18.593  0.00  0.00    +0.000 OA
ATOM     24  C   UNL     1       3.557   1.441  18.305  0.00  0.00    +0.000 C 
ENDBRANCH  19  23
BRANCH  20  25
ATOM     25  O   UNL     1       1.273   3.481  20.615  0.00  0.00    +0.000 OA
ATOM     26  C   UNL     1       1.974   2.922  21.719  0.00  0.00    +0.000 C 
ENDBRANCH  20  25
BRANCH  21  27
ATOM     27  O   UNL     1       1.558   6.300  20.896  0.00  0.00    +0.000 OA
ATOM     28  C   UNL     1       1.492   7.721  20.884  0.00  0.00    +0.000 C 
ENDBRANCH  21  27
ENDBRANCH  15  17
ENDBRANCH   5  15
TORSDOF 7
ENDMDL
MODEL 5
REMARK VINA RESULT:      -7.2      3.056      7.290
REMARK  Name = 
REMARK  11 active torsions:
REMARK  status: ('A' for Active; 'I' for Inactive)
REMARK    1  A    between atoms: C_1  and  O_2
REMARK    2  A    between atoms: O_2  and  C_3
REMARK    3  A    between atoms: C_6  and  C_7
REMARK    4  A    between atoms: C_12  and  C_13
REMARK    5  A    between atoms: C_13  and  C_15
REMARK    6  A    between atoms: C_17  and  O_18
REMARK    7  A    between atoms: O_18  and  C_19
REMARK    8  A    between atoms: C_20  and  O_21
REMARK    9  A    between atoms: O_21  and  C_22
REMARK   10  A    between atoms: C_23  and  O_24
REMARK   11  A    between atoms: O_24  and  C_25
REMARK                            x       y       z     vdW  Elec       q    Type
REMARK                         _______ _______ _______ _____ _____    ______ ____
ROOT
ATOM      1  C   UNL     1       1.995   3.715  17.980  0.00  0.00    +0.000 A 
ATOM      2  C   UNL     1       3.213   3.056  18.103  0.00  0.00    +0.000 A 
ATOM      3  C   UNL     1       4.417   3.773  18.116  0.00  0.00    +0.000 A 
ATOM      4  C   UNL     1       4.442   5.179  18.036  0.00  0.00    +0.000 A 
ATOM      5  C   UNL     1       3.198   5.843  17.929  0.00  0.00    +0.000 A 
ATOM      6  C   UNL     1       1.997   5.102  17.861  0.00  0.00    +0.000 A 
ENDROOT
BRANCH   4   7
ATOM      7  C   UNL     1       5.768   5.828  18.073  0.00  0.00    +0.000 A 
ATOM      8  C   UNL     1       6.781   5.738  19.020  0.00  0.00    +0.000 A 
ATOM      9  C   UNL     1       7.861   6.559  18.612  0.00  0.00    +0.000 A 
ATOM     10  C   UNL     1       7.499   7.136  17.420  0.00  0.00    +0.000 A 
ATOM     11  N   UNL     1       6.246   6.687  17.101  0.00  0.00    +0.000 N 
ATOM     12  H   UNL     1       5.779   6.880  16.225  0.00  0.00    +0.000 HD
ENDBRANCH   4   7
BRANCH   1  14
ATOM     13  C   UNL     1       0.679   2.118  19.155  0.00  0.00    +0.000 C 
ATOM     14  O   UNL     1       0.892   2.911  17.992  0.00  0.00    +0.000 OA
ENDBRANCH   1  14
BRANCH   5  15
ATOM     15  C   UNL     1       3.085   7.323  17.799  0.00  0.00    +0.000 C 
ATOM     16  O   UNL     1       3.740   7.931  16.953  0.00  0.00    +0.000 OA
BRANCH  15  17
ATOM     17  C   UNL     1       2.147   8.124  18.625  0.00  0.00    +0.000 A 
ATOM     18  C   UNL     1       1.388   9.082  17.958  0.00  0.00    +0.000 A 
ATOM     19  C   UNL     1       0.414   9.814  18.632  0.00  0.00    +0.000 A 
ATOM     20  C   UNL     1       0.226   9.620  20.018  0.00  0.00    +0.000 A 
ATOM     21  C   UNL     1       1.033   8.689  20.713  0.00  0.00    +0.000 A 
ATOM     22  C   UNL     1       1.996   7.954  20.006  0.00  0.00    +0.000 A 
BRANCH  19  23
ATOM     23  O   UNL     1      -0.393  10.730  17.998  0.00  0.00    +0.000 OA
ATOM     24  C   UNL     1      -1.570  10.204  17.387  0.00  0.00    +0.000 C 
ENDBRANCH  19  23
BRANCH  20  25
ATOM     25  O   UNL     1      -0.711  10.442  20.601  0.00  0.00    +0.000 OA
ATOM     26  C   UNL     1      -0.260  11.710  21.061  0.00  0.00    +0.000 C 
ENDBRANCH  20  25
BRANCH  21  27
ATOM     27  O   UNL     1       0.848   8.561  22.064  0.00  0.00    +0.000 OA
ATOM     28  C   UNL     1       1.669   9.326  22.939  0.00  0.00    +0.000 C 
ENDBRANCH  21  27
ENDBRANCH  15  17
ENDBRANCH   5  15
TORSDOF 7
ENDMDL
MODEL 6
REMARK VINA RESULT:      -7.2      3.537      8.641
REMARK  Name = 
REMARK  11 active torsions:
REMARK  status: ('A' for Active; 'I' for Inactive)
REMARK    1  A    between atoms: C_1  and  O_2
REMARK    2  A    between atoms: O_2  and  C_3
REMARK    3  A    between atoms: C_6  and  C_7
REMARK    4  A    between atoms: C_12  and  C_13
REMARK    5  A    between atoms: C_13  and  C_15
REMARK    6  A    between atoms: C_17  and  O_18
REMARK    7  A    between atoms: O_18  and  C_19
REMARK    8  A    between atoms: C_20  and  O_21
REMARK    9  A    between atoms: O_21  and  C_22
REMARK   10  A    between atoms: C_23  and  O_24
REMARK   11  A    between atoms: O_24  and  C_25
REMARK                            x       y       z     vdW  Elec       q    Type
REMARK                         _______ _______ _______ _____ _____    ______ ____
ROOT
ATOM      1  C   UNL     1       2.898   6.330  18.135  0.00  0.00    +0.000 A 
ATOM      2  C   UNL     1       2.648   5.764  19.381  0.00  0.00    +0.000 A 
ATOM      3  C   UNL     1       2.011   6.501  20.387  0.00  0.00    +0.000 A 
ATOM      4  C   UNL     1       1.575   7.822  20.174  0.00  0.00    +0.000 A 
ATOM      5  C   UNL     1       1.816   8.385  18.898  0.00  0.00    +0.000 A 
ATOM      6  C   UNL     1       2.508   7.647  17.912  0.00  0.00    +0.000 A 
ENDROOT
BRANCH   4   7
ATOM      7  C   UNL     1       0.903   8.497  21.303  0.00  0.00    +0.000 A 
ATOM      8  C   UNL     1       1.434   9.282  22.318  0.00  0.00    +0.000 A 
ATOM      9  C   UNL     1       0.383   9.695  23.174  0.00  0.00    +0.000 A 
ATOM     10  C   UNL     1      -0.777   9.161  22.670  0.00  0.00    +0.000 A 
ATOM     11  N   UNL     1      -0.457   8.450  21.545  0.00  0.00    +0.000 N 
ATOM     12  H   UNL     1      -1.137   8.034  20.923  0.00  0.00    +0.000 HD
ENDBRANCH   4   7
BRANCH   1  14
ATOM     13  C   UNL     1       4.540   4.657  17.726  0.00  0.00    +0.000 C 
ATOM     14  O   UNL     1       3.512   5.510  17.234  0.00  0.00    +0.000 OA
ENDBRANCH   1  14
BRANCH   5  15
ATOM     15  C   UNL     1       1.438   9.785  18.553  0.00  0.00    +0.000 C 
ATOM     16  O   UNL     1       2.303  10.644  18.383  0.00  0.00    +0.000 OA
BRANCH  15  17
ATOM     17  C   UNL     1       0.029  10.198  18.336  0.00  0.00    +0.000 A 
ATOM     18  C   UNL     1      -0.464  11.201  19.166  0.00  0.00    +0.000 A 
ATOM     19  C   UNL     1      -1.742  11.719  18.973  0.00  0.00    +0.000 A 
ATOM     20  C   UNL     1      -2.567  11.190  17.957  0.00  0.00    +0.000 A 
ATOM     21  C   UNL     1      -2.092  10.132  17.147  0.00  0.00    +0.000 A 
ATOM     22  C   UNL     1      -0.796   9.639  17.352  0.00  0.00    +0.000 A 
BRANCH  19  23
ATOM     23  O   UNL     1      -2.245  12.747  19.737  0.00  0.00    +0.000 OA
ATOM     24  C   UNL     1      -2.332  12.497  21.138  0.00  0.00    +0.000 C 
ENDBRANCH  19  23
BRANCH  20  25
ATOM     25  O   UNL     1      -3.834  11.723  17.897  0.00  0.00    +0.000 OA
ATOM     26  C   UNL     1      -4.899  10.913  18.379  0.00  0.00    +0.000 C 
ENDBRANCH  20  25
BRANCH  21  27
ATOM     27  O   UNL     1      -2.939   9.618  16.201  0.00  0.00    +0.000 OA
ATOM     28  C   UNL     1      -2.944  10.199  14.903  0.00  0.00    +0.000 C 
ENDBRANCH  21  27
ENDBRANCH  15  17
ENDBRANCH   5  15
TORSDOF 7
ENDMDL
MODEL 7
REMARK VINA RESULT:      -7.1      2.467      6.705
REMARK  Name = 
REMARK  11 active torsions:
REMARK  status: ('A' for Active; 'I' for Inactive)
REMARK    1  A    between atoms: C_1  and  O_2
REMARK    2  A    between atoms: O_2  and  C_3
REMARK    3  A    between atoms: C_6  and  C_7
REMARK    4  A    between atoms: C_12  and  C_13
REMARK    5  A    between atoms: C_13  and  C_15
REMARK    6  A    between atoms: C_17  and  O_18
REMARK    7  A    between atoms: O_18  and  C_19
REMARK    8  A    between atoms: C_20  and  O_21
REMARK    9  A    between atoms: O_21  and  C_22
REMARK   10  A    between atoms: C_23  and  O_24
REMARK   11  A    between atoms: O_24  and  C_25
REMARK                            x       y       z     vdW  Elec       q    Type
REMARK                         _______ _______ _______ _____ _____    ______ ____
ROOT
ATOM      1  C   UNL     1       6.068   6.524  17.574  0.00  0.00    +0.000 A 
ATOM      2  C   UNL     1       6.407   5.373  18.278  0.00  0.00    +0.000 A 
ATOM      3  C   UNL     1       5.435   4.657  18.988  0.00  0.00    +0.000 A 
ATOM      4  C   UNL     1       4.083   5.050  18.996  0.00  0.00    +0.000 A 
ATOM      5  C   UNL     1       3.743   6.212  18.263  0.00  0.00    +0.000 A 
ATOM      6  C   UNL     1       4.745   6.954  17.598  0.00  0.00    +0.000 A 
ENDROOT
BRANCH   4   7
ATOM      7  C   UNL     1       3.145   4.210  19.768  0.00  0.00    +0.000 A 
ATOM      8  C   UNL     1       2.571   4.426  21.014  0.00  0.00    +0.000 A 
ATOM      9  C   UNL     1       1.744   3.322  21.334  0.00  0.00    +0.000 A 
ATOM     10  C   UNL     1       1.819   2.446  20.278  0.00  0.00    +0.000 A 
ATOM     11  N   UNL     1       2.656   2.990  19.342  0.00  0.00    +0.000 N 
ATOM     12  H   UNL     1       2.812   2.598  18.423  0.00  0.00    +0.000 HD
ENDBRANCH   4   7
BRANCH   1  14
ATOM     13  C   UNL     1       7.849   8.102  17.629  0.00  0.00    +0.000 C 
ATOM     14  O   UNL     1       7.097   7.128  16.912  0.00  0.00    +0.000 OA
ENDBRANCH   1  14
BRANCH   5  15
ATOM     15  C   UNL     1       2.357   6.757  18.219  0.00  0.00    +0.000 C 
ATOM     16  O   UNL     1       1.479   6.187  17.573  0.00  0.00    +0.000 OA
BRANCH  15  17
ATOM     17  C   UNL     1       1.952   7.961  18.986  0.00  0.00    +0.000 A 
ATOM     18  C   UNL     1       1.885   9.160  18.282  0.00  0.00    +0.000 A 
ATOM     19  C   UNL     1       1.422  10.321  18.896  0.00  0.00    +0.000 A 
ATOM     20  C   UNL     1       1.062  10.296  20.260  0.00  0.00    +0.000 A 
ATOM     21  C   UNL     1       1.180   9.094  20.996  0.00  0.00    +0.000 A 
ATOM     22  C   UNL     1       1.635   7.936  20.350  0.00  0.00    +0.000 A 
BRANCH  19  23
ATOM     23  O   UNL     1       1.290  11.512  18.219  0.00  0.00    +0.000 OA
ATOM     24  C   UNL     1       2.488  12.267  18.047  0.00  0.00    +0.000 C 
ENDBRANCH  19  23
BRANCH  20  25
ATOM     25  O   UNL     1       0.685  11.511  20.786  0.00  0.00    +0.000 OA
ATOM     26  C   UNL     1      -0.695  11.847  20.711  0.00  0.00    +0.000 C 
ENDBRANCH  20  25
BRANCH  21  27
ATOM     27  O   UNL     1       0.861   9.123  22.328  0.00  0.00    +0.000 OA
ATOM     28  C   UNL     1      -0.496   8.933  22.708  0.00  0.00    +0.000 C 
ENDBRANCH  21  27
ENDBRANCH  15  17
ENDBRANCH   5  15
TORSDOF 7
ENDMDL
MODEL 8
REMARK VINA RESULT:      -7.0      6.091     10.983
REMARK  Name = 
REMARK  11 active torsions:
REMARK  status: ('A' for Active; 'I' for Inactive)
REMARK    1  A    between atoms: C_1  and  O_2
REMARK    2  A    between atoms: O_2  and  C_3
REMARK    3  A    between atoms: C_6  and  C_7
REMARK    4  A    between atoms: C_12  and  C_13
REMARK    5  A    between atoms: C_13  and  C_15
REMARK    6  A    between atoms: C_17  and  O_18
REMARK    7  A    between atoms: O_18  and  C_19
REMARK    8  A    between atoms: C_20  and  O_21
REMARK    9  A    between atoms: O_21  and  C_22
REMARK   10  A    between atoms: C_23  and  O_24
REMARK   11  A    between atoms: O_24  and  C_25
REMARK                            x       y       z     vdW  Elec       q    Type
REMARK                         _______ _______ _______ _____ _____    ______ ____
ROOT
ATOM      1  C   UNL     1       0.679   9.115  21.274  0.00  0.00    +0.000 A 
ATOM      2  C   UNL     1       0.360   9.112  22.628  0.00  0.00    +0.000 A 
ATOM      3  C   UNL     1      -0.456  10.112  23.172  0.00  0.00    +0.000 A 
ATOM      4  C   UNL     1      -1.007  11.134  22.376  0.00  0.00    +0.000 A 
ATOM      5  C   UNL     1      -0.692  11.119  20.996  0.00  0.00    +0.000 A 
ATOM      6  C   UNL     1       0.177  10.136  20.473  0.00  0.00    +0.000 A 
ENDROOT
BRANCH   4   7
ATOM      7  C   UNL     1      -1.864  12.126  23.056  0.00  0.00    +0.000 A 
ATOM      8  C   UNL     1      -1.611  13.453  23.379  0.00  0.00    +0.000 A 
ATOM      9  C   UNL     1      -2.745  13.986  24.039  0.00  0.00    +0.000 A 
ATOM     10  C   UNL     1      -3.679  12.982  24.107  0.00  0.00    +0.000 A 
ATOM     11  N   UNL     1      -3.145  11.872  23.510  0.00  0.00    +0.000 N 
ATOM     12  H   UNL     1      -3.657  11.018  23.336  0.00  0.00    +0.000 HD
ENDBRANCH   4   7
BRANCH   1  14
ATOM     13  C   UNL     1       1.890   8.092  19.498  0.00  0.00    +0.000 C 
ATOM     14  O   UNL     1       1.471   8.084  20.859  0.00  0.00    +0.000 OA
ENDBRANCH   1  14
BRANCH   5  15
ATOM     15  C   UNL     1      -1.178  12.162  20.049  0.00  0.00    +0.000 C 
ATOM     16  O   UNL     1      -0.432  13.065  19.672  0.00  0.00    +0.000 OA
BRANCH  15  17
ATOM     17  C   UNL     1      -2.545  12.136  19.471  0.00  0.00    +0.000 A 
ATOM     18  C   UNL     1      -2.683  11.542  18.219  0.00  0.00    +0.000 A 
ATOM     19  C   UNL     1      -3.941  11.385  17.641  0.00  0.00    +0.000 A 
ATOM     20  C   UNL     1      -5.084  11.878  18.307  0.00  0.00    +0.000 A 
ATOM     21  C   UNL     1      -4.944  12.533  19.553  0.00  0.00    +0.000 A 
ATOM     22  C   UNL     1      -3.668  12.664  20.120  0.00  0.00    +0.000 A 
BRANCH  19  23
ATOM     23  O   UNL     1      -4.124  10.755  16.432  0.00  0.00    +0.000 OA
ATOM     24  C   UNL     1      -3.087  10.939  15.470  0.00  0.00    +0.000 C 
ENDBRANCH  19  23
BRANCH  20  25
ATOM     25  O   UNL     1      -6.267  11.735  17.618  0.00  0.00    +0.000 OA
ATOM     26  C   UNL     1      -6.822  12.909  17.037  0.00  0.00    +0.000 C 
ENDBRANCH  20  25
BRANCH  21  27
ATOM     27  O   UNL     1      -6.073  13.034  20.145  0.00  0.00    +0.000 OA
ATOM     28  C   UNL     1      -6.532  12.435  21.351  0.00  0.00    +0.000 C 
ENDBRANCH  21  27
ENDBRANCH  15  17
ENDBRANCH   5  15
TORSDOF 7
ENDMDL
MODEL 9
REMARK VINA RESULT:      -7.0      2.496      6.606
REMARK  Name = 
REMARK  11 active torsions:
REMARK  status: ('A' for Active; 'I' for Inactive)
REMARK    1  A    between atoms: C_1  and  O_2
REMARK    2  A    between atoms: O_2  and  C_3
REMARK    3  A    between atoms: C_6  and  C_7
REMARK    4  A    between atoms: C_12  and  C_13
REMARK    5  A    between atoms: C_13  and  C_15
REMARK    6  A    between atoms: C_17  and  O_18
REMARK    7  A    between atoms: O_18  and  C_19
REMARK    8  A    between atoms: C_20  and  O_21
REMARK    9  A    between atoms: O_21  and  C_22
REMARK   10  A    between atoms: C_23  and  O_24
REMARK   11  A    between atoms: O_24  and  C_25
REMARK                            x       y       z     vdW  Elec       q    Type
REMARK                         _______ _______ _______ _____ _____    ______ ____
ROOT
ATOM      1  C   UNL     1       6.185   6.549  17.697  0.00  0.00    +0.000 A 
ATOM      2  C   UNL     1       6.526   5.454  18.485  0.00  0.00    +0.000 A 
ATOM      3  C   UNL     1       5.543   4.744  19.186  0.00  0.00    +0.000 A 
ATOM      4  C   UNL     1       4.180   5.085  19.101  0.00  0.00    +0.000 A 
ATOM      5  C   UNL     1       3.839   6.188  18.283  0.00  0.00    +0.000 A 
ATOM      6  C   UNL     1       4.848   6.928  17.627  0.00  0.00    +0.000 A 
ENDROOT
BRANCH   4   7
ATOM      7  C   UNL     1       3.232   4.256  19.873  0.00  0.00    +0.000 A 
ATOM      8  C   UNL     1       2.498   4.563  21.011  0.00  0.00    +0.000 A 
ATOM      9  C   UNL     1       1.736   3.429  21.384  0.00  0.00    +0.000 A 
ATOM     10  C   UNL     1       2.009   2.444  20.467  0.00  0.00    +0.000 A 
ATOM     11  N   UNL     1       2.901   2.950  19.561  0.00  0.00    +0.000 N 
ATOM     12  H   UNL     1       3.197   2.467  18.724  0.00  0.00    +0.000 HD
ENDBRANCH   4   7
BRANCH   1  14
ATOM     13  C   UNL     1       7.742   8.348  17.631  0.00  0.00    +0.000 C 
ATOM     14  O   UNL     1       7.227   7.152  17.055  0.00  0.00    +0.000 OA
ENDBRANCH   1  14
BRANCH   5  15
ATOM     15  C   UNL     1       2.439   6.676  18.134  0.00  0.00    +0.000 C 
ATOM     16  O   UNL     1       1.593   5.991  17.561  0.00  0.00    +0.000 OA
BRANCH  15  17
ATOM     17  C   UNL     1       1.981   7.964  18.712  0.00  0.00    +0.000 A 
ATOM     18  C   UNL     1       1.575   7.942  20.044  0.00  0.00    +0.000 A 
ATOM     19  C   UNL     1       1.220   9.120  20.698  0.00  0.00    +0.000 A 
ATOM     20  C   UNL     1       1.224  10.342  19.992  0.00  0.00    +0.000 A 
ATOM     21  C   UNL     1       1.581  10.362  18.624  0.00  0.00    +0.000 A 
ATOM     22  C   UNL     1       1.948   9.164  17.993  0.00  0.00    +0.000 A 
BRANCH  19  23
ATOM     23  O   UNL     1       0.866   9.148  22.027  0.00  0.00    +0.000 OA
ATOM     24  C   UNL     1      -0.442   8.668  22.334  0.00  0.00    +0.000 C 
ENDBRANCH  19  23
BRANCH  20  25
ATOM     25  O   UNL     1       0.789  11.432  20.711  0.00  0.00    +0.000 OA
ATOM     26  C   UNL     1      -0.565  11.827  20.531  0.00  0.00    +0.000 C 
ENDBRANCH  20  25
BRANCH  21  27
ATOM     27  O   UNL     1       1.530  11.561  17.964  0.00  0.00    +0.000 OA
ATOM     28  C   UNL     1       2.583  12.496  18.168  0.00  0.00    +0.000 C 
ENDBRANCH  21  27
ENDBRANCH  15  17
ENDBRANCH   5  15
TORSDOF 7
ENDMDL
