MODEL 1
REMARK VINA RESULT:     -10.5      0.000      0.000
REMARK  Name = 
REMARK  6 active torsions:
REMARK  status: ('A' for Active; 'I' for Inactive)
REMARK    1  A    between atoms: C_2  and  C_3
REMARK    2  A    between atoms: C_6  and  C_7
REMARK    3  A    between atoms: C_11  and  C_12
REMARK    4  A    between atoms: C_12  and  O_13
REMARK    5  A    between atoms: O_13  and  C_14
REMARK    6  A    between atoms: N_19  and  C_20
REMARK                            x       y       z     vdW  Elec       q    Type
REMARK                         _______ _______ _______ _____ _____    ______ ____
ROOT
ATOM      1  C   UNL     1       1.211   2.810  20.541  0.00  0.00    +0.000 C 
ATOM      2  C   UNL     1       0.882   2.542  19.067  0.00  0.00    +0.000 C 
ATOM      3  C   UNL     1       2.191   2.192  18.400  0.00  0.00    +0.000 C 
ATOM      4  C   UNL     1       2.746   3.177  17.389  0.00  0.00    +0.000 C 
ATOM      5  O   UNL     1       2.097   3.613  16.448  0.00  0.00    +0.000 OA
ATOM      6  N   UNL     1       4.089   3.337  17.662  0.00  0.00    +0.000 N 
ATOM      7  C   UNL     1       4.375   2.825  18.914  0.00  0.00    +0.000 C 
ATOM      8  O   UNL     1       5.380   3.007  19.587  0.00  0.00    +0.000 OA
ATOM      9  N   UNL     1       3.220   2.195  19.399  0.00  0.00    +0.000 N 
ATOM     10  C   UNL     1       2.721   2.560  20.707  0.00  0.00    +0.000 C 
ENDROOT
BRANCH   6  11
ATOM     11  C   UNL     1       5.005   4.068  16.866  0.00  0.00    +0.000 A 
ATOM     12  C   UNL     1       5.315   3.658  15.561  0.00  0.00    +0.000 A 
ATOM     13  C   UNL     1       6.266   4.345  14.806  0.00  0.00    +0.000 A 
ATOM     14 CL   UNL     1       6.600   3.838  13.196  0.00  0.00    +0.000 Cl
ATOM     15  C   UNL     1       6.947   5.430  15.342  0.00  0.00    +0.000 A 
ATOM     16  C   UNL     1       6.645   5.845  16.635  0.00  0.00    +0.000 A 
ATOM     17 CL   UNL     1       7.518   7.157  17.327  0.00  0.00    +0.000 Cl
ATOM     18  C   UNL     1       5.666   5.190  17.386  0.00  0.00    +0.000 A 
ENDBRANCH   6  11
BRANCH   1  19
ATOM     19  O   UNL     1       0.849   4.162  20.826  0.00  0.00    +0.000 OA
BRANCH  19  20
ATOM     20  C   UNL     1       1.977   4.990  21.123  0.00  0.00    +0.000 C 
BRANCH  20  25
ATOM     21  C   UNL     1       1.154   8.684  20.446  0.00  0.00    +0.000 A 
ATOM     22  C   UNL     1       1.711   8.814  19.161  0.00  0.00    +0.000 A 
ATOM     23  C   UNL     1       2.313   7.731  18.516  0.00  0.00    +0.000 A 
ATOM     24  C   UNL     1       2.386   6.493  19.148  0.00  0.00    +0.000 A 
ATOM     25  C   UNL     1       1.855   6.323  20.430  0.00  0.00    +0.000 A 
ATOM     26  C   UNL     1       1.256   7.423  21.066  0.00  0.00    +0.000 A 
BRANCH  21  30
ATOM     27  C   UNL     1      -0.799  11.966  22.458  0.00  0.00    +0.000 A 
ATOM     28  C   UNL     1      -0.891  10.674  22.973  0.00  0.00    +0.000 A 
ATOM     29  C   UNL     1      -0.276   9.609  22.302  0.00  0.00    +0.000 A 
ATOM     30  C   UNL     1       0.438   9.804  21.105  0.00  0.00    +0.000 A 
ATOM     31  C   UNL     1       0.489  11.115  20.595  0.00  0.00    +0.000 A 
ATOM     32  C   UNL     1      -0.110  12.187  21.267  0.00  0.00    +0.000 A 
BRANCH  27  34
ATOM     33  N   UNL     1      -1.871  13.951  23.734  0.00  0.00    +0.000 NA
ATOM     34  C   UNL     1      -1.393  13.064  23.161  0.00  0.00    +0.000 C 
ENDBRANCH  27  34
ENDBRANCH  21  30
ENDBRANCH  20  25
ENDBRANCH  19  20
ENDBRANCH   1  19
TORSDOF 6
ENDMDL
MODEL 2
REMARK VINA RESULT:     -10.4      0.474      1.795
REMARK  Name = 
REMARK  6 active torsions:
REMARK  status: ('A' for Active; 'I' for Inactive)
REMARK    1  A    between atoms: C_2  and  C_3
REMARK    2  A    between atoms: C_6  and  C_7
REMARK    3  A    between atoms: C_11  and  C_12
REMARK    4  A    between atoms: C_12  and  O_13
REMARK    5  A    between atoms: O_13  and  C_14
REMARK    6  A    between atoms: N_19  and  C_20
REMARK                            x       y       z     vdW  Elec       q    Type
REMARK                         _______ _______ _______ _____ _____    ______ ____
ROOT
ATOM      1  C   UNL     1       1.210   3.033  20.666  0.00  0.00    +0.000 C 
ATOM      2  C   UNL     1       0.848   2.816  19.191  0.00  0.00    +0.000 C 
ATOM      3  C   UNL     1       2.113   2.350  18.511  0.00  0.00    +0.000 C 
ATOM      4  C   UNL     1       2.755   3.289  17.508  0.00  0.00    +0.000 C 
ATOM      5  O   UNL     1       2.146   3.797  16.576  0.00  0.00    +0.000 OA
ATOM      6  N   UNL     1       4.108   3.316  17.773  0.00  0.00    +0.000 N 
ATOM      7  C   UNL     1       4.351   2.765  19.018  0.00  0.00    +0.000 C 
ATOM      8  O   UNL     1       5.373   2.841  19.686  0.00  0.00    +0.000 OA
ATOM      9  N   UNL     1       3.144   2.243  19.503  0.00  0.00    +0.000 N 
ATOM     10  C   UNL     1       2.689   2.637  20.818  0.00  0.00    +0.000 C 
ENDROOT
BRANCH   6  11
ATOM     11  C   UNL     1       5.086   3.966  16.980  0.00  0.00    +0.000 A 
ATOM     12  C   UNL     1       5.783   5.083  17.464  0.00  0.00    +0.000 A 
ATOM     13  C   UNL     1       6.698   5.756  16.655  0.00  0.00    +0.000 A 
ATOM     14 CL   UNL     1       7.561   7.104  17.287  0.00  0.00    +0.000 Cl
ATOM     15  C   UNL     1       6.917   5.352  15.344  0.00  0.00    +0.000 A 
ATOM     16  C   UNL     1       6.233   4.244  14.857  0.00  0.00    +0.000 A 
ATOM     17 CL   UNL     1       6.459   3.764  13.219  0.00  0.00    +0.000 Cl
ATOM     18  C   UNL     1       5.344   3.536  15.670  0.00  0.00    +0.000 A 
ENDBRANCH   6  11
BRANCH   1  19
ATOM     19  O   UNL     1       0.981   4.410  20.968  0.00  0.00    +0.000 OA
BRANCH  19  20
ATOM     20  C   UNL     1       2.176   5.195  20.933  0.00  0.00    +0.000 C 
BRANCH  20  25
ATOM     21  C   UNL     1       0.969   8.812  20.447  0.00  0.00    +0.000 A 
ATOM     22  C   UNL     1       1.497   9.063  19.168  0.00  0.00    +0.000 A 
ATOM     23  C   UNL     1       2.201   8.082  18.465  0.00  0.00    +0.000 A 
ATOM     24  C   UNL     1       2.408   6.828  19.034  0.00  0.00    +0.000 A 
ATOM     25  C   UNL     1       1.910   6.540  20.308  0.00  0.00    +0.000 A 
ATOM     26  C   UNL     1       1.207   7.540  21.002  0.00  0.00    +0.000 A 
BRANCH  21  30
ATOM     27  C   UNL     1      -1.552  11.663  22.486  0.00  0.00    +0.000 A 
ATOM     28  C   UNL     1      -1.212  11.857  21.148  0.00  0.00    +0.000 A 
ATOM     29  C   UNL     1      -0.374  10.942  20.498  0.00  0.00    +0.000 A 
ATOM     30  C   UNL     1       0.149   9.818  21.165  0.00  0.00    +0.000 A 
ATOM     31  C   UNL     1      -0.187   9.664  22.523  0.00  0.00    +0.000 A 
ATOM     32  C   UNL     1      -1.037  10.566  23.175  0.00  0.00    +0.000 A 
BRANCH  27  34
ATOM     33  N   UNL     1      -3.154  13.316  23.677  0.00  0.00    +0.000 NA
ATOM     34  C   UNL     1      -2.439  12.575  23.143  0.00  0.00    +0.000 C 
ENDBRANCH  27  34
ENDBRANCH  21  30
ENDBRANCH  20  25
ENDBRANCH  19  20
ENDBRANCH   1  19
TORSDOF 6
ENDMDL
MODEL 3
REMARK VINA RESULT:     -10.2      0.756      1.008
REMARK  Name = 
REMARK  6 active torsions:
REMARK  status: ('A' for Active; 'I' for Inactive)
REMARK    1  A    between atoms: C_2  and  C_3
REMARK    2  A    between atoms: C_6  and  C_7
REMARK    3  A    between atoms: C_11  and  C_12
REMARK    4  A    between atoms: C_12  and  O_13
REMARK    5  A    between atoms: O_13  and  C_14
REMARK    6  A    between atoms: N_19  and  C_20
REMARK                            x       y       z     vdW  Elec       q    Type
REMARK                         _______ _______ _______ _____ _____    ______ ____
ROOT
ATOM      1  C   UNL     1       1.211   2.940  20.616  0.00  0.00    +0.000 C 
ATOM      2  C   UNL     1       0.886   2.602  19.156  0.00  0.00    +0.000 C 
ATOM      3  C   UNL     1       2.198   2.232  18.506  0.00  0.00    +0.000 C 
ATOM      4  C   UNL     1       2.746   3.174  17.451  0.00  0.00    +0.000 C 
ATOM      5  O   UNL     1       2.094   3.561  16.491  0.00  0.00    +0.000 OA
ATOM      6  N   UNL     1       4.086   3.358  17.717  0.00  0.00    +0.000 N 
ATOM      7  C   UNL     1       4.376   2.908  18.992  0.00  0.00    +0.000 C 
ATOM      8  O   UNL     1       5.379   3.129  19.656  0.00  0.00    +0.000 OA
ATOM      9  N   UNL     1       3.226   2.291  19.504  0.00  0.00    +0.000 N 
ATOM     10  C   UNL     1       2.723   2.710  20.794  0.00  0.00    +0.000 C 
ENDROOT
BRANCH   6  11
ATOM     11  C   UNL     1       4.997   4.060  16.889  0.00  0.00    +0.000 A 
ATOM     12  C   UNL     1       5.261   3.630  15.580  0.00  0.00    +0.000 A 
ATOM     13  C   UNL     1       6.207   4.287  14.792  0.00  0.00    +0.000 A 
ATOM     14 CL   UNL     1       6.485   3.757  13.179  0.00  0.00    +0.000 Cl
ATOM     15  C   UNL     1       6.927   5.362  15.298  0.00  0.00    +0.000 A 
ATOM     16  C   UNL     1       6.671   5.796  16.593  0.00  0.00    +0.000 A 
ATOM     17 CL   UNL     1       7.592   7.094  17.248  0.00  0.00    +0.000 Cl
ATOM     18  C   UNL     1       5.697   5.172  17.379  0.00  0.00    +0.000 A 
ENDBRANCH   6  11
BRANCH   1  19
ATOM     19  O   UNL     1       0.837   4.301  20.838  0.00  0.00    +0.000 OA
BRANCH  19  20
ATOM     20  C   UNL     1       1.957   5.149  21.109  0.00  0.00    +0.000 C 
BRANCH  20  25
ATOM     21  C   UNL     1       1.167   8.707  19.885  0.00  0.00    +0.000 A 
ATOM     22  C   UNL     1       1.892   8.704  18.680  0.00  0.00    +0.000 A 
ATOM     23  C   UNL     1       2.596   7.573  18.256  0.00  0.00    +0.000 A 
ATOM     24  C   UNL     1       2.604   6.421  19.038  0.00  0.00    +0.000 A 
ATOM     25  C   UNL     1       1.906   6.385  20.249  0.00  0.00    +0.000 A 
ATOM     26  C   UNL     1       1.206   7.532  20.661  0.00  0.00    +0.000 A 
BRANCH  21  30
ATOM     27  C   UNL     1      -1.336  11.995  21.133  0.00  0.00    +0.000 A 
ATOM     28  C   UNL     1      -1.392  11.529  19.820  0.00  0.00    +0.000 A 
ATOM     29  C   UNL     1      -0.560  10.478  19.415  0.00  0.00    +0.000 A 
ATOM     30  C   UNL     1       0.349   9.871  20.302  0.00  0.00    +0.000 A 
ATOM     31  C   UNL     1       0.404  10.382  21.612  0.00  0.00    +0.000 A 
ATOM     32  C   UNL     1      -0.435  11.422  22.029  0.00  0.00    +0.000 A 
BRANCH  27  34
ATOM     33  N   UNL     1      -2.920  13.891  21.915  0.00  0.00    +0.000 NA
ATOM     34  C   UNL     1      -2.211  13.043  21.563  0.00  0.00    +0.000 C 
ENDBRANCH  27  34
ENDBRANCH  21  30
ENDBRANCH  20  25
ENDBRANCH  19  20
ENDBRANCH   1  19
TORSDOF 6
ENDMDL
MODEL 4
REMARK VINA RESULT:     -10.1      0.881      1.953
REMARK  Name = 
REMARK  6 active torsions:
REMARK  status: ('A' for Active; 'I' for Inactive)
REMARK    1  A    between atoms: C_2  and  C_3
REMARK    2  A    between atoms: C_6  and  C_7
REMARK    3  A    between atoms: C_11  and  C_12
REMARK    4  A    between atoms: C_12  and  O_13
REMARK    5  A    between atoms: O_13  and  C_14
REMARK    6  A    between atoms: N_19  and  C_20
REMARK                            x       y       z     vdW  Elec       q    Type
REMARK                         _______ _______ _______ _____ _____    ______ ____
ROOT
ATOM      1  C   UNL     1       1.178   3.100  20.617  0.00  0.00    +0.000 C 
ATOM      2  C   UNL     1       0.889   2.703  19.164  0.00  0.00    +0.000 C 
ATOM      3  C   UNL     1       2.211   2.276  18.572  0.00  0.00    +0.000 C 
ATOM      4  C   UNL     1       2.812   3.158  17.493  0.00  0.00    +0.000 C 
ATOM      5  O   UNL     1       2.198   3.514  16.497  0.00  0.00    +0.000 OA
ATOM      6  N   UNL     1       4.148   3.325  17.792  0.00  0.00    +0.000 N 
ATOM      7  C   UNL     1       4.389   2.926  19.095  0.00  0.00    +0.000 C 
ATOM      8  O   UNL     1       5.376   3.156  19.779  0.00  0.00    +0.000 OA
ATOM      9  N   UNL     1       3.210   2.358  19.598  0.00  0.00    +0.000 N 
ATOM     10  C   UNL     1       2.678   2.847  20.851  0.00  0.00    +0.000 C 
ENDROOT
BRANCH   6  11
ATOM     11  C   UNL     1       5.099   3.968  16.962  0.00  0.00    +0.000 A 
ATOM     12  C   UNL     1       5.801   5.097  17.410  0.00  0.00    +0.000 A 
ATOM     13  C   UNL     1       6.689   5.764  16.565  0.00  0.00    +0.000 A 
ATOM     14 CL   UNL     1       7.559   7.126  17.153  0.00  0.00    +0.000 Cl
ATOM     15  C   UNL     1       6.874   5.341  15.255  0.00  0.00    +0.000 A 
ATOM     16  C   UNL     1       6.184   4.221  14.804  0.00  0.00    +0.000 A 
ATOM     17 CL   UNL     1       6.368   3.717  13.168  0.00  0.00    +0.000 Cl
ATOM     18  C   UNL     1       5.323   3.520  15.652  0.00  0.00    +0.000 A 
ENDBRANCH   6  11
BRANCH   1  19
ATOM     19  O   UNL     1       0.829   4.478  20.766  0.00  0.00    +0.000 OA
BRANCH  19  20
ATOM     20  C   UNL     1       1.960   5.314  21.021  0.00  0.00    +0.000 C 
BRANCH  20  25
ATOM     21  C   UNL     1       1.344   8.819  19.565  0.00  0.00    +0.000 A 
ATOM     22  C   UNL     1       2.071   8.703  18.366  0.00  0.00    +0.000 A 
ATOM     23  C   UNL     1       2.721   7.516  18.021  0.00  0.00    +0.000 A 
ATOM     24  C   UNL     1       2.672   6.418  18.875  0.00  0.00    +0.000 A 
ATOM     25  C   UNL     1       1.971   6.494  20.082  0.00  0.00    +0.000 A 
ATOM     26  C   UNL     1       1.325   7.697  20.416  0.00  0.00    +0.000 A 
BRANCH  21  30
ATOM     27  C   UNL     1      -1.002  12.297  20.582  0.00  0.00    +0.000 A 
ATOM     28  C   UNL     1      -1.066  11.758  19.298  0.00  0.00    +0.000 A 
ATOM     29  C   UNL     1      -0.284  10.645  18.966  0.00  0.00    +0.000 A 
ATOM     30  C   UNL     1       0.581  10.046  19.901  0.00  0.00    +0.000 A 
ATOM     31  C   UNL     1       0.647  10.629  21.180  0.00  0.00    +0.000 A 
ATOM     32  C   UNL     1      -0.143  11.733  21.524  0.00  0.00    +0.000 A 
BRANCH  27  34
ATOM     33  N   UNL     1      -2.501  14.312  21.221  0.00  0.00    +0.000 NA
ATOM     34  C   UNL     1      -1.828  13.411  20.937  0.00  0.00    +0.000 C 
ENDBRANCH  27  34
ENDBRANCH  21  30
ENDBRANCH  20  25
ENDBRANCH  19  20
ENDBRANCH   1  19
TORSDOF 6
ENDMDL
MODEL 5
REMARK VINA RESULT:      -8.6      4.563      9.854
REMARK  Name = 
REMARK  6 active torsions:
REMARK  status: ('A' for Active; 'I' for Inactive)
REMARK    1  A    between atoms: C_2  and  C_3
REMARK    2  A    between atoms: C_6  and  C_7
REMARK    3  A    between atoms: C_11  and  C_12
REMARK    4  A    between atoms: C_12  and  O_13
REMARK    5  A    between atoms: O_13  and  C_14
REMARK    6  A    between atoms: N_19  and  C_20
REMARK                            x       y       z     vdW  Elec       q    Type
REMARK                         _______ _______ _______ _____ _____    ______ ____
ROOT
ATOM      1  C   UNL     1      -0.239   9.618  20.480  0.00  0.00    +0.000 C 
ATOM      2  C   UNL     1       0.211  10.584  21.584  0.00  0.00    +0.000 C 
ATOM      3  C   UNL     1      -0.138  11.971  21.097  0.00  0.00    +0.000 C 
ATOM      4  C   UNL     1       1.010  12.903  20.759  0.00  0.00    +0.000 C 
ATOM      5  O   UNL     1       1.936  13.134  21.524  0.00  0.00    +0.000 OA
ATOM      6  N   UNL     1       0.715  13.500  19.552  0.00  0.00    +0.000 N 
ATOM      7  C   UNL     1      -0.319  12.821  18.934  0.00  0.00    +0.000 C 
ATOM      8  O   UNL     1      -0.677  12.900  17.767  0.00  0.00    +0.000 OA
ATOM      9  N   UNL     1      -0.793  11.850  19.827  0.00  0.00    +0.000 N 
ATOM     10  C   UNL     1      -0.891  10.477  19.382  0.00  0.00    +0.000 C 
ENDROOT
BRANCH   6  11
ATOM     11  C   UNL     1       1.464  14.540  18.948  0.00  0.00    +0.000 A 
ATOM     12  C   UNL     1       2.805  14.347  18.584  0.00  0.00    +0.000 A 
ATOM     13  C   UNL     1       3.555  15.394  18.049  0.00  0.00    +0.000 A 
ATOM     14 CL   UNL     1       5.188  15.118  17.582  0.00  0.00    +0.000 Cl
ATOM     15  C   UNL     1       2.998  16.658  17.892  0.00  0.00    +0.000 A 
ATOM     16  C   UNL     1       1.669  16.857  18.247  0.00  0.00    +0.000 A 
ATOM     17 CL   UNL     1       0.983  18.430  18.104  0.00  0.00    +0.000 Cl
ATOM     18  C   UNL     1       0.895  15.807  18.747  0.00  0.00    +0.000 A 
ENDBRANCH   6  11
BRANCH   1  19
ATOM     19  O   UNL     1       0.920   8.925  20.014  0.00  0.00    +0.000 OA
BRANCH  19  20
ATOM     20  C   UNL     1       1.439   8.000  20.973  0.00  0.00    +0.000 C 
BRANCH  20  25
ATOM     21  C   UNL     1       3.076   5.390  18.672  0.00  0.00    +0.000 A 
ATOM     22  C   UNL     1       2.453   4.228  19.160  0.00  0.00    +0.000 A 
ATOM     23  C   UNL     1       1.507   4.285  20.187  0.00  0.00    +0.000 A 
ATOM     24  C   UNL     1       1.172   5.508  20.762  0.00  0.00    +0.000 A 
ATOM     25  C   UNL     1       1.776   6.686  20.315  0.00  0.00    +0.000 A 
ATOM     26  C   UNL     1       2.728   6.611  19.284  0.00  0.00    +0.000 A 
BRANCH  21  30
ATOM     27  C   UNL     1       5.941   5.270  15.445  0.00  0.00    +0.000 A 
ATOM     28  C   UNL     1       5.564   6.491  16.004  0.00  0.00    +0.000 A 
ATOM     29  C   UNL     1       4.616   6.525  17.034  0.00  0.00    +0.000 A 
ATOM     30  C   UNL     1       4.018   5.350  17.528  0.00  0.00    +0.000 A 
ATOM     31  C   UNL     1       4.397   4.136  16.925  0.00  0.00    +0.000 A 
ATOM     32  C   UNL     1       5.355   4.092  15.905  0.00  0.00    +0.000 A 
BRANCH  27  34
ATOM     33  N   UNL     1       7.748   5.195  13.589  0.00  0.00    +0.000 NA
ATOM     34  C   UNL     1       6.938   5.226  14.419  0.00  0.00    +0.000 C 
ENDBRANCH  27  34
ENDBRANCH  21  30
ENDBRANCH  20  25
ENDBRANCH  19  20
ENDBRANCH   1  19
TORSDOF 6
ENDMDL
MODEL 6
REMARK VINA RESULT:      -8.4      4.595      9.956
REMARK  Name = 
REMARK  6 active torsions:
REMARK  status: ('A' for Active; 'I' for Inactive)
REMARK    1  A    between atoms: C_2  and  C_3
REMARK    2  A    between atoms: C_6  and  C_7
REMARK    3  A    between atoms: C_11  and  C_12
REMARK    4  A    between atoms: C_12  and  O_13
REMARK    5  A    between atoms: O_13  and  C_14
REMARK    6  A    between atoms: N_19  and  C_20
REMARK                            x       y       z     vdW  Elec       q    Type
REMARK                         _______ _______ _______ _____ _____    ______ ____
ROOT
ATOM      1  C   UNL     1      -0.209   9.665  20.423  0.00  0.00    +0.000 C 
ATOM      2  C   UNL     1       0.209  10.612  21.554  0.00  0.00    +0.000 C 
ATOM      3  C   UNL     1      -0.169  12.002  21.101  0.00  0.00    +0.000 C 
ATOM      4  C   UNL     1       0.959  12.970  20.796  0.00  0.00    +0.000 C 
ATOM      5  O   UNL     1       1.874  13.203  21.574  0.00  0.00    +0.000 OA
ATOM      6  N   UNL     1       0.659  13.592  19.603  0.00  0.00    +0.000 N 
ATOM      7  C   UNL     1      -0.354  12.904  18.959  0.00  0.00    +0.000 C 
ATOM      8  O   UNL     1      -0.706  13.006  17.792  0.00  0.00    +0.000 OA
ATOM      9  N   UNL     1      -0.812  11.900  19.823  0.00  0.00    +0.000 N 
ATOM     10  C   UNL     1      -0.873  10.537  19.342  0.00  0.00    +0.000 C 
ENDROOT
BRANCH   6  11
ATOM     11  C   UNL     1       1.387  14.665  19.032  0.00  0.00    +0.000 A 
ATOM     12  C   UNL     1       0.768  15.893  18.760  0.00  0.00    +0.000 A 
ATOM     13  C   UNL     1       1.474  16.924  18.139  0.00  0.00    +0.000 A 
ATOM     14 CL   UNL     1       0.696  18.431  17.848  0.00  0.00    +0.000 Cl
ATOM     15  C   UNL     1       2.796  16.745  17.751  0.00  0.00    +0.000 A 
ATOM     16  C   UNL     1       3.418  15.531  18.019  0.00  0.00    +0.000 A 
ATOM     17 CL   UNL     1       5.040  15.279  17.498  0.00  0.00    +0.000 Cl
ATOM     18  C   UNL     1       2.734  14.505  18.677  0.00  0.00    +0.000 A 
ENDBRANCH   6  11
BRANCH   1  19
ATOM     19  O   UNL     1       0.969   9.012  19.947  0.00  0.00    +0.000 OA
BRANCH  19  20
ATOM     20  C   UNL     1       1.545   8.129  20.914  0.00  0.00    +0.000 C 
BRANCH  20  25
ATOM     21  C   UNL     1       3.096   5.375  18.725  0.00  0.00    +0.000 A 
ATOM     22  C   UNL     1       2.402   4.260  19.229  0.00  0.00    +0.000 A 
ATOM     23  C   UNL     1       1.437   4.395  20.230  0.00  0.00    +0.000 A 
ATOM     24  C   UNL     1       1.153   5.649  20.764  0.00  0.00    +0.000 A 
ATOM     25  C   UNL     1       1.828   6.782  20.300  0.00  0.00    +0.000 A 
ATOM     26  C   UNL     1       2.798   6.628  19.295  0.00  0.00    +0.000 A 
BRANCH  21  30
ATOM     27  C   UNL     1       5.779   5.000  15.365  0.00  0.00    +0.000 A 
ATOM     28  C   UNL     1       5.369   3.866  16.065  0.00  0.00    +0.000 A 
ATOM     29  C   UNL     1       4.518   3.996  17.169  0.00  0.00    +0.000 A 
ATOM     30  C   UNL     1       4.061   5.254  17.605  0.00  0.00    +0.000 A 
ATOM     31  C   UNL     1       4.515   6.383  16.897  0.00  0.00    +0.000 A 
ATOM     32  C   UNL     1       5.354   6.260  15.783  0.00  0.00    +0.000 A 
BRANCH  27  34
ATOM     33  N   UNL     1       7.299   4.757  13.280  0.00  0.00    +0.000 NA
ATOM     34  C   UNL     1       6.618   4.869  14.212  0.00  0.00    +0.000 C 
ENDBRANCH  27  34
ENDBRANCH  21  30
ENDBRANCH  20  25
ENDBRANCH  19  20
ENDBRANCH   1  19
TORSDOF 6
ENDMDL
MODEL 7
REMARK VINA RESULT:      -8.4      4.445     10.008
REMARK  Name = 
REMARK  6 active torsions:
REMARK  status: ('A' for Active; 'I' for Inactive)
REMARK    1  A    between atoms: C_2  and  C_3
REMARK    2  A    between atoms: C_6  and  C_7
REMARK    3  A    between atoms: C_11  and  C_12
REMARK    4  A    between atoms: C_12  and  O_13
REMARK    5  A    between atoms: O_13  and  C_14
REMARK    6  A    between atoms: N_19  and  C_20
REMARK                            x       y       z     vdW  Elec       q    Type
REMARK                         _______ _______ _______ _____ _____    ______ ____
ROOT
ATOM      1  C   UNL     1      -0.266   9.575  21.539  0.00  0.00    +0.000 C 
ATOM      2  C   UNL     1      -0.273  10.798  22.465  0.00  0.00    +0.000 C 
ATOM      3  C   UNL     1      -0.780  11.952  21.634  0.00  0.00    +0.000 C 
ATOM      4  C   UNL     1       0.201  13.061  21.304  0.00  0.00    +0.000 C 
ATOM      5  O   UNL     1       0.871  13.639  22.149  0.00  0.00    +0.000 OA
ATOM      6  N   UNL     1       0.063  13.350  19.963  0.00  0.00    +0.000 N 
ATOM      7  C   UNL     1      -0.651  12.343  19.339  0.00  0.00    +0.000 C 
ATOM      8  O   UNL     1      -0.754  12.129  18.139  0.00  0.00    +0.000 OA
ATOM      9  N   UNL     1      -1.104  11.458  20.327  0.00  0.00    +0.000 N 
ATOM     10  C   UNL     1      -0.821  10.046  20.184  0.00  0.00    +0.000 C 
ENDROOT
BRANCH   6  11
ATOM     11  C   UNL     1       0.700  14.419  19.285  0.00  0.00    +0.000 A 
ATOM     12  C   UNL     1       2.026  14.305  18.843  0.00  0.00    +0.000 A 
ATOM     13  C   UNL     1       2.668  15.384  18.233  0.00  0.00    +0.000 A 
ATOM     14 CL   UNL     1       4.285  15.203  17.673  0.00  0.00    +0.000 Cl
ATOM     15  C   UNL     1       2.017  16.601  18.078  0.00  0.00    +0.000 A 
ATOM     16  C   UNL     1       0.701  16.722  18.511  0.00  0.00    +0.000 A 
ATOM     17 CL   UNL     1      -0.100  18.239  18.369  0.00  0.00    +0.000 Cl
ATOM     18  C   UNL     1       0.033  15.637  19.086  0.00  0.00    +0.000 A 
ENDBRANCH   6  11
BRANCH   1  19
ATOM     19  O   UNL     1       1.083   9.113  21.444  0.00  0.00    +0.000 OA
BRANCH  19  20
ATOM     20  C   UNL     1       1.502   8.891  20.095  0.00  0.00    +0.000 C 
BRANCH  20  25
ATOM     21  C   UNL     1       3.225   5.763  18.672  0.00  0.00    +0.000 A 
ATOM     22  C   UNL     1       2.774   4.808  19.600  0.00  0.00    +0.000 A 
ATOM     23  C   UNL     1       1.912   5.156  20.643  0.00  0.00    +0.000 A 
ATOM     24  C   UNL     1       1.493   6.475  20.793  0.00  0.00    +0.000 A 
ATOM     25  C   UNL     1       1.927   7.459  19.900  0.00  0.00    +0.000 A 
ATOM     26  C   UNL     1       2.796   7.092  18.858  0.00  0.00    +0.000 A 
BRANCH  21  30
ATOM     27  C   UNL     1       5.554   4.662  15.208  0.00  0.00    +0.000 A 
ATOM     28  C   UNL     1       5.019   3.676  16.036  0.00  0.00    +0.000 A 
ATOM     29  C   UNL     1       4.285   4.040  17.172  0.00  0.00    +0.000 A 
ATOM     30  C   UNL     1       4.071   5.389  17.513  0.00  0.00    +0.000 A 
ATOM     31  C   UNL     1       4.649   6.361  16.675  0.00  0.00    +0.000 A 
ATOM     32  C   UNL     1       5.371   6.005  15.529  0.00  0.00    +0.000 A 
BRANCH  27  34
ATOM     33  N   UNL     1       6.859   4.000  13.069  0.00  0.00    +0.000 NA
ATOM     34  C   UNL     1       6.273   4.295  14.025  0.00  0.00    +0.000 C 
ENDBRANCH  27  34
ENDBRANCH  21  30
ENDBRANCH  20  25
ENDBRANCH  19  20
ENDBRANCH   1  19
TORSDOF 6
ENDMDL
MODEL 8
REMARK VINA RESULT:      -8.3      4.608     10.107
REMARK  Name = 
REMARK  6 active torsions:
REMARK  status: ('A' for Active; 'I' for Inactive)
REMARK    1  A    between atoms: C_2  and  C_3
REMARK    2  A    between atoms: C_6  and  C_7
REMARK    3  A    between atoms: C_11  and  C_12
REMARK    4  A    between atoms: C_12  and  O_13
REMARK    5  A    between atoms: O_13  and  C_14
REMARK    6  A    between atoms: N_19  and  C_20
REMARK                            x       y       z     vdW  Elec       q    Type
REMARK                         _______ _______ _______ _____ _____    ______ ____
ROOT
ATOM      1  C   UNL     1      -0.467  10.240  21.271  0.00  0.00    +0.000 C 
ATOM      2  C   UNL     1      -0.303  11.435  22.218  0.00  0.00    +0.000 C 
ATOM      3  C   UNL     1      -0.570  12.669  21.389  0.00  0.00    +0.000 C 
ATOM      4  C   UNL     1       0.600  13.596  21.118  0.00  0.00    +0.000 C 
ATOM      5  O   UNL     1       1.324  14.041  21.999  0.00  0.00    +0.000 OA
ATOM      6  N   UNL     1       0.569  13.921  19.778  0.00  0.00    +0.000 N 
ATOM      7  C   UNL     1      -0.281  13.059  19.109  0.00  0.00    +0.000 C 
ATOM      8  O   UNL     1      -0.369  12.880  17.902  0.00  0.00    +0.000 OA
ATOM      9  N   UNL     1      -0.919  12.253  20.062  0.00  0.00    +0.000 N 
ATOM     10  C   UNL     1      -0.877  10.816  19.903  0.00  0.00    +0.000 C 
ENDROOT
BRANCH   6  11
ATOM     11  C   UNL     1       1.407  14.872  19.146  0.00  0.00    +0.000 A 
ATOM     12  C   UNL     1       0.894  16.093  18.685  0.00  0.00    +0.000 A 
ATOM     13  C   UNL     1       1.710  16.998  18.006  0.00  0.00    +0.000 A 
ATOM     14 CL   UNL     1       1.060  18.502  17.482  0.00  0.00    +0.000 Cl
ATOM     15  C   UNL     1       3.041  16.695  17.746  0.00  0.00    +0.000 A 
ATOM     16  C   UNL     1       3.559  15.487  18.201  0.00  0.00    +0.000 A 
ATOM     17 CL   UNL     1       5.193  15.079  17.842  0.00  0.00    +0.000 Cl
ATOM     18  C   UNL     1       2.762  14.590  18.918  0.00  0.00    +0.000 A 
ENDBRANCH   6  11
BRANCH   1  19
ATOM     19  O   UNL     1       0.785   9.554  21.219  0.00  0.00    +0.000 OA
BRANCH  19  20
ATOM     20  C   UNL     1       1.200   9.253  19.884  0.00  0.00    +0.000 C 
BRANCH  20  25
ATOM     21  C   UNL     1       3.100   6.146  18.649  0.00  0.00    +0.000 A 
ATOM     22  C   UNL     1       2.809   5.262  19.704  0.00  0.00    +0.000 A 
ATOM     23  C   UNL     1       1.998   5.647  20.774  0.00  0.00    +0.000 A 
ATOM     24  C   UNL     1       1.469   6.934  20.823  0.00  0.00    +0.000 A 
ATOM     25  C   UNL     1       1.742   7.848  19.801  0.00  0.00    +0.000 A 
ATOM     26  C   UNL     1       2.562   7.446  18.734  0.00  0.00    +0.000 A 
BRANCH  21  30
ATOM     27  C   UNL     1       5.532   4.908  15.305  0.00  0.00    +0.000 A 
ATOM     28  C   UNL     1       5.384   6.263  15.601  0.00  0.00    +0.000 A 
ATOM     29  C   UNL     1       4.574   6.660  16.673  0.00  0.00    +0.000 A 
ATOM     30  C   UNL     1       3.890   5.721  17.468  0.00  0.00    +0.000 A 
ATOM     31  C   UNL     1       4.035   4.364  17.127  0.00  0.00    +0.000 A 
ATOM     32  C   UNL     1       4.854   3.958  16.067  0.00  0.00    +0.000 A 
BRANCH  27  34
ATOM     33  N   UNL     1       7.079   4.162  13.364  0.00  0.00    +0.000 NA
ATOM     34  C   UNL     1       6.389   4.496  14.234  0.00  0.00    +0.000 C 
ENDBRANCH  27  34
ENDBRANCH  21  30
ENDBRANCH  20  25
ENDBRANCH  19  20
ENDBRANCH   1  19
TORSDOF 6
ENDMDL
MODEL 9
REMARK VINA RESULT:      -8.2      4.359      9.998
REMARK  Name = 
REMARK  6 active torsions:
REMARK  status: ('A' for Active; 'I' for Inactive)
REMARK    1  A    between atoms: C_2  and  C_3
REMARK    2  A    between atoms: C_6  and  C_7
REMARK    3  A    between atoms: C_11  and  C_12
REMARK    4  A    between atoms: C_12  and  O_13
REMARK    5  A    between atoms: O_13  and  C_14
REMARK    6  A    between atoms: N_19  and  C_20
REMARK                            x       y       z     vdW  Elec       q    Type
REMARK                         _______ _______ _______ _____ _____    ______ ____
ROOT
ATOM      1  C   UNL     1      -0.293   9.283  21.609  0.00  0.00    +0.000 C 
ATOM      2  C   UNL     1      -0.469  10.471  22.562  0.00  0.00    +0.000 C 
ATOM      3  C   UNL     1      -0.997  11.610  21.722  0.00  0.00    +0.000 C 
ATOM      4  C   UNL     1      -0.082  12.800  21.502  0.00  0.00    +0.000 C 
ATOM      5  O   UNL     1       0.472  13.400  22.414  0.00  0.00    +0.000 OA
ATOM      6  N   UNL     1      -0.136  13.121  20.162  0.00  0.00    +0.000 N 
ATOM      7  C   UNL     1      -0.717  12.083  19.456  0.00  0.00    +0.000 C 
ATOM      8  O   UNL     1      -0.708  11.901  18.247  0.00  0.00    +0.000 OA
ATOM      9  N   UNL     1      -1.176  11.134  20.381  0.00  0.00    +0.000 N 
ATOM     10  C   UNL     1      -0.774   9.754  20.225  0.00  0.00    +0.000 C 
ENDROOT
BRANCH   6  11
ATOM     11  C   UNL     1       0.468  14.256  19.567  0.00  0.00    +0.000 A 
ATOM     12  C   UNL     1      -0.290  15.392  19.248  0.00  0.00    +0.000 A 
ATOM     13  C   UNL     1       0.296  16.482  18.604  0.00  0.00    +0.000 A 
ATOM     14 CL   UNL     1      -0.652  17.874  18.255  0.00  0.00    +0.000 Cl
ATOM     15  C   UNL     1       1.636  16.451  18.238  0.00  0.00    +0.000 A 
ATOM     16  C   UNL     1       2.396  15.329  18.551  0.00  0.00    +0.000 A 
ATOM     17 CL   UNL     1       4.044  15.260  18.059  0.00  0.00    +0.000 Cl
ATOM     18  C   UNL     1       1.830  14.249  19.233  0.00  0.00    +0.000 A 
ENDBRANCH   6  11
BRANCH   1  19
ATOM     19  O   UNL     1       1.091   8.928  21.612  0.00  0.00    +0.000 OA
BRANCH  19  20
ATOM     20  C   UNL     1       1.632   8.780  20.296  0.00  0.00    +0.000 C 
BRANCH  20  25
ATOM     21  C   UNL     1       3.307   5.687  18.747  0.00  0.00    +0.000 A 
ATOM     22  C   UNL     1       2.855   4.703  19.646  0.00  0.00    +0.000 A 
ATOM     23  C   UNL     1       2.007   5.024  20.709  0.00  0.00    +0.000 A 
ATOM     24  C   UNL     1       1.603   6.341  20.909  0.00  0.00    +0.000 A 
ATOM     25  C   UNL     1       2.039   7.351  20.046  0.00  0.00    +0.000 A 
ATOM     26  C   UNL     1       2.894   7.012  18.984  0.00  0.00    +0.000 A 
BRANCH  21  30
ATOM     27  C   UNL     1       5.590   4.661  15.230  0.00  0.00    +0.000 A 
ATOM     28  C   UNL     1       5.191   3.667  16.121  0.00  0.00    +0.000 A 
ATOM     29  C   UNL     1       4.471   4.008  17.274  0.00  0.00    +0.000 A 
ATOM     30  C   UNL     1       4.138   5.344  17.567  0.00  0.00    +0.000 A 
ATOM     31  C   UNL     1       4.581   6.329  16.664  0.00  0.00    +0.000 A 
ATOM     32  C   UNL     1       5.287   5.994  15.503  0.00  0.00    +0.000 A 
BRANCH  27  34
ATOM     33  N   UNL     1       6.857   4.033  13.058  0.00  0.00    +0.000 NA
ATOM     34  C   UNL     1       6.292   4.313  14.031  0.00  0.00    +0.000 C 
ENDBRANCH  27  34
ENDBRANCH  21  30
ENDBRANCH  20  25
ENDBRANCH  19  20
ENDBRANCH   1  19
TORSDOF 6
ENDMDL
