MODEL 1
REMARK VINA RESULT:      -8.1      0.000      0.000
REMARK  Name = 
REMARK  7 active torsions:
REMARK  status: ('A' for Active; 'I' for Inactive)
REMARK    1  A    between atoms: C_1  and  C_2
REMARK    2  A    between atoms: C_5  and  C_6
REMARK    3  A    between atoms: C_7  and  C_8
REMARK    4  A    between atoms: C_8  and  N_9
REMARK    5  A    between atoms: N_17  and  C_18
REMARK    6  A    between atoms: C_18  and  C_19
REMARK    7  A    between atoms: C_24  and  N_25
REMARK                            x       y       z     vdW  Elec       q    Type
REMARK                         _______ _______ _______ _____ _____    ______ ____
ROOT
ATOM      1  N   UNL     1       2.451   4.354  19.665  0.00  0.00    +0.000 N 
ATOM      2  C   UNL     1       2.812   3.150  20.276  0.00  0.00    +0.000 C 
ATOM      3  O   UNL     1       3.550   3.062  21.247  0.00  0.00    +0.000 OA
ATOM      4  C   UNL     1       2.348   1.916  19.523  0.00  0.00    +0.000 C 
ATOM      5  C   UNL     1       0.864   1.995  19.133  0.00  0.00    +0.000 C 
ATOM      6  C   UNL     1       0.434   3.398  18.716  0.00  0.00    +0.000 C 
ATOM      7  C   UNL     1       1.657   4.276  18.429  0.00  0.00    +0.000 C 
ATOM      8  C   UNL     1       2.429   3.703  17.193  0.00  0.00    +0.000 C 
ATOM      9  N   UNL     1       3.585   2.817  17.394  0.00  0.00    +0.000 NA
ATOM     10  C   UNL     1       3.304   1.701  18.323  0.00  0.00    +0.000 C 
ENDROOT
BRANCH   1  11
ATOM     11  C   UNL     1       3.233   5.558  19.957  0.00  0.00    +0.000 C 
BRANCH  11  18
ATOM     12  C   UNL     1       4.040   7.045  17.164  0.00  0.00    +0.000 C 
ATOM     13  C   UNL     1       3.047   7.466  18.176  0.00  0.00    +0.000 A 
ATOM     14  N   UNL     1       2.414   8.636  18.032  0.00  0.00    +0.000 NA
ATOM     15  O   UNL     1       1.622   8.774  19.151  0.00  0.00    +0.000 OA
ATOM     16  C   UNL     1       1.782   7.695  19.960  0.00  0.00    +0.000 A 
ATOM     17  C   UNL     1       1.045   7.748  21.239  0.00  0.00    +0.000 C 
ATOM     18  C   UNL     1       2.666   6.804  19.378  0.00  0.00    +0.000 A 
ENDBRANCH  11  18
ENDBRANCH   1  11
BRANCH   9  19
ATOM     19  C   UNL     1       4.867   3.502  17.712  0.00  0.00    +0.000 C 
BRANCH  19  20
ATOM     20  C   UNL     1       5.691   4.013  16.545  0.00  0.00    +0.000 A 
ATOM     21  C   UNL     1       5.178   4.001  15.238  0.00  0.00    +0.000 A 
ATOM     22  C   UNL     1       5.957   4.435  14.173  0.00  0.00    +0.000 A 
ATOM     23  C   UNL     1       7.242   4.864  14.438  0.00  0.00    +0.000 A 
ATOM     24  N   UNL     1       7.783   4.871  15.675  0.00  0.00    +0.000 NA
ATOM     25  C   UNL     1       7.021   4.429  16.690  0.00  0.00    +0.000 A 
BRANCH  25  26
ATOM     26  N   UNL     1       7.701   4.372  17.909  0.00  0.00    +0.000 N 
ATOM     27  H   UNL     1       8.561   4.903  17.749  0.00  0.00    +0.000 HD
ATOM     28  H   UNL     1       7.942   3.411  18.120  0.00  0.00    +0.000 HD
ENDBRANCH  25  26
ENDBRANCH  19  20
ENDBRANCH   9  19
TORSDOF 5
ENDMDL
MODEL 2
REMARK VINA RESULT:      -7.8      1.218      1.621
REMARK  Name = 
REMARK  7 active torsions:
REMARK  status: ('A' for Active; 'I' for Inactive)
REMARK    1  A    between atoms: C_1  and  C_2
REMARK    2  A    between atoms: C_5  and  C_6
REMARK    3  A    between atoms: C_7  and  C_8
REMARK    4  A    between atoms: C_8  and  N_9
REMARK    5  A    between atoms: N_17  and  C_18
REMARK    6  A    between atoms: C_18  and  C_19
REMARK    7  A    between atoms: C_24  and  N_25
REMARK                            x       y       z     vdW  Elec       q    Type
REMARK                         _______ _______ _______ _____ _____    ______ ____
ROOT
ATOM      1  N   UNL     1       2.207   4.785  19.601  0.00  0.00    +0.000 N 
ATOM      2  C   UNL     1       2.199   3.664  20.436  0.00  0.00    +0.000 C 
ATOM      3  O   UNL     1       2.462   3.689  21.630  0.00  0.00    +0.000 OA
ATOM      4  C   UNL     1       2.003   2.350  19.699  0.00  0.00    +0.000 C 
ATOM      5  C   UNL     1       0.822   2.404  18.718  0.00  0.00    +0.000 C 
ATOM      6  C   UNL     1       0.701   3.749  18.007  0.00  0.00    +0.000 C 
ATOM      7  C   UNL     1       1.991   4.561  18.164  0.00  0.00    +0.000 C 
ATOM      8  C   UNL     1       3.163   3.820  17.435  0.00  0.00    +0.000 C 
ATOM      9  N   UNL     1       4.068   2.948  18.199  0.00  0.00    +0.000 NA
ATOM     10  C   UNL     1       3.352   1.966  19.042  0.00  0.00    +0.000 C 
ENDROOT
BRANCH   1  11
ATOM     11  C   UNL     1       2.880   6.003  20.059  0.00  0.00    +0.000 C 
BRANCH  11  18
ATOM     12  C   UNL     1       3.586   7.454  17.221  0.00  0.00    +0.000 C 
ATOM     13  C   UNL     1       2.649   7.902  18.275  0.00  0.00    +0.000 A 
ATOM     14  N   UNL     1       2.034   9.084  18.152  0.00  0.00    +0.000 NA
ATOM     15  O   UNL     1       1.298   9.245  19.306  0.00  0.00    +0.000 OA
ATOM     16  C   UNL     1       1.473   8.169  20.114  0.00  0.00    +0.000 A 
ATOM     17  C   UNL     1       0.799   8.245  21.426  0.00  0.00    +0.000 C 
ATOM     18  C   UNL     1       2.312   7.256  19.498  0.00  0.00    +0.000 A 
ENDBRANCH  11  18
ENDBRANCH   1  11
BRANCH   9  19
ATOM     19  C   UNL     1       5.149   3.646  18.946  0.00  0.00    +0.000 C 
BRANCH  19  20
ATOM     20  C   UNL     1       6.012   4.624  18.171  0.00  0.00    +0.000 A 
ATOM     21  C   UNL     1       6.376   5.862  18.724  0.00  0.00    +0.000 A 
ATOM     22  C   UNL     1       7.133   6.765  17.988  0.00  0.00    +0.000 A 
ATOM     23  C   UNL     1       7.504   6.412  16.706  0.00  0.00    +0.000 A 
ATOM     24  N   UNL     1       7.157   5.242  16.127  0.00  0.00    +0.000 NA
ATOM     25  C   UNL     1       6.407   4.390  16.848  0.00  0.00    +0.000 A 
BRANCH  25  26
ATOM     26  N   UNL     1       6.010   3.260  16.128  0.00  0.00    +0.000 N 
ATOM     27  H   UNL     1       6.732   2.562  16.325  0.00  0.00    +0.000 HD
ATOM     28  H   UNL     1       6.014   3.468  15.137  0.00  0.00    +0.000 HD
ENDBRANCH  25  26
ENDBRANCH  19  20
ENDBRANCH   9  19
TORSDOF 5
ENDMDL
MODEL 3
REMARK VINA RESULT:      -7.8      0.409      1.595
REMARK  Name = 
REMARK  7 active torsions:
REMARK  status: ('A' for Active; 'I' for Inactive)
REMARK    1  A    between atoms: C_1  and  C_2
REMARK    2  A    between atoms: C_5  and  C_6
REMARK    3  A    between atoms: C_7  and  C_8
REMARK    4  A    between atoms: C_8  and  N_9
REMARK    5  A    between atoms: N_17  and  C_18
REMARK    6  A    between atoms: C_18  and  C_19
REMARK    7  A    between atoms: C_24  and  N_25
REMARK                            x       y       z     vdW  Elec       q    Type
REMARK                         _______ _______ _______ _____ _____    ______ ____
ROOT
ATOM      1  N   UNL     1       2.562   4.337  19.688  0.00  0.00    +0.000 N 
ATOM      2  C   UNL     1       2.868   3.097  20.256  0.00  0.00    +0.000 C 
ATOM      3  O   UNL     1       3.620   2.939  21.207  0.00  0.00    +0.000 OA
ATOM      4  C   UNL     1       2.320   1.913  19.478  0.00  0.00    +0.000 C 
ATOM      5  C   UNL     1       0.834   2.087  19.125  0.00  0.00    +0.000 C 
ATOM      6  C   UNL     1       0.474   3.524  18.759  0.00  0.00    +0.000 C 
ATOM      7  C   UNL     1       1.739   4.341  18.469  0.00  0.00    +0.000 C 
ATOM      8  C   UNL     1       2.451   3.763  17.199  0.00  0.00    +0.000 C 
ATOM      9  N   UNL     1       3.559   2.808  17.349  0.00  0.00    +0.000 NA
ATOM     10  C   UNL     1       3.236   1.682  18.251  0.00  0.00    +0.000 C 
ENDROOT
BRANCH   1  11
ATOM     11  C   UNL     1       3.417   5.487  19.996  0.00  0.00    +0.000 C 
BRANCH  11  18
ATOM     12  C   UNL     1       1.093   7.480  21.130  0.00  0.00    +0.000 C 
ATOM     13  C   UNL     1       1.900   7.616  19.898  0.00  0.00    +0.000 A 
ATOM     14  N   UNL     1       1.647   8.620  19.051  0.00  0.00    +0.000 NA
ATOM     15  O   UNL     1       2.501   8.437  17.986  0.00  0.00    +0.000 OA
ATOM     16  C   UNL     1       3.258   7.329  18.192  0.00  0.00    +0.000 A 
ATOM     17  C   UNL     1       4.169   6.969  17.087  0.00  0.00    +0.000 C 
ATOM     18  C   UNL     1       2.939   6.769  19.417  0.00  0.00    +0.000 A 
ENDBRANCH  11  18
ENDBRANCH   1  11
BRANCH   9  19
ATOM     19  C   UNL     1       4.885   3.411  17.656  0.00  0.00    +0.000 C 
BRANCH  19  20
ATOM     20  C   UNL     1       5.694   3.945  16.489  0.00  0.00    +0.000 A 
ATOM     21  C   UNL     1       5.187   3.908  15.181  0.00  0.00    +0.000 A 
ATOM     22  C   UNL     1       5.954   4.363  14.116  0.00  0.00    +0.000 A 
ATOM     23  C   UNL     1       7.222   4.840  14.384  0.00  0.00    +0.000 A 
ATOM     24  N   UNL     1       7.757   4.874  15.623  0.00  0.00    +0.000 NA
ATOM     25  C   UNL     1       7.007   4.410  16.638  0.00  0.00    +0.000 A 
BRANCH  25  26
ATOM     26  N   UNL     1       7.685   4.385  17.859  0.00  0.00    +0.000 N 
ATOM     27  H   UNL     1       8.526   4.943  17.699  0.00  0.00    +0.000 HD
ATOM     28  H   UNL     1       7.957   3.434  18.078  0.00  0.00    +0.000 HD
ENDBRANCH  25  26
ENDBRANCH  19  20
ENDBRANCH   9  19
TORSDOF 5
ENDMDL
MODEL 4
REMARK VINA RESULT:      -7.7      2.153      6.170
REMARK  Name = 
REMARK  7 active torsions:
REMARK  status: ('A' for Active; 'I' for Inactive)
REMARK    1  A    between atoms: C_1  and  C_2
REMARK    2  A    between atoms: C_5  and  C_6
REMARK    3  A    between atoms: C_7  and  C_8
REMARK    4  A    between atoms: C_8  and  N_9
REMARK    5  A    between atoms: N_17  and  C_18
REMARK    6  A    between atoms: C_18  and  C_19
REMARK    7  A    between atoms: C_24  and  N_25
REMARK                            x       y       z     vdW  Elec       q    Type
REMARK                         _______ _______ _______ _____ _____    ______ ____
ROOT
ATOM      1  N   UNL     1       3.529   4.085  17.996  0.00  0.00    +0.000 N 
ATOM      2  C   UNL     1       2.180   3.781  17.790  0.00  0.00    +0.000 C 
ATOM      3  O   UNL     1       1.564   4.037  16.764  0.00  0.00    +0.000 OA
ATOM      4  C   UNL     1       1.472   3.255  19.025  0.00  0.00    +0.000 C 
ATOM      5  C   UNL     1       2.263   2.132  19.715  0.00  0.00    +0.000 C 
ATOM      6  C   UNL     1       3.770   2.368  19.693  0.00  0.00    +0.000 C 
ATOM      7  C   UNL     1       4.085   3.824  19.333  0.00  0.00    +0.000 C 
ATOM      8  C   UNL     1       3.543   4.767  20.460  0.00  0.00    +0.000 C 
ATOM      9  N   UNL     1       2.229   5.411  20.310  0.00  0.00    +0.000 NA
ATOM     10  C   UNL     1       1.156   4.460  19.945  0.00  0.00    +0.000 C 
ENDROOT
BRANCH   1  11
ATOM     11  C   UNL     1       4.181   5.049  17.107  0.00  0.00    +0.000 C 
BRANCH  11  18
ATOM     12  C   UNL     1       6.843   5.488  18.947  0.00  0.00    +0.000 C 
ATOM     13  C   UNL     1       6.754   4.940  17.576  0.00  0.00    +0.000 A 
ATOM     14  N   UNL     1       7.875   4.635  16.913  0.00  0.00    +0.000 NA
ATOM     15  O   UNL     1       7.470   4.223  15.662  0.00  0.00    +0.000 OA
ATOM     16  C   UNL     1       6.116   4.284  15.575  0.00  0.00    +0.000 A 
ATOM     17  C   UNL     1       5.549   3.942  14.255  0.00  0.00    +0.000 C 
ATOM     18  C   UNL     1       5.592   4.713  16.783  0.00  0.00    +0.000 A 
ENDBRANCH  11  18
ENDBRANCH   1  11
BRANCH   9  19
ATOM     19  C   UNL     1       2.209   6.632  19.461  0.00  0.00    +0.000 C 
BRANCH  19  20
ATOM     20  C   UNL     1       1.639   7.897  20.075  0.00  0.00    +0.000 A 
ATOM     21  C   UNL     1       1.221   7.925  21.415  0.00  0.00    +0.000 A 
ATOM     22  C   UNL     1       0.664   9.079  21.953  0.00  0.00    +0.000 A 
ATOM     23  C   UNL     1       0.529  10.181  21.133  0.00  0.00    +0.000 A 
ATOM     24  N   UNL     1       0.897  10.191  19.834  0.00  0.00    +0.000 NA
ATOM     25  C   UNL     1       1.415   9.060  19.326  0.00  0.00    +0.000 A 
BRANCH  25  26
ATOM     26  N   UNL     1       1.665   9.134  17.953  0.00  0.00    +0.000 N 
ATOM     27  H   UNL     1       0.750   8.996  17.517  0.00  0.00    +0.000 HD
ATOM     28  H   UNL     1       2.279   8.377  17.677  0.00  0.00    +0.000 HD
ENDBRANCH  25  26
ENDBRANCH  19  20
ENDBRANCH   9  19
TORSDOF 5
ENDMDL
MODEL 5
REMARK VINA RESULT:      -7.6      1.934      2.128
REMARK  Name = 
REMARK  7 active torsions:
REMARK  status: ('A' for Active; 'I' for Inactive)
REMARK    1  A    between atoms: C_1  and  C_2
REMARK    2  A    between atoms: C_5  and  C_6
REMARK    3  A    between atoms: C_7  and  C_8
REMARK    4  A    between atoms: C_8  and  N_9
REMARK    5  A    between atoms: N_17  and  C_18
REMARK    6  A    between atoms: C_18  and  C_19
REMARK    7  A    between atoms: C_24  and  N_25
REMARK                            x       y       z     vdW  Elec       q    Type
REMARK                         _______ _______ _______ _____ _____    ______ ____
ROOT
ATOM      1  N   UNL     1       2.298   5.320  19.541  0.00  0.00    +0.000 N 
ATOM      2  C   UNL     1       2.254   4.208  20.386  0.00  0.00    +0.000 C 
ATOM      3  O   UNL     1       2.325   4.264  21.606  0.00  0.00    +0.000 OA
ATOM      4  C   UNL     1       2.289   2.878  19.654  0.00  0.00    +0.000 C 
ATOM      5  C   UNL     1       1.275   2.822  18.501  0.00  0.00    +0.000 C 
ATOM      6  C   UNL     1       1.152   4.147  17.753  0.00  0.00    +0.000 C 
ATOM      7  C   UNL     1       2.328   5.070  18.092  0.00  0.00    +0.000 C 
ATOM      8  C   UNL     1       3.658   4.430  17.568  0.00  0.00    +0.000 C 
ATOM      9  N   UNL     1       4.504   3.645  18.480  0.00  0.00    +0.000 NA
ATOM     10  C   UNL     1       3.751   2.609  19.221  0.00  0.00    +0.000 C 
ENDROOT
BRANCH   1  11
ATOM     11  C   UNL     1       2.785   6.595  20.073  0.00  0.00    +0.000 C 
BRANCH  11  18
ATOM     12  C   UNL     1       2.826   8.385  17.343  0.00  0.00    +0.000 C 
ATOM     13  C   UNL     1       1.980   8.560  18.544  0.00  0.00    +0.000 A 
ATOM     14  N   UNL     1       1.158   9.612  18.624  0.00  0.00    +0.000 NA
ATOM     15  O   UNL     1       0.572   9.535  19.869  0.00  0.00    +0.000 OA
ATOM     16  C   UNL     1       1.042   8.447  20.530  0.00  0.00    +0.000 A 
ATOM     17  C   UNL     1       0.553   8.286  21.914  0.00  0.00    +0.000 C 
ATOM     18  C   UNL     1       1.933   7.762  19.723  0.00  0.00    +0.000 A 
ENDBRANCH  11  18
ENDBRANCH   1  11
BRANCH   9  19
ATOM     19  C   UNL     1       5.391   4.439  19.372  0.00  0.00    +0.000 C 
BRANCH  19  20
ATOM     20  C   UNL     1       6.184   5.568  18.739  0.00  0.00    +0.000 A 
ATOM     21  C   UNL     1       5.708   6.234  17.599  0.00  0.00    +0.000 A 
ATOM     22  C   UNL     1       6.462   7.239  17.006  0.00  0.00    +0.000 A 
ATOM     23  C   UNL     1       7.684   7.552  17.565  0.00  0.00    +0.000 A 
ATOM     24  N   UNL     1       8.190   6.923  18.648  0.00  0.00    +0.000 NA
ATOM     25  C   UNL     1       7.455   5.939  19.195  0.00  0.00    +0.000 A 
BRANCH  25  26
ATOM     26  N   UNL     1       8.107   5.278  20.239  0.00  0.00    +0.000 N 
ATOM     27  H   UNL     1       9.070   5.171  19.915  0.00  0.00    +0.000 HD
ATOM     28  H   UNL     1       7.698   4.359  20.369  0.00  0.00    +0.000 HD
ENDBRANCH  25  26
ENDBRANCH  19  20
ENDBRANCH   9  19
TORSDOF 5
ENDMDL
MODEL 6
REMARK VINA RESULT:      -7.5      1.259      2.270
REMARK  Name = 
REMARK  7 active torsions:
REMARK  status: ('A' for Active; 'I' for Inactive)
REMARK    1  A    between atoms: C_1  and  C_2
REMARK    2  A    between atoms: C_5  and  C_6
REMARK    3  A    between atoms: C_7  and  C_8
REMARK    4  A    between atoms: C_8  and  N_9
REMARK    5  A    between atoms: N_17  and  C_18
REMARK    6  A    between atoms: C_18  and  C_19
REMARK    7  A    between atoms: C_24  and  N_25
REMARK                            x       y       z     vdW  Elec       q    Type
REMARK                         _______ _______ _______ _____ _____    ______ ____
ROOT
ATOM      1  N   UNL     1       2.280   4.791  19.612  0.00  0.00    +0.000 N 
ATOM      2  C   UNL     1       2.228   3.655  20.424  0.00  0.00    +0.000 C 
ATOM      3  O   UNL     1       2.496   3.647  21.618  0.00  0.00    +0.000 OA
ATOM      4  C   UNL     1       1.977   2.366  19.663  0.00  0.00    +0.000 C 
ATOM      5  C   UNL     1       0.796   2.487  18.687  0.00  0.00    +0.000 C 
ATOM      6  C   UNL     1       0.727   3.849  18.003  0.00  0.00    +0.000 C 
ATOM      7  C   UNL     1       2.050   4.606  18.171  0.00  0.00    +0.000 C 
ATOM      8  C   UNL     1       3.189   3.832  17.423  0.00  0.00    +0.000 C 
ATOM      9  N   UNL     1       4.060   2.909  18.166  0.00  0.00    +0.000 NA
ATOM     10  C   UNL     1       3.307   1.940  18.992  0.00  0.00    +0.000 C 
ENDROOT
BRANCH   1  11
ATOM     11  C   UNL     1       3.003   5.972  20.091  0.00  0.00    +0.000 C 
BRANCH  11  18
ATOM     12  C   UNL     1       0.769   8.014  21.315  0.00  0.00    +0.000 C 
ATOM     13  C   UNL     1       1.514   8.123  20.042  0.00  0.00    +0.000 A 
ATOM     14  N   UNL     1       1.233   9.120  19.196  0.00  0.00    +0.000 NA
ATOM     15  O   UNL     1       2.029   8.910  18.091  0.00  0.00    +0.000 OA
ATOM     16  C   UNL     1       2.779   7.794  18.273  0.00  0.00    +0.000 A 
ATOM     17  C   UNL     1       3.627   7.406  17.128  0.00  0.00    +0.000 C 
ATOM     18  C   UNL     1       2.515   7.254  19.520  0.00  0.00    +0.000 A 
ENDBRANCH  11  18
ENDBRANCH   1  11
BRANCH   9  19
ATOM     19  C   UNL     1       5.171   3.547  18.923  0.00  0.00    +0.000 C 
BRANCH  19  20
ATOM     20  C   UNL     1       6.025   4.560  18.184  0.00  0.00    +0.000 A 
ATOM     21  C   UNL     1       6.380   5.780  18.782  0.00  0.00    +0.000 A 
ATOM     22  C   UNL     1       7.129   6.715  18.080  0.00  0.00    +0.000 A 
ATOM     23  C   UNL     1       7.500   6.414  16.785  0.00  0.00    +0.000 A 
ATOM     24  N   UNL     1       7.161   5.264  16.163  0.00  0.00    +0.000 NA
ATOM     25  C   UNL     1       6.419   4.379  16.852  0.00  0.00    +0.000 A 
BRANCH  25  26
ATOM     26  N   UNL     1       6.030   3.274  16.091  0.00  0.00    +0.000 N 
ATOM     27  H   UNL     1       5.575   2.648  16.760  0.00  0.00    +0.000 HD
ATOM     28  H   UNL     1       6.850   2.814  15.714  0.00  0.00    +0.000 HD
ENDBRANCH  25  26
ENDBRANCH  19  20
ENDBRANCH   9  19
TORSDOF 5
ENDMDL
MODEL 7
REMARK VINA RESULT:      -7.4      2.085      4.808
REMARK  Name = 
REMARK  7 active torsions:
REMARK  status: ('A' for Active; 'I' for Inactive)
REMARK    1  A    between atoms: C_1  and  C_2
REMARK    2  A    between atoms: C_5  and  C_6
REMARK    3  A    between atoms: C_7  and  C_8
REMARK    4  A    between atoms: C_8  and  N_9
REMARK    5  A    between atoms: N_17  and  C_18
REMARK    6  A    between atoms: C_18  and  C_19
REMARK    7  A    between atoms: C_24  and  N_25
REMARK                            x       y       z     vdW  Elec       q    Type
REMARK                         _______ _______ _______ _____ _____    ______ ____
ROOT
ATOM      1  N   UNL     1       4.607   6.372  17.746  0.00  0.00    +0.000 N 
ATOM      2  C   UNL     1       5.360   6.485  16.574  0.00  0.00    +0.000 C 
ATOM      3  O   UNL     1       4.945   6.972  15.531  0.00  0.00    +0.000 OA
ATOM      4  C   UNL     1       6.706   5.786  16.637  0.00  0.00    +0.000 C 
ATOM      5  C   UNL     1       7.486   6.140  17.913  0.00  0.00    +0.000 C 
ATOM      6  C   UNL     1       6.589   6.269  19.141  0.00  0.00    +0.000 C 
ATOM      7  C   UNL     1       5.213   5.648  18.873  0.00  0.00    +0.000 C 
ATOM      8  C   UNL     1       5.374   4.106  18.646  0.00  0.00    +0.000 C 
ATOM      9  N   UNL     1       5.462   3.569  17.280  0.00  0.00    +0.000 NA
ATOM     10  C   UNL     1       6.466   4.268  16.447  0.00  0.00    +0.000 C 
ENDROOT
BRANCH   1  11
ATOM     11  C   UNL     1       3.152   6.521  17.670  0.00  0.00    +0.000 C 
BRANCH  11  18
ATOM     12  C   UNL     1       2.339   5.443  20.643  0.00  0.00    +0.000 C 
ATOM     13  C   UNL     1       2.177   6.803  20.082  0.00  0.00    +0.000 A 
ATOM     14  N   UNL     1       1.556   7.744  20.801  0.00  0.00    +0.000 NA
ATOM     15  O   UNL     1       1.501   8.858  19.993  0.00  0.00    +0.000 OA
ATOM     16  C   UNL     1       2.083   8.585  18.797  0.00  0.00    +0.000 A 
ATOM     17  C   UNL     1       2.025   9.674  17.801  0.00  0.00    +0.000 C 
ATOM     18  C   UNL     1       2.562   7.287  18.799  0.00  0.00    +0.000 A 
ENDBRANCH  11  18
ENDBRANCH   1  11
BRANCH   9  19
ATOM     19  C   UNL     1       4.164   3.404  16.574  0.00  0.00    +0.000 C 
BRANCH  19  20
ATOM     20  C   UNL     1       2.967   2.983  17.406  0.00  0.00    +0.000 A 
ATOM     21  C   UNL     1       1.840   3.813  17.523  0.00  0.00    +0.000 A 
ATOM     22  C   UNL     1       0.768   3.433  18.321  0.00  0.00    +0.000 A 
ATOM     23  C   UNL     1       0.850   2.231  18.994  0.00  0.00    +0.000 A 
ATOM     24  N   UNL     1       1.922   1.413  18.927  0.00  0.00    +0.000 NA
ATOM     25  C   UNL     1       2.958   1.807  18.166  0.00  0.00    +0.000 A 
BRANCH  25  26
ATOM     26  N   UNL     1       4.059   0.951  18.246  0.00  0.00    +0.000 N 
ATOM     27  H   UNL     1       3.795   0.138  17.685  0.00  0.00    +0.000 HD
ATOM     28  H   UNL     1       4.194   0.658  19.207  0.00  0.00    +0.000 HD
ENDBRANCH  25  26
ENDBRANCH  19  20
ENDBRANCH   9  19
TORSDOF 5
ENDMDL
MODEL 8
REMARK VINA RESULT:      -7.4      2.093      6.009
REMARK  Name = 
REMARK  7 active torsions:
REMARK  status: ('A' for Active; 'I' for Inactive)
REMARK    1  A    between atoms: C_1  and  C_2
REMARK    2  A    between atoms: C_5  and  C_6
REMARK    3  A    between atoms: C_7  and  C_8
REMARK    4  A    between atoms: C_8  and  N_9
REMARK    5  A    between atoms: N_17  and  C_18
REMARK    6  A    between atoms: C_18  and  C_19
REMARK    7  A    between atoms: C_24  and  N_25
REMARK                            x       y       z     vdW  Elec       q    Type
REMARK                         _______ _______ _______ _____ _____    ______ ____
ROOT
ATOM      1  N   UNL     1       3.692   4.181  18.005  0.00  0.00    +0.000 N 
ATOM      2  C   UNL     1       2.406   3.714  17.718  0.00  0.00    +0.000 C 
ATOM      3  O   UNL     1       1.832   3.882  16.651  0.00  0.00    +0.000 OA
ATOM      4  C   UNL     1       1.687   3.118  18.916  0.00  0.00    +0.000 C 
ATOM      5  C   UNL     1       2.560   2.108  19.675  0.00  0.00    +0.000 C 
ATOM      6  C   UNL     1       4.027   2.524  19.745  0.00  0.00    +0.000 C 
ATOM      7  C   UNL     1       4.187   4.004  19.379  0.00  0.00    +0.000 C 
ATOM      8  C   UNL     1       3.462   4.886  20.451  0.00  0.00    +0.000 C 
ATOM      9  N   UNL     1       2.093   5.364  20.206  0.00  0.00    +0.000 NA
ATOM     10  C   UNL     1       1.169   4.286  19.791  0.00  0.00    +0.000 C 
ENDROOT
BRANCH   1  11
ATOM     11  C   UNL     1       4.281   5.207  17.142  0.00  0.00    +0.000 C 
BRANCH  11  18
ATOM     12  C   UNL     1       5.689   3.974  14.466  0.00  0.00    +0.000 C 
ATOM     13  C   UNL     1       6.335   4.439  15.713  0.00  0.00    +0.000 A 
ATOM     14  N   UNL     1       7.655   4.296  15.865  0.00  0.00    +0.000 NA
ATOM     15  O   UNL     1       7.938   4.749  17.135  0.00  0.00    +0.000 OA
ATOM     16  C   UNL     1       6.794   5.159  17.740  0.00  0.00    +0.000 A 
ATOM     17  C   UNL     1       6.941   5.601  19.141  0.00  0.00    +0.000 C 
ATOM     18  C   UNL     1       5.729   5.011  16.869  0.00  0.00    +0.000 A 
ENDBRANCH  11  18
ENDBRANCH   1  11
BRANCH   9  19
ATOM     19  C   UNL     1       1.982   6.565  19.335  0.00  0.00    +0.000 C 
BRANCH  19  20
ATOM     20  C   UNL     1       1.580   7.870  19.997  0.00  0.00    +0.000 A 
ATOM     21  C   UNL     1       1.258   7.919  21.363  0.00  0.00    +0.000 A 
ATOM     22  C   UNL     1       0.853   9.112  21.947  0.00  0.00    +0.000 A 
ATOM     23  C   UNL     1       0.769  10.234  21.147  0.00  0.00    +0.000 A 
ATOM     24  N   UNL     1       1.047  10.227  19.826  0.00  0.00    +0.000 NA
ATOM     25  C   UNL     1       1.418   9.059  19.274  0.00  0.00    +0.000 A 
BRANCH  25  26
ATOM     26  N   UNL     1       1.579   9.129  17.888  0.00  0.00    +0.000 N 
ATOM     27  H   UNL     1       2.070  10.012  17.729  0.00  0.00    +0.000 HD
ATOM     28  H   UNL     1       0.670   9.172  17.441  0.00  0.00    +0.000 HD
ENDBRANCH  25  26
ENDBRANCH  19  20
ENDBRANCH   9  19
TORSDOF 5
ENDMDL
MODEL 9
REMARK VINA RESULT:      -7.4      2.527      5.938
REMARK  Name = 
REMARK  7 active torsions:
REMARK  status: ('A' for Active; 'I' for Inactive)
REMARK    1  A    between atoms: C_1  and  C_2
REMARK    2  A    between atoms: C_5  and  C_6
REMARK    3  A    between atoms: C_7  and  C_8
REMARK    4  A    between atoms: C_8  and  N_9
REMARK    5  A    between atoms: N_17  and  C_18
REMARK    6  A    between atoms: C_18  and  C_19
REMARK    7  A    between atoms: C_24  and  N_25
REMARK                            x       y       z     vdW  Elec       q    Type
REMARK                         _______ _______ _______ _____ _____    ______ ____
ROOT
ATOM      1  N   UNL     1       4.002   4.249  17.480  0.00  0.00    +0.000 N 
ATOM      2  C   UNL     1       2.790   3.561  17.583  0.00  0.00    +0.000 C 
ATOM      3  O   UNL     1       2.034   3.350  16.645  0.00  0.00    +0.000 OA
ATOM      4  C   UNL     1       2.386   3.236  19.010  0.00  0.00    +0.000 C 
ATOM      5  C   UNL     1       3.534   2.596  19.808  0.00  0.00    +0.000 C 
ATOM      6  C   UNL     1       4.896   3.199  19.476  0.00  0.00    +0.000 C 
ATOM      7  C   UNL     1       4.732   4.526  18.727  0.00  0.00    +0.000 C 
ATOM      8  C   UNL     1       4.043   5.572  19.667  0.00  0.00    +0.000 C 
ATOM      9  N   UNL     1       2.590   5.785  19.589  0.00  0.00    +0.000 NA
ATOM     10  C   UNL     1       1.816   4.526  19.651  0.00  0.00    +0.000 C 
ENDROOT
BRANCH   1  11
ATOM     11  C   UNL     1       4.256   5.060  16.287  0.00  0.00    +0.000 C 
BRANCH  11  18
ATOM     12  C   UNL     1       6.352   7.227  17.542  0.00  0.00    +0.000 C 
ATOM     13  C   UNL     1       6.598   6.209  16.498  0.00  0.00    +0.000 A 
ATOM     14  N   UNL     1       7.789   6.162  15.890  0.00  0.00    +0.000 NA
ATOM     15  O   UNL     1       7.683   5.173  14.936  0.00  0.00    +0.000 OA
ATOM     16  C   UNL     1       6.438   4.634  14.971  0.00  0.00    +0.000 A 
ATOM     17  C   UNL     1       6.162   3.609  13.944  0.00  0.00    +0.000 C 
ATOM     18  C   UNL     1       5.698   5.238  15.972  0.00  0.00    +0.000 A 
ENDBRANCH  11  18
ENDBRANCH   1  11
BRANCH   9  19
ATOM     19  C   UNL     1       2.132   6.671  18.485  0.00  0.00    +0.000 C 
BRANCH  19  20
ATOM     20  C   UNL     1       1.782   8.104  18.842  0.00  0.00    +0.000 A 
ATOM     21  C   UNL     1       1.891   9.133  17.893  0.00  0.00    +0.000 A 
ATOM     22  C   UNL     1       1.606  10.446  18.245  0.00  0.00    +0.000 A 
ATOM     23  C   UNL     1       1.224  10.704  19.546  0.00  0.00    +0.000 A 
ATOM     24  N   UNL     1       1.127   9.749  20.496  0.00  0.00    +0.000 NA
ATOM     25  C   UNL     1       1.426   8.487  20.142  0.00  0.00    +0.000 A 
BRANCH  25  26
ATOM     26  N   UNL     1       1.402   7.592  21.214  0.00  0.00    +0.000 N 
ATOM     27  H   UNL     1       2.121   6.901  20.990  0.00  0.00    +0.000 HD
ATOM     28  H   UNL     1       0.501   7.129  21.251  0.00  0.00    +0.000 HD
ENDBRANCH  25  26
ENDBRANCH  19  20
ENDBRANCH   9  19
TORSDOF 5
ENDMDL
