MODEL 1
REMARK VINA RESULT:      -8.6      0.000      0.000
REMARK  Name = 
REMARK  7 active torsions:
REMARK  status: ('A' for Active; 'I' for Inactive)
REMARK    1  A    between atoms: C_6  and  C_7
REMARK    2  A    between atoms: C_6  and  C_8
REMARK    3  A    between atoms: C_9  and  C_10
REMARK    4  A    between atoms: C_10  and  C_11
REMARK    5  A    between atoms: C_11  and  C_12
REMARK    6  A    between atoms: C_21  and  O_22
REMARK    7  A    between atoms: O_22  and  C_23
REMARK                            x       y       z     vdW  Elec       q    Type
REMARK                         _______ _______ _______ _____ _____    ______ ____
ROOT
ATOM      1  C   UNL     1       1.868   8.115  19.317  0.00  0.00    +0.000 A 
ATOM      2  C   UNL     1       1.873   7.664  20.644  0.00  0.00    +0.000 A 
ATOM      3  C   UNL     1       1.226   8.388  21.642  0.00  0.00    +0.000 A 
ATOM      4  C   UNL     1       0.592   9.594  21.333  0.00  0.00    +0.000 A 
ATOM      5  C   UNL     1       0.575  10.053  20.021  0.00  0.00    +0.000 A 
ATOM      6  C   UNL     1       1.215   9.320  19.014  0.00  0.00    +0.000 A 
ATOM      7  C   UNL     1      -0.104  11.315  19.692  0.00  0.00    +0.000 C 
ATOM      8  O   UNL     1      -0.241  11.694  18.535  0.00  0.00    +0.000 OA
ATOM      9  C   UNL     1      -0.602  12.141  20.808  0.00  0.00    +0.000 C 
ATOM     10  C   UNL     1      -0.562  11.739  22.087  0.00  0.00    +0.000 C 
ATOM     11  C   UNL     1      -0.031  10.378  22.414  0.00  0.00    +0.000 C 
ATOM     12  O   UNL     1      -0.079   9.922  23.552  0.00  0.00    +0.000 OA
ENDROOT
BRANCH  10  13
ATOM     13  O   UNL     1      -0.972  12.477  23.178  0.00  0.00    +0.000 OA
ATOM     14  C   UNL     1      -1.000  13.892  23.067  0.00  0.00    +0.000 C 
ENDBRANCH  10  13
BRANCH   1  15
ATOM     15  C   UNL     1       2.578   7.344  18.233  0.00  0.00    +0.000 C 
BRANCH  15  16
ATOM     16  C   UNL     1       2.220   5.853  18.129  0.00  0.00    +0.000 C 
BRANCH  16  25
ATOM     17  C   UNL     1       5.419   4.586  18.645  0.00  0.00    +0.000 C 
ATOM     18  C   UNL     1       4.149   4.284  18.322  0.00  0.00    +0.000 C 
ATOM     19  C   UNL     1       3.818   3.317  17.212  0.00  0.00    +0.000 C 
ATOM     20  C   UNL     1       2.911   2.191  17.704  0.00  0.00    +0.000 C 
ATOM     21  C   UNL     1       1.711   2.698  18.508  0.00  0.00    +0.000 C 
ATOM     22  C   UNL     1       2.099   3.665  19.655  0.00  0.00    +0.000 C 
ATOM     23  C   UNL     1       2.933   2.921  20.732  0.00  0.00    +0.000 C 
ATOM     24  C   UNL     1       0.811   4.105  20.372  0.00  0.00    +0.000 C 
ATOM     25  C   UNL     1       2.945   4.858  19.082  0.00  0.00    +0.000 C 
ENDBRANCH  16  25
ENDBRANCH  15  16
ENDBRANCH   1  15
TORSDOF 4
ENDMDL
MODEL 2
REMARK VINA RESULT:      -8.4      0.997      2.142
REMARK  Name = 
REMARK  7 active torsions:
REMARK  status: ('A' for Active; 'I' for Inactive)
REMARK    1  A    between atoms: C_6  and  C_7
REMARK    2  A    between atoms: C_6  and  C_8
REMARK    3  A    between atoms: C_9  and  C_10
REMARK    4  A    between atoms: C_10  and  C_11
REMARK    5  A    between atoms: C_11  and  C_12
REMARK    6  A    between atoms: C_21  and  O_22
REMARK    7  A    between atoms: O_22  and  C_23
REMARK                            x       y       z     vdW  Elec       q    Type
REMARK                         _______ _______ _______ _____ _____    ______ ____
ROOT
ATOM      1  C   UNL     1       1.889   8.356  18.702  0.00  0.00    +0.000 A 
ATOM      2  C   UNL     1       1.130   9.122  17.807  0.00  0.00    +0.000 A 
ATOM      3  C   UNL     1       0.251  10.095  18.276  0.00  0.00    +0.000 A 
ATOM      4  C   UNL     1       0.093  10.292  19.650  0.00  0.00    +0.000 A 
ATOM      5  C   UNL     1       0.841   9.543  20.549  0.00  0.00    +0.000 A 
ATOM      6  C   UNL     1       1.735   8.572  20.080  0.00  0.00    +0.000 A 
ATOM      7  C   UNL     1       0.686   9.758  21.995  0.00  0.00    +0.000 C 
ATOM      8  O   UNL     1       1.408   9.204  22.815  0.00  0.00    +0.000 OA
ATOM      9  C   UNL     1      -0.395  10.656  22.447  0.00  0.00    +0.000 C 
ATOM     10  C   UNL     1      -1.158  11.361  21.598  0.00  0.00    +0.000 C 
ATOM     11  C   UNL     1      -0.891  11.280  20.127  0.00  0.00    +0.000 C 
ATOM     12  O   UNL     1      -1.485  11.991  19.322  0.00  0.00    +0.000 OA
ENDROOT
BRANCH  10  13
ATOM     13  O   UNL     1      -2.208  12.183  21.951  0.00  0.00    +0.000 OA
ATOM     14  C   UNL     1      -2.743  12.075  23.262  0.00  0.00    +0.000 C 
ENDBRANCH  10  13
BRANCH   1  15
ATOM     15  C   UNL     1       2.834   7.291  18.202  0.00  0.00    +0.000 C 
BRANCH  15  16
ATOM     16  C   UNL     1       2.303   5.850  18.251  0.00  0.00    +0.000 C 
BRANCH  16  25
ATOM     17  C   UNL     1       5.494   4.670  18.976  0.00  0.00    +0.000 C 
ATOM     18  C   UNL     1       4.264   4.339  18.549  0.00  0.00    +0.000 C 
ATOM     19  C   UNL     1       4.051   3.394  17.392  0.00  0.00    +0.000 C 
ATOM     20  C   UNL     1       3.148   2.226  17.782  0.00  0.00    +0.000 C 
ATOM     21  C   UNL     1       1.874   2.671  18.505  0.00  0.00    +0.000 C 
ATOM     22  C   UNL     1       2.141   3.616  19.704  0.00  0.00    +0.000 C 
ATOM     23  C   UNL     1       2.915   2.867  20.821  0.00  0.00    +0.000 C 
ATOM     24  C   UNL     1       0.787   3.993  20.331  0.00  0.00    +0.000 C 
ATOM     25  C   UNL     1       2.986   4.851  19.229  0.00  0.00    +0.000 C 
ENDBRANCH  16  25
ENDBRANCH  15  16
ENDBRANCH   1  15
TORSDOF 4
ENDMDL
MODEL 3
REMARK VINA RESULT:      -8.4      1.279      2.549
REMARK  Name = 
REMARK  7 active torsions:
REMARK  status: ('A' for Active; 'I' for Inactive)
REMARK    1  A    between atoms: C_6  and  C_7
REMARK    2  A    between atoms: C_6  and  C_8
REMARK    3  A    between atoms: C_9  and  C_10
REMARK    4  A    between atoms: C_10  and  C_11
REMARK    5  A    between atoms: C_11  and  C_12
REMARK    6  A    between atoms: C_21  and  O_22
REMARK    7  A    between atoms: O_22  and  C_23
REMARK                            x       y       z     vdW  Elec       q    Type
REMARK                         _______ _______ _______ _____ _____    ______ ____
ROOT
ATOM      1  C   UNL     1       1.518   8.710  19.041  0.00  0.00    +0.000 A 
ATOM      2  C   UNL     1       1.705   8.208  20.336  0.00  0.00    +0.000 A 
ATOM      3  C   UNL     1       1.017   8.755  21.416  0.00  0.00    +0.000 A 
ATOM      4  C   UNL     1       0.156   9.838  21.221  0.00  0.00    +0.000 A 
ATOM      5  C   UNL     1      -0.043  10.345  19.943  0.00  0.00    +0.000 A 
ATOM      6  C   UNL     1       0.639   9.788  18.853  0.00  0.00    +0.000 A 
ATOM      7  C   UNL     1      -0.959  11.476  19.734  0.00  0.00    +0.000 C 
ATOM      8  O   UNL     1      -1.251  11.876  18.614  0.00  0.00    +0.000 OA
ATOM      9  C   UNL     1      -1.510  12.146  20.927  0.00  0.00    +0.000 C 
ATOM     10  C   UNL     1      -1.301  11.700  22.175  0.00  0.00    +0.000 C 
ATOM     11  C   UNL     1      -0.512  10.446  22.386  0.00  0.00    +0.000 C 
ATOM     12  O   UNL     1      -0.390   9.937  23.496  0.00  0.00    +0.000 OA
ENDROOT
BRANCH  10  13
ATOM     13  O   UNL     1      -1.752  12.300  23.332  0.00  0.00    +0.000 OA
ATOM     14  C   UNL     1      -3.149  12.317  23.588  0.00  0.00    +0.000 C 
ENDBRANCH  10  13
BRANCH   1  15
ATOM     15  C   UNL     1       2.270   8.131  17.869  0.00  0.00    +0.000 C 
BRANCH  15  16
ATOM     16  C   UNL     1       3.434   7.193  18.219  0.00  0.00    +0.000 C 
BRANCH  16  25
ATOM     17  C   UNL     1       1.543   4.313  17.734  0.00  0.00    +0.000 C 
ATOM     18  C   UNL     1       2.692   4.812  18.222  0.00  0.00    +0.000 C 
ATOM     19  C   UNL     1       3.258   4.358  19.545  0.00  0.00    +0.000 C 
ATOM     20  C   UNL     1       4.696   3.862  19.397  0.00  0.00    +0.000 C 
ATOM     21  C   UNL     1       5.581   4.827  18.603  0.00  0.00    +0.000 C 
ATOM     22  C   UNL     1       4.975   5.243  17.240  0.00  0.00    +0.000 C 
ATOM     23  C   UNL     1       4.880   4.018  16.291  0.00  0.00    +0.000 C 
ATOM     24  C   UNL     1       5.952   6.214  16.553  0.00  0.00    +0.000 C 
ATOM     25  C   UNL     1       3.538   5.839  17.457  0.00  0.00    +0.000 C 
ENDBRANCH  16  25
ENDBRANCH  15  16
ENDBRANCH   1  15
TORSDOF 4
ENDMDL
MODEL 4
REMARK VINA RESULT:      -8.3      1.981      3.542
REMARK  Name = 
REMARK  7 active torsions:
REMARK  status: ('A' for Active; 'I' for Inactive)
REMARK    1  A    between atoms: C_6  and  C_7
REMARK    2  A    between atoms: C_6  and  C_8
REMARK    3  A    between atoms: C_9  and  C_10
REMARK    4  A    between atoms: C_10  and  C_11
REMARK    5  A    between atoms: C_11  and  C_12
REMARK    6  A    between atoms: C_21  and  O_22
REMARK    7  A    between atoms: O_22  and  C_23
REMARK                            x       y       z     vdW  Elec       q    Type
REMARK                         _______ _______ _______ _____ _____    ______ ____
ROOT
ATOM      1  C   UNL     1       2.416   6.161  18.993  0.00  0.00    +0.000 A 
ATOM      2  C   UNL     1       2.022   5.957  20.322  0.00  0.00    +0.000 A 
ATOM      3  C   UNL     1       1.476   6.999  21.068  0.00  0.00    +0.000 A 
ATOM      4  C   UNL     1       1.349   8.271  20.504  0.00  0.00    +0.000 A 
ATOM      5  C   UNL     1       1.732   8.487  19.186  0.00  0.00    +0.000 A 
ATOM      6  C   UNL     1       2.269   7.438  18.431  0.00  0.00    +0.000 A 
ATOM      7  C   UNL     1       1.585   9.822  18.587  0.00  0.00    +0.000 C 
ATOM      8  O   UNL     1       1.800  10.027  17.399  0.00  0.00    +0.000 OA
ATOM      9  C   UNL     1       1.189  10.935  19.471  0.00  0.00    +0.000 C 
ATOM     10  C   UNL     1       0.853  10.759  20.758  0.00  0.00    +0.000 C 
ATOM     11  C   UNL     1       0.830   9.376  21.330  0.00  0.00    +0.000 C 
ATOM     12  O   UNL     1       0.421   9.152  22.466  0.00  0.00    +0.000 OA
ENDROOT
BRANCH  10  13
ATOM     13  O   UNL     1       0.513  11.758  21.647  0.00  0.00    +0.000 OA
ATOM     14  C   UNL     1      -0.731  12.420  21.480  0.00  0.00    +0.000 C 
ENDBRANCH  10  13
BRANCH   1  15
ATOM     15  C   UNL     1       3.020   5.040  18.183  0.00  0.00    +0.000 C 
BRANCH  15  16
ATOM     16  C   UNL     1       4.538   4.852  18.331  0.00  0.00    +0.000 C 
BRANCH  16  25
ATOM     17  C   UNL     1       4.623   7.101  15.678  0.00  0.00    +0.000 C 
ATOM     18  C   UNL     1       5.230   6.050  16.256  0.00  0.00    +0.000 C 
ATOM     19  C   UNL     1       5.762   4.894  15.446  0.00  0.00    +0.000 C 
ATOM     20  C   UNL     1       7.240   4.641  15.738  0.00  0.00    +0.000 C 
ATOM     21  C   UNL     1       7.552   4.587  17.236  0.00  0.00    +0.000 C 
ATOM     22  C   UNL     1       7.013   5.807  18.024  0.00  0.00    +0.000 C 
ATOM     23  C   UNL     1       7.738   7.105  17.577  0.00  0.00    +0.000 C 
ATOM     24  C   UNL     1       7.383   5.626  19.507  0.00  0.00    +0.000 C 
ATOM     25  C   UNL     1       5.471   5.965  17.770  0.00  0.00    +0.000 C 
ENDBRANCH  16  25
ENDBRANCH  15  16
ENDBRANCH   1  15
TORSDOF 4
ENDMDL
MODEL 5
REMARK VINA RESULT:      -8.2      1.286      2.502
REMARK  Name = 
REMARK  7 active torsions:
REMARK  status: ('A' for Active; 'I' for Inactive)
REMARK    1  A    between atoms: C_6  and  C_7
REMARK    2  A    between atoms: C_6  and  C_8
REMARK    3  A    between atoms: C_9  and  C_10
REMARK    4  A    between atoms: C_10  and  C_11
REMARK    5  A    between atoms: C_11  and  C_12
REMARK    6  A    between atoms: C_21  and  O_22
REMARK    7  A    between atoms: O_22  and  C_23
REMARK                            x       y       z     vdW  Elec       q    Type
REMARK                         _______ _______ _______ _____ _____    ______ ____
ROOT
ATOM      1  C   UNL     1       1.525   8.710  19.771  0.00  0.00    +0.000 A 
ATOM      2  C   UNL     1       1.039   9.493  18.715  0.00  0.00    +0.000 A 
ATOM      3  C   UNL     1       0.167  10.551  18.960  0.00  0.00    +0.000 A 
ATOM      4  C   UNL     1      -0.260  10.818  20.263  0.00  0.00    +0.000 A 
ATOM      5  C   UNL     1       0.216  10.053  21.321  0.00  0.00    +0.000 A 
ATOM      6  C   UNL     1       1.103   8.996  21.078  0.00  0.00    +0.000 A 
ATOM      7  C   UNL     1      -0.220  10.343  22.694  0.00  0.00    +0.000 C 
ATOM      8  O   UNL     1       0.263   9.770  23.663  0.00  0.00    +0.000 OA
ATOM      9  C   UNL     1      -1.292  11.340  22.882  0.00  0.00    +0.000 C 
ATOM     10  C   UNL     1      -1.797  12.064  21.871  0.00  0.00    +0.000 C 
ATOM     11  C   UNL     1      -1.234  11.900  20.495  0.00  0.00    +0.000 C 
ATOM     12  O   UNL     1      -1.583  12.619  19.563  0.00  0.00    +0.000 OA
ENDROOT
BRANCH  10  13
ATOM     13  O   UNL     1      -2.823  12.980  21.971  0.00  0.00    +0.000 OA
ATOM     14  C   UNL     1      -3.932  12.668  22.802  0.00  0.00    +0.000 C 
ENDBRANCH  10  13
BRANCH   1  15
ATOM     15  C   UNL     1       2.460   7.554  19.512  0.00  0.00    +0.000 C 
BRANCH  15  16
ATOM     16  C   UNL     1       2.033   6.203  20.106  0.00  0.00    +0.000 C 
BRANCH  16  25
ATOM     17  C   UNL     1       4.057   5.063  17.516  0.00  0.00    +0.000 C 
ATOM     18  C   UNL     1       2.932   4.844  18.219  0.00  0.00    +0.000 C 
ATOM     19  C   UNL     1       1.644   4.432  17.550  0.00  0.00    +0.000 C 
ATOM     20  C   UNL     1       1.088   3.144  18.153  0.00  0.00    +0.000 C 
ATOM     21  C   UNL     1       1.050   3.168  19.684  0.00  0.00    +0.000 C 
ATOM     22  C   UNL     1       2.401   3.568  20.329  0.00  0.00    +0.000 C 
ATOM     23  C   UNL     1       3.480   2.491  20.038  0.00  0.00    +0.000 C 
ATOM     24  C   UNL     1       2.226   3.563  21.858  0.00  0.00    +0.000 C 
ATOM     25  C   UNL     1       2.880   4.947  19.750  0.00  0.00    +0.000 C 
ENDBRANCH  16  25
ENDBRANCH  15  16
ENDBRANCH   1  15
TORSDOF 4
ENDMDL
MODEL 6
REMARK VINA RESULT:      -8.0      1.341      2.810
REMARK  Name = 
REMARK  7 active torsions:
REMARK  status: ('A' for Active; 'I' for Inactive)
REMARK    1  A    between atoms: C_6  and  C_7
REMARK    2  A    between atoms: C_6  and  C_8
REMARK    3  A    between atoms: C_9  and  C_10
REMARK    4  A    between atoms: C_10  and  C_11
REMARK    5  A    between atoms: C_11  and  C_12
REMARK    6  A    between atoms: C_21  and  O_22
REMARK    7  A    between atoms: O_22  and  C_23
REMARK                            x       y       z     vdW  Elec       q    Type
REMARK                         _______ _______ _______ _____ _____    ______ ____
ROOT
ATOM      1  C   UNL     1       1.711   8.462  18.928  0.00  0.00    +0.000 A 
ATOM      2  C   UNL     1       1.873   7.916  20.208  0.00  0.00    +0.000 A 
ATOM      3  C   UNL     1       1.280   8.516  21.316  0.00  0.00    +0.000 A 
ATOM      4  C   UNL     1       0.544   9.694  21.164  0.00  0.00    +0.000 A 
ATOM      5  C   UNL     1       0.372  10.246  19.900  0.00  0.00    +0.000 A 
ATOM      6  C   UNL     1       0.957   9.637  18.783  0.00  0.00    +0.000 A 
ATOM      7  C   UNL     1      -0.414  11.477  19.736  0.00  0.00    +0.000 C 
ATOM      8  O   UNL     1      -0.687  11.931  18.631  0.00  0.00    +0.000 OA
ATOM      9  C   UNL     1      -0.855  12.182  20.955  0.00  0.00    +0.000 C 
ATOM     10  C   UNL     1      -0.666  11.690  22.189  0.00  0.00    +0.000 C 
ATOM     11  C   UNL     1      -0.020  10.350  22.356  0.00  0.00    +0.000 C 
ATOM     12  O   UNL     1       0.071   9.808  23.454  0.00  0.00    +0.000 OA
ENDROOT
BRANCH  10  13
ATOM     13  O   UNL     1      -1.015  12.315  23.368  0.00  0.00    +0.000 OA
ATOM     14  C   UNL     1      -1.458  13.663  23.316  0.00  0.00    +0.000 C 
ENDBRANCH  10  13
BRANCH   1  15
ATOM     15  C   UNL     1       2.362   7.825  17.725  0.00  0.00    +0.000 C 
BRANCH  15  16
ATOM     16  C   UNL     1       3.778   7.271  17.947  0.00  0.00    +0.000 C 
BRANCH  16  25
ATOM     17  C   UNL     1       3.537   3.988  19.075  0.00  0.00    +0.000 C 
ATOM     18  C   UNL     1       4.373   4.958  18.667  0.00  0.00    +0.000 C 
ATOM     19  C   UNL     1       5.683   5.226  19.367  0.00  0.00    +0.000 C 
ATOM     20  C   UNL     1       6.857   5.176  18.392  0.00  0.00    +0.000 C 
ATOM     21  C   UNL     1       6.615   5.997  17.122  0.00  0.00    +0.000 C 
ATOM     22  C   UNL     1       5.273   5.669  16.421  0.00  0.00    +0.000 C 
ATOM     23  C   UNL     1       5.285   4.214  15.881  0.00  0.00    +0.000 C 
ATOM     24  C   UNL     1       5.150   6.563  15.173  0.00  0.00    +0.000 C 
ATOM     25  C   UNL     1       4.088   5.833  17.438  0.00  0.00    +0.000 C 
ENDBRANCH  16  25
ENDBRANCH  15  16
ENDBRANCH   1  15
TORSDOF 4
ENDMDL
MODEL 7
REMARK VINA RESULT:      -7.9      1.511      3.239
REMARK  Name = 
REMARK  7 active torsions:
REMARK  status: ('A' for Active; 'I' for Inactive)
REMARK    1  A    between atoms: C_6  and  C_7
REMARK    2  A    between atoms: C_6  and  C_8
REMARK    3  A    between atoms: C_9  and  C_10
REMARK    4  A    between atoms: C_10  and  C_11
REMARK    5  A    between atoms: C_11  and  C_12
REMARK    6  A    between atoms: C_21  and  O_22
REMARK    7  A    between atoms: O_22  and  C_23
REMARK                            x       y       z     vdW  Elec       q    Type
REMARK                         _______ _______ _______ _____ _____    ______ ____
ROOT
ATOM      1  C   UNL     1       1.086   9.332  18.637  0.00  0.00    +0.000 A 
ATOM      2  C   UNL     1       0.139  10.167  18.028  0.00  0.00    +0.000 A 
ATOM      3  C   UNL     1      -0.719  10.946  18.799  0.00  0.00    +0.000 A 
ATOM      4  C   UNL     1      -0.667  10.875  20.194  0.00  0.00    +0.000 A 
ATOM      5  C   UNL     1       0.269  10.055  20.812  0.00  0.00    +0.000 A 
ATOM      6  C   UNL     1       1.141   9.279  20.038  0.00  0.00    +0.000 A 
ATOM      7  C   UNL     1       0.335   9.989  22.279  0.00  0.00    +0.000 C 
ATOM      8  O   UNL     1       1.217   9.371  22.862  0.00  0.00    +0.000 OA
ATOM      9  C   UNL     1      -0.720  10.677  23.049  0.00  0.00    +0.000 C 
ATOM     10  C   UNL     1      -1.658  11.444  22.472  0.00  0.00    +0.000 C 
ATOM     11  C   UNL     1      -1.627  11.658  20.992  0.00  0.00    +0.000 C 
ATOM     12  O   UNL     1      -2.393  12.439  20.435  0.00  0.00    +0.000 OA
ENDROOT
BRANCH  10  13
ATOM     13  O   UNL     1      -2.693  12.080  23.127  0.00  0.00    +0.000 OA
ATOM     14  C   UNL     1      -2.458  13.370  23.673  0.00  0.00    +0.000 C 
ENDBRANCH  10  13
BRANCH   1  15
ATOM     15  C   UNL     1       2.010   8.475  17.809  0.00  0.00    +0.000 C 
BRANCH  15  16
ATOM     16  C   UNL     1       2.704   7.325  18.555  0.00  0.00    +0.000 C 
BRANCH  16  25
ATOM     17  C   UNL     1       1.300   4.261  17.691  0.00  0.00    +0.000 C 
ATOM     18  C   UNL     1       2.303   4.872  18.345  0.00  0.00    +0.000 C 
ATOM     19  C   UNL     1       2.765   4.409  19.704  0.00  0.00    +0.000 C 
ATOM     20  C   UNL     1       4.265   4.117  19.714  0.00  0.00    +0.000 C 
ATOM     21  C   UNL     1       5.096   5.240  19.089  0.00  0.00    +0.000 C 
ATOM     22  C   UNL     1       4.604   5.664  17.683  0.00  0.00    +0.000 C 
ATOM     23  C   UNL     1       4.794   4.504  16.669  0.00  0.00    +0.000 C 
ATOM     24  C   UNL     1       5.513   6.798  17.175  0.00  0.00    +0.000 C 
ATOM     25  C   UNL     1       3.083   6.051  17.745  0.00  0.00    +0.000 C 
ENDBRANCH  16  25
ENDBRANCH  15  16
ENDBRANCH   1  15
TORSDOF 4
ENDMDL
MODEL 8
REMARK VINA RESULT:      -7.9      1.715      3.676
REMARK  Name = 
REMARK  7 active torsions:
REMARK  status: ('A' for Active; 'I' for Inactive)
REMARK    1  A    between atoms: C_6  and  C_7
REMARK    2  A    between atoms: C_6  and  C_8
REMARK    3  A    between atoms: C_9  and  C_10
REMARK    4  A    between atoms: C_10  and  C_11
REMARK    5  A    between atoms: C_11  and  C_12
REMARK    6  A    between atoms: C_21  and  O_22
REMARK    7  A    between atoms: O_22  and  C_23
REMARK                            x       y       z     vdW  Elec       q    Type
REMARK                         _______ _______ _______ _____ _____    ______ ____
ROOT
ATOM      1  C   UNL     1       2.066   7.849  19.048  0.00  0.00    +0.000 A 
ATOM      2  C   UNL     1       1.745   8.647  17.942  0.00  0.00    +0.000 A 
ATOM      3  C   UNL     1       0.995   9.809  18.100  0.00  0.00    +0.000 A 
ATOM      4  C   UNL     1       0.524  10.171  19.364  0.00  0.00    +0.000 A 
ATOM      5  C   UNL     1       0.837   9.392  20.471  0.00  0.00    +0.000 A 
ATOM      6  C   UNL     1       1.602   8.229  20.316  0.00  0.00    +0.000 A 
ATOM      7  C   UNL     1       0.354   9.780  21.805  0.00  0.00    +0.000 C 
ATOM      8  O   UNL     1       0.703   9.188  22.819  0.00  0.00    +0.000 OA
ATOM      9  C   UNL     1      -0.598  10.904  21.893  0.00  0.00    +0.000 C 
ATOM     10  C   UNL     1      -0.948  11.648  20.832  0.00  0.00    +0.000 C 
ATOM     11  C   UNL     1      -0.325  11.369  19.501  0.00  0.00    +0.000 C 
ATOM     12  O   UNL     1      -0.525  12.091  18.529  0.00  0.00    +0.000 OA
ENDROOT
BRANCH  10  13
ATOM     13  O   UNL     1      -1.860  12.683  20.839  0.00  0.00    +0.000 OA
ATOM     14  C   UNL     1      -2.398  13.105  22.084  0.00  0.00    +0.000 C 
ENDBRANCH  10  13
BRANCH   1  15
ATOM     15  C   UNL     1       2.868   6.581  18.883  0.00  0.00    +0.000 C 
BRANCH  15  16
ATOM     16  C   UNL     1       3.972   6.623  17.815  0.00  0.00    +0.000 C 
BRANCH  16  25
ATOM     17  C   UNL     1       4.729   3.554  19.270  0.00  0.00    +0.000 C 
ATOM     18  C   UNL     1       5.234   4.670  18.716  0.00  0.00    +0.000 C 
ATOM     19  C   UNL     1       6.434   5.374  19.300  0.00  0.00    +0.000 C 
ATOM     20  C   UNL     1       7.539   5.552  18.261  0.00  0.00    +0.000 C 
ATOM     21  C   UNL     1       7.027   6.123  16.936  0.00  0.00    +0.000 C 
ATOM     22  C   UNL     1       5.813   5.352  16.358  0.00  0.00    +0.000 C 
ATOM     23  C   UNL     1       6.226   3.909  15.963  0.00  0.00    +0.000 C 
ATOM     24  C   UNL     1       5.394   6.029  15.041  0.00  0.00    +0.000 C 
ATOM     25  C   UNL     1       4.667   5.285  17.429  0.00  0.00    +0.000 C 
ENDBRANCH  16  25
ENDBRANCH  15  16
ENDBRANCH   1  15
TORSDOF 4
ENDMDL
MODEL 9
REMARK VINA RESULT:      -7.9      0.816      2.144
REMARK  Name = 
REMARK  7 active torsions:
REMARK  status: ('A' for Active; 'I' for Inactive)
REMARK    1  A    between atoms: C_6  and  C_7
REMARK    2  A    between atoms: C_6  and  C_8
REMARK    3  A    between atoms: C_9  and  C_10
REMARK    4  A    between atoms: C_10  and  C_11
REMARK    5  A    between atoms: C_11  and  C_12
REMARK    6  A    between atoms: C_21  and  O_22
REMARK    7  A    between atoms: O_22  and  C_23
REMARK                            x       y       z     vdW  Elec       q    Type
REMARK                         _______ _______ _______ _____ _____    ______ ____
ROOT
ATOM      1  C   UNL     1       1.589   8.337  19.748  0.00  0.00    +0.000 A 
ATOM      2  C   UNL     1       1.470   8.035  21.111  0.00  0.00    +0.000 A 
ATOM      3  C   UNL     1       0.690   8.829  21.948  0.00  0.00    +0.000 A 
ATOM      4  C   UNL     1       0.045   9.959  21.440  0.00  0.00    +0.000 A 
ATOM      5  C   UNL     1       0.151  10.270  20.090  0.00  0.00    +0.000 A 
ATOM      6  C   UNL     1       0.925   9.465  19.244  0.00  0.00    +0.000 A 
ATOM      7  C   UNL     1      -0.539  11.450  19.550  0.00  0.00    +0.000 C 
ATOM      8  O   UNL     1      -0.567  11.693  18.350  0.00  0.00    +0.000 OA
ATOM      9  C   UNL     1      -1.188  12.367  20.507  0.00  0.00    +0.000 C 
ATOM     10  C   UNL     1      -1.269  12.110  21.821  0.00  0.00    +0.000 C 
ATOM     11  C   UNL     1      -0.722  10.823  22.355  0.00  0.00    +0.000 C 
ATOM     12  O   UNL     1      -0.873  10.492  23.527  0.00  0.00    +0.000 OA
ENDROOT
BRANCH  10  13
ATOM     13  O   UNL     1      -1.824  12.941  22.772  0.00  0.00    +0.000 OA
ATOM     14  C   UNL     1      -1.049  14.026  23.260  0.00  0.00    +0.000 C 
ENDBRANCH  10  13
BRANCH   1  15
ATOM     15  C   UNL     1       2.443   7.489  18.838  0.00  0.00    +0.000 C 
BRANCH  15  16
ATOM     16  C   UNL     1       2.952   6.169  19.437  0.00  0.00    +0.000 C 
BRANCH  16  25
ATOM     17  C   UNL     1       0.588   3.705  20.103  0.00  0.00    +0.000 C 
ATOM     18  C   UNL     1       1.897   3.969  19.956  0.00  0.00    +0.000 C 
ATOM     19  C   UNL     1       2.935   3.388  20.883  0.00  0.00    +0.000 C 
ATOM     20  C   UNL     1       4.018   2.636  20.110  0.00  0.00    +0.000 C 
ATOM     21  C   UNL     1       4.572   3.436  18.928  0.00  0.00    +0.000 C 
ATOM     22  C   UNL     1       3.473   3.989  17.986  0.00  0.00    +0.000 C 
ATOM     23  C   UNL     1       2.726   2.825  17.282  0.00  0.00    +0.000 C 
ATOM     24  C   UNL     1       4.158   4.775  16.854  0.00  0.00    +0.000 C 
ATOM     25  C   UNL     1       2.442   4.838  18.813  0.00  0.00    +0.000 C 
ENDBRANCH  16  25
ENDBRANCH  15  16
ENDBRANCH   1  15
TORSDOF 4
ENDMDL
