MODEL 1
REMARK VINA RESULT:      -7.3      0.000      0.000
REMARK  Name = 
REMARK  5 active torsions:
REMARK  status: ('A' for Active; 'I' for Inactive)
REMARK    1  A    between atoms: C_1  and  C_2
REMARK    2  A    between atoms: C_7  and  C_8
REMARK    3  A    between atoms: C_9  and  O_10
REMARK    4  A    between atoms: C_17  and  C_18
REMARK    5  A    between atoms: C_18  and  N_19
REMARK                            x       y       z     vdW  Elec       q    Type
REMARK                         _______ _______ _______ _____ _____    ______ ____
ROOT
ATOM      1  C   UNL     1       0.532   2.511  19.255  0.00  0.00    +0.000 C 
ATOM      2  C   UNL     1       1.094   3.496  20.233  0.00  0.00    +0.000 C 
ATOM      3  C   UNL     1       1.458   2.979  21.604  0.00  0.00    +0.000 C 
ATOM      4  C   UNL     1       2.734   2.119  21.595  0.00  0.00    +0.000 C 
ATOM      5  C   UNL     1       3.831   2.709  20.756  0.00  0.00    +0.000 C 
ATOM      6  O   UNL     1       5.031   1.939  20.642  0.00  0.00    +0.000 OA
ATOM      7  C   UNL     1       4.278   2.100  19.418  0.00  0.00    +0.000 C 
ATOM      8  C   UNL     1       3.814   0.757  18.917  0.00  0.00    +0.000 C 
ATOM      9  C   UNL     1       4.939   2.982  18.371  0.00  0.00    +0.000 C 
ATOM     10  C   UNL     1       3.928   3.830  17.572  0.00  0.00    +0.000 C 
ATOM     11  C   UNL     1       3.538   5.164  18.245  0.00  0.00    +0.000 C 
ATOM     12  C   UNL     1       2.034   5.321  18.510  0.00  0.00    +0.000 C 
ATOM     13  O   UNL     1       1.803   6.734  18.489  0.00  0.00    +0.000 OA
ATOM     14  C   UNL     1       2.914   7.403  18.061  0.00  0.00    +0.000 C 
ATOM     15  O   UNL     1       3.018   8.611  18.149  0.00  0.00    +0.000 OA
ATOM     16  C   UNL     1       3.872   6.422  17.427  0.00  0.00    +0.000 C 
ATOM     17  C   UNL     1       1.688   4.856  19.884  0.00  0.00    +0.000 C 
ATOM     18  O   UNL     1       0.308   4.705  20.216  0.00  0.00    +0.000 OA
ENDROOT
BRANCH   9  19
ATOM     19  O   UNL     1       5.923   3.836  18.953  0.00  0.00    +0.000 OA
ATOM     20  H   UNL     1       6.680   3.262  19.178  0.00  0.00    +0.000 HD
ENDBRANCH   9  19
BRANCH  16  21
ATOM     21  C   UNL     1       5.363   6.808  17.515  0.00  0.00    +0.000 C 
BRANCH  21  22
ATOM     22  N   UNL     1       6.090   6.817  16.242  0.00  0.00    +0.000 NA
ATOM     23  C   UNL     1       5.363   6.290  15.077  0.00  0.00    +0.000 C 
ATOM     24  C   UNL     1       5.380   4.757  14.966  0.00  0.00    +0.000 C 
ATOM     25  O   UNL     1       6.718   4.245  14.976  0.00  0.00    +0.000 OA
ATOM     26  C   UNL     1       7.398   4.649  16.170  0.00  0.00    +0.000 C 
ATOM     27  C   UNL     1       7.419   6.179  16.321  0.00  0.00    +0.000 C 
ENDBRANCH  21  22
ENDBRANCH  16  21
TORSDOF 3
ENDMDL
MODEL 2
REMARK VINA RESULT:      -6.5      9.385     12.558
REMARK  Name = 
REMARK  5 active torsions:
REMARK  status: ('A' for Active; 'I' for Inactive)
REMARK    1  A    between atoms: C_1  and  C_2
REMARK    2  A    between atoms: C_7  and  C_8
REMARK    3  A    between atoms: C_9  and  O_10
REMARK    4  A    between atoms: C_17  and  C_18
REMARK    5  A    between atoms: C_18  and  N_19
REMARK                            x       y       z     vdW  Elec       q    Type
REMARK                         _______ _______ _______ _____ _____    ______ ____
ROOT
ATOM      1  C   UNL     1      -0.160  12.991  18.523  0.00  0.00    +0.000 C 
ATOM      2  C   UNL     1      -0.703  11.619  18.776  0.00  0.00    +0.000 C 
ATOM      3  C   UNL     1       0.216  10.623  19.443  0.00  0.00    +0.000 C 
ATOM      4  C   UNL     1       0.427  10.917  20.938  0.00  0.00    +0.000 C 
ATOM      5  C   UNL     1      -0.847  11.277  21.648  0.00  0.00    +0.000 C 
ATOM      6  O   UNL     1      -0.731  11.628  23.029  0.00  0.00    +0.000 OA
ATOM      7  C   UNL     1      -1.150  12.697  22.150  0.00  0.00    +0.000 C 
ATOM      8  C   UNL     1      -0.135  13.809  22.169  0.00  0.00    +0.000 C 
ATOM      9  C   UNL     1      -2.593  13.143  22.329  0.00  0.00    +0.000 C 
ATOM     10  C   UNL     1      -3.270  13.540  21.000  0.00  0.00    +0.000 C 
ATOM     11  C   UNL     1      -3.880  12.359  20.215  0.00  0.00    +0.000 C 
ATOM     12  C   UNL     1      -3.322  12.191  18.795  0.00  0.00    +0.000 C 
ATOM     13  O   UNL     1      -4.379  11.568  18.056  0.00  0.00    +0.000 OA
ATOM     14  C   UNL     1      -5.529  11.528  18.791  0.00  0.00    +0.000 C 
ATOM     15  O   UNL     1      -6.495  10.875  18.449  0.00  0.00    +0.000 OA
ATOM     16  C   UNL     1      -5.394  12.458  19.975  0.00  0.00    +0.000 C 
ATOM     17  C   UNL     1      -2.178  11.233  18.786  0.00  0.00    +0.000 C 
ATOM     18  O   UNL     1      -1.388  11.139  17.601  0.00  0.00    +0.000 OA
ENDROOT
BRANCH   9  19
ATOM     19  O   UNL     1      -3.372  12.141  22.980  0.00  0.00    +0.000 OA
ATOM     20  H   UNL     1      -4.302  12.329  22.749  0.00  0.00    +0.000 HD
ENDBRANCH   9  19
BRANCH  16  21
ATOM     21  C   UNL     1      -6.219  12.062  21.218  0.00  0.00    +0.000 C 
BRANCH  21  22
ATOM     22  N   UNL     1      -7.269  13.009  21.608  0.00  0.00    +0.000 NA
ATOM     23  C   UNL     1      -6.892  14.431  21.607  0.00  0.00    +0.000 C 
ATOM     24  C   UNL     1      -6.146  14.883  22.873  0.00  0.00    +0.000 C 
ATOM     25  O   UNL     1      -6.891  14.579  24.057  0.00  0.00    +0.000 OA
ATOM     26  C   UNL     1      -7.156  13.173  24.133  0.00  0.00    +0.000 C 
ATOM     27  C   UNL     1      -7.913  12.672  22.892  0.00  0.00    +0.000 C 
ENDBRANCH  21  22
ENDBRANCH  16  21
TORSDOF 3
ENDMDL
MODEL 3
REMARK VINA RESULT:      -6.2      3.023      5.774
REMARK  Name = 
REMARK  5 active torsions:
REMARK  status: ('A' for Active; 'I' for Inactive)
REMARK    1  A    between atoms: C_1  and  C_2
REMARK    2  A    between atoms: C_7  and  C_8
REMARK    3  A    between atoms: C_9  and  O_10
REMARK    4  A    between atoms: C_17  and  C_18
REMARK    5  A    between atoms: C_18  and  N_19
REMARK                            x       y       z     vdW  Elec       q    Type
REMARK                         _______ _______ _______ _____ _____    ______ ____
ROOT
ATOM      1  C   UNL     1       4.880   3.055  18.501  0.00  0.00    +0.000 C 
ATOM      2  C   UNL     1       3.720   3.445  17.638  0.00  0.00    +0.000 C 
ATOM      3  C   UNL     1       2.727   2.364  17.284  0.00  0.00    +0.000 C 
ATOM      4  C   UNL     1       1.831   1.968  18.470  0.00  0.00    +0.000 C 
ATOM      5  C   UNL     1       1.328   3.152  19.244  0.00  0.00    +0.000 C 
ATOM      6  O   UNL     1       0.540   2.869  20.403  0.00  0.00    +0.000 OA
ATOM      7  C   UNL     1       1.819   3.493  20.660  0.00  0.00    +0.000 C 
ATOM      8  C   UNL     1       2.683   2.578  21.486  0.00  0.00    +0.000 C 
ATOM      9  C   UNL     1       1.741   4.927  21.161  0.00  0.00    +0.000 C 
ATOM     10  C   UNL     1       2.883   5.815  20.623  0.00  0.00    +0.000 C 
ATOM     11  C   UNL     1       2.612   6.434  19.235  0.00  0.00    +0.000 C 
ATOM     12  C   UNL     1       3.656   6.072  18.169  0.00  0.00    +0.000 C 
ATOM     13  O   UNL     1       3.638   7.170  17.249  0.00  0.00    +0.000 OA
ATOM     14  C   UNL     1       2.879   8.197  17.732  0.00  0.00    +0.000 C 
ATOM     15  O   UNL     1       2.560   9.147  17.044  0.00  0.00    +0.000 OA
ATOM     16  C   UNL     1       2.613   7.971  19.202  0.00  0.00    +0.000 C 
ATOM     17  C   UNL     1       3.228   4.868  17.398  0.00  0.00    +0.000 C 
ATOM     18  O   UNL     1       4.180   4.249  16.533  0.00  0.00    +0.000 OA
ENDROOT
BRANCH   9  19
ATOM     19  O   UNL     1       0.484   5.524  20.845  0.00  0.00    +0.000 OA
ATOM     20  H   UNL     1       0.628   6.489  20.877  0.00  0.00    +0.000 HD
ENDBRANCH   9  19
BRANCH  16  21
ATOM     21  C   UNL     1       1.297   8.576  19.733  0.00  0.00    +0.000 C 
BRANCH  21  22
ATOM     22  N   UNL     1       1.442   9.549  20.820  0.00  0.00    +0.000 NA
ATOM     23  C   UNL     1       1.101   9.069  22.169  0.00  0.00    +0.000 C 
ATOM     24  C   UNL     1      -0.404   9.088  22.481  0.00  0.00    +0.000 C 
ATOM     25  O   UNL     1      -0.967  10.387  22.272  0.00  0.00    +0.000 OA
ATOM     26  C   UNL     1      -0.750  10.814  20.921  0.00  0.00    +0.000 C 
ATOM     27  C   UNL     1       0.744  10.824  20.562  0.00  0.00    +0.000 C 
ENDBRANCH  21  22
ENDBRANCH  16  21
TORSDOF 3
ENDMDL
MODEL 4
REMARK VINA RESULT:      -6.2      3.087      5.837
REMARK  Name = 
REMARK  5 active torsions:
REMARK  status: ('A' for Active; 'I' for Inactive)
REMARK    1  A    between atoms: C_1  and  C_2
REMARK    2  A    between atoms: C_7  and  C_8
REMARK    3  A    between atoms: C_9  and  O_10
REMARK    4  A    between atoms: C_17  and  C_18
REMARK    5  A    between atoms: C_18  and  N_19
REMARK                            x       y       z     vdW  Elec       q    Type
REMARK                         _______ _______ _______ _____ _____    ______ ____
ROOT
ATOM      1  C   UNL     1       5.249   3.697  18.554  0.00  0.00    +0.000 C 
ATOM      2  C   UNL     1       4.142   3.986  17.588  0.00  0.00    +0.000 C 
ATOM      3  C   UNL     1       3.385   2.804  17.029  0.00  0.00    +0.000 C 
ATOM      4  C   UNL     1       2.442   2.161  18.061  0.00  0.00    +0.000 C 
ATOM      5  C   UNL     1       1.670   3.172  18.858  0.00  0.00    +0.000 C 
ATOM      6  O   UNL     1       0.816   2.659  19.884  0.00  0.00    +0.000 OA
ATOM      7  C   UNL     1       1.939   3.445  20.346  0.00  0.00    +0.000 C 
ATOM      8  C   UNL     1       2.847   2.597  21.197  0.00  0.00    +0.000 C 
ATOM      9  C   UNL     1       1.573   4.793  20.945  0.00  0.00    +0.000 C 
ATOM     10  C   UNL     1       2.605   5.895  20.624  0.00  0.00    +0.000 C 
ATOM     11  C   UNL     1       2.390   6.598  19.267  0.00  0.00    +0.000 C 
ATOM     12  C   UNL     1       3.589   6.506  18.313  0.00  0.00    +0.000 C 
ATOM     13  O   UNL     1       3.492   7.673  17.488  0.00  0.00    +0.000 OA
ATOM     14  C   UNL     1       2.525   8.519  17.952  0.00  0.00    +0.000 C 
ATOM     15  O   UNL     1       2.132   9.471  17.308  0.00  0.00    +0.000 OA
ATOM     16  C   UNL     1       2.142   8.112  19.356  0.00  0.00    +0.000 C 
ATOM     17  C   UNL     1       3.452   5.333  17.402  0.00  0.00    +0.000 C 
ATOM     18  O   UNL     1       4.582   4.955  16.616  0.00  0.00    +0.000 OA
ENDROOT
BRANCH   9  19
ATOM     19  O   UNL     1       0.277   5.217  20.524  0.00  0.00    +0.000 OA
ATOM     20  H   UNL     1      -0.323   4.469  20.704  0.00  0.00    +0.000 HD
ENDBRANCH   9  19
BRANCH  16  21
ATOM     21  C   UNL     1       0.694   8.452  19.766  0.00  0.00    +0.000 C 
BRANCH  21  22
ATOM     22  N   UNL     1       0.520   9.725  20.474  0.00  0.00    +0.000 NA
ATOM     23  C   UNL     1       1.637  10.146  21.333  0.00  0.00    +0.000 C 
ATOM     24  C   UNL     1       1.646   9.485  22.721  0.00  0.00    +0.000 C 
ATOM     25  O   UNL     1       0.405   9.685  23.406  0.00  0.00    +0.000 OA
ATOM     26  C   UNL     1      -0.682   9.163  22.631  0.00  0.00    +0.000 C 
ATOM     27  C   UNL     1      -0.742   9.804  21.235  0.00  0.00    +0.000 C 
ENDBRANCH  21  22
ENDBRANCH  16  21
TORSDOF 3
ENDMDL
MODEL 5
REMARK VINA RESULT:      -6.1      3.038      5.756
REMARK  Name = 
REMARK  5 active torsions:
REMARK  status: ('A' for Active; 'I' for Inactive)
REMARK    1  A    between atoms: C_1  and  C_2
REMARK    2  A    between atoms: C_7  and  C_8
REMARK    3  A    between atoms: C_9  and  O_10
REMARK    4  A    between atoms: C_17  and  C_18
REMARK    5  A    between atoms: C_18  and  N_19
REMARK                            x       y       z     vdW  Elec       q    Type
REMARK                         _______ _______ _______ _____ _____    ______ ____
ROOT
ATOM      1  C   UNL     1       5.187   3.671  18.637  0.00  0.00    +0.000 C 
ATOM      2  C   UNL     1       4.092   3.960  17.657  0.00  0.00    +0.000 C 
ATOM      3  C   UNL     1       3.309   2.783  17.127  0.00  0.00    +0.000 C 
ATOM      4  C   UNL     1       2.345   2.192  18.170  0.00  0.00    +0.000 C 
ATOM      5  C   UNL     1       1.594   3.244  18.935  0.00  0.00    +0.000 C 
ATOM      6  O   UNL     1       0.723   2.781  19.970  0.00  0.00    +0.000 OA
ATOM      7  C   UNL     1       1.863   3.551  20.416  0.00  0.00    +0.000 C 
ATOM      8  C   UNL     1       2.745   2.705  21.296  0.00  0.00    +0.000 C 
ATOM      9  C   UNL     1       1.528   4.925  20.975  0.00  0.00    +0.000 C 
ATOM     10  C   UNL     1       2.589   5.991  20.630  0.00  0.00    +0.000 C 
ATOM     11  C   UNL     1       2.398   6.661  19.253  0.00  0.00    +0.000 C 
ATOM     12  C   UNL     1       3.599   6.513  18.308  0.00  0.00    +0.000 C 
ATOM     13  O   UNL     1       3.535   7.659  17.451  0.00  0.00    +0.000 OA
ATOM     14  C   UNL     1       2.588   8.541  17.886  0.00  0.00    +0.000 C 
ATOM     15  O   UNL     1       2.222   9.484  17.213  0.00  0.00    +0.000 OA
ATOM     16  C   UNL     1       2.187   8.183  19.298  0.00  0.00    +0.000 C 
ATOM     17  C   UNL     1       3.437   5.318  17.430  0.00  0.00    +0.000 C 
ATOM     18  O   UNL     1       4.562   4.891  16.661  0.00  0.00    +0.000 OA
ENDROOT
BRANCH   9  19
ATOM     19  O   UNL     1       0.245   5.369  20.536  0.00  0.00    +0.000 OA
ATOM     20  H   UNL     1      -0.408   4.855  21.047  0.00  0.00    +0.000 HD
ENDBRANCH   9  19
BRANCH  16  21
ATOM     21  C   UNL     1       0.746   8.570  19.690  0.00  0.00    +0.000 C 
BRANCH  21  22
ATOM     22  N   UNL     1       0.629   9.627  20.700  0.00  0.00    +0.000 NA
ATOM     23  C   UNL     1      -0.732  10.117  20.970  0.00  0.00    +0.000 C 
ATOM     24  C   UNL     1      -1.237  11.159  19.959  0.00  0.00    +0.000 C 
ATOM     25  O   UNL     1      -0.335  12.266  19.852  0.00  0.00    +0.000 OA
ATOM     26  C   UNL     1       0.968  11.812  19.466  0.00  0.00    +0.000 C 
ATOM     27  C   UNL     1       1.524  10.775  20.454  0.00  0.00    +0.000 C 
ENDBRANCH  21  22
ENDBRANCH  16  21
TORSDOF 3
ENDMDL
MODEL 6
REMARK VINA RESULT:      -6.0      2.645      4.772
REMARK  Name = 
REMARK  5 active torsions:
REMARK  status: ('A' for Active; 'I' for Inactive)
REMARK    1  A    between atoms: C_1  and  C_2
REMARK    2  A    between atoms: C_7  and  C_8
REMARK    3  A    between atoms: C_9  and  O_10
REMARK    4  A    between atoms: C_17  and  C_18
REMARK    5  A    between atoms: C_18  and  N_19
REMARK                            x       y       z     vdW  Elec       q    Type
REMARK                         _______ _______ _______ _____ _____    ______ ____
ROOT
ATOM      1  C   UNL     1       1.613   2.294  19.818  0.00  0.00    +0.000 C 
ATOM      2  C   UNL     1       2.530   3.083  20.699  0.00  0.00    +0.000 C 
ATOM      3  C   UNL     1       3.893   2.496  20.983  0.00  0.00    +0.000 C 
ATOM      4  C   UNL     1       4.838   2.575  19.771  0.00  0.00    +0.000 C 
ATOM      5  C   UNL     1       4.780   3.901  19.070  0.00  0.00    +0.000 C 
ATOM      6  O   UNL     1       5.582   4.037  17.893  0.00  0.00    +0.000 OA
ATOM      7  C   UNL     1       4.152   4.085  17.680  0.00  0.00    +0.000 C 
ATOM      8  C   UNL     1       3.722   2.939  16.802  0.00  0.00    +0.000 C 
ATOM      9  C   UNL     1       3.613   5.446  17.269  0.00  0.00    +0.000 C 
ATOM     10  C   UNL     1       2.221   5.747  17.865  0.00  0.00    +0.000 C 
ATOM     11  C   UNL     1       2.250   6.345  19.287  0.00  0.00    +0.000 C 
ATOM     12  C   UNL     1       1.483   5.523  20.332  0.00  0.00    +0.000 C 
ATOM     13  O   UNL     1       1.069   6.476  21.318  0.00  0.00    +0.000 OA
ATOM     14  C   UNL     1       1.319   7.751  20.898  0.00  0.00    +0.000 C 
ATOM     15  O   UNL     1       1.234   8.708  21.642  0.00  0.00    +0.000 OA
ATOM     16  C   UNL     1       1.612   7.737  19.415  0.00  0.00    +0.000 C 
ATOM     17  C   UNL     1       2.394   4.566  21.026  0.00  0.00    +0.000 C 
ATOM     18  O   UNL     1       1.810   3.560  21.853  0.00  0.00    +0.000 OA
ENDROOT
BRANCH   9  19
ATOM     19  O   UNL     1       4.517   6.493  17.617  0.00  0.00    +0.000 OA
ATOM     20  H   UNL     1       4.130   6.936  18.395  0.00  0.00    +0.000 HD
ENDBRANCH   9  19
BRANCH  16  21
ATOM     21  C   UNL     1       2.542   8.864  18.919  0.00  0.00    +0.000 C 
BRANCH  21  22
ATOM     22  N   UNL     1       1.945   9.802  17.963  0.00  0.00    +0.000 NA
ATOM     23  C   UNL     1       2.302  11.218  18.135  0.00  0.00    +0.000 C 
ATOM     24  C   UNL     1       1.484  11.946  19.215  0.00  0.00    +0.000 C 
ATOM     25  O   UNL     1       0.078  11.826  18.977  0.00  0.00    +0.000 OA
ATOM     26  C   UNL     1      -0.305  10.446  18.932  0.00  0.00    +0.000 C 
ATOM     27  C   UNL     1       0.478   9.675  17.857  0.00  0.00    +0.000 C 
ENDBRANCH  21  22
ENDBRANCH  16  21
TORSDOF 3
ENDMDL
MODEL 7
REMARK VINA RESULT:      -5.9      9.558     12.613
REMARK  Name = 
REMARK  5 active torsions:
REMARK  status: ('A' for Active; 'I' for Inactive)
REMARK    1  A    between atoms: C_1  and  C_2
REMARK    2  A    between atoms: C_7  and  C_8
REMARK    3  A    between atoms: C_9  and  O_10
REMARK    4  A    between atoms: C_17  and  C_18
REMARK    5  A    between atoms: C_18  and  N_19
REMARK                            x       y       z     vdW  Elec       q    Type
REMARK                         _______ _______ _______ _____ _____    ______ ____
ROOT
ATOM      1  C   UNL     1       9.334  11.975  17.887  0.00  0.00    +0.000 C 
ATOM      2  C   UNL     1      10.253  11.546  18.990  0.00  0.00    +0.000 C 
ATOM      3  C   UNL     1      11.737  11.594  18.712  0.00  0.00    +0.000 C 
ATOM      4  C   UNL     1      12.290  13.029  18.682  0.00  0.00    +0.000 C 
ATOM      5  C   UNL     1      11.760  13.883  19.798  0.00  0.00    +0.000 C 
ATOM      6  O   UNL     1      12.175  15.252  19.807  0.00  0.00    +0.000 OA
ATOM      7  C   UNL     1      10.766  15.032  19.570  0.00  0.00    +0.000 C 
ATOM      8  C   UNL     1      10.385  15.547  18.206  0.00  0.00    +0.000 C 
ATOM      9  C   UNL     1       9.851  15.474  20.701  0.00  0.00    +0.000 C 
ATOM     10  C   UNL     1       8.633  14.546  20.889  0.00  0.00    +0.000 C 
ATOM     11  C   UNL     1       8.900  13.311  21.776  0.00  0.00    +0.000 C 
ATOM     12  C   UNL     1       8.634  11.967  21.084  0.00  0.00    +0.000 C 
ATOM     13  O   UNL     1       8.293  11.069  22.146  0.00  0.00    +0.000 OA
ATOM     14  C   UNL     1       8.136  11.743  23.323  0.00  0.00    +0.000 C 
ATOM     15  O   UNL     1       8.040  11.170  24.391  0.00  0.00    +0.000 OA
ATOM     16  C   UNL     1       8.027  13.222  23.038  0.00  0.00    +0.000 C 
ATOM     17  C   UNL     1       9.882  11.435  20.464  0.00  0.00    +0.000 C 
ATOM     18  O   UNL     1       9.772  10.321  19.579  0.00  0.00    +0.000 OA
ENDROOT
BRANCH   9  19
ATOM     19  O   UNL     1      10.560  15.585  21.933  0.00  0.00    +0.000 OA
ATOM     20  H   UNL     1       9.943  16.004  22.564  0.00  0.00    +0.000 HD
ENDBRANCH   9  19
BRANCH  16  21
ATOM     21  C   UNL     1       8.522  14.148  24.169  0.00  0.00    +0.000 C 
BRANCH  21  22
ATOM     22  N   UNL     1       7.522  15.070  24.715  0.00  0.00    +0.000 NA
ATOM     23  C   UNL     1       7.754  15.537  26.090  0.00  0.00    +0.000 C 
ATOM     24  C   UNL     1       7.295  14.549  27.175  0.00  0.00    +0.000 C 
ATOM     25  O   UNL     1       5.919  14.190  27.010  0.00  0.00    +0.000 OA
ATOM     26  C   UNL     1       5.705  13.616  25.715  0.00  0.00    +0.000 C 
ATOM     27  C   UNL     1       6.138  14.572  24.592  0.00  0.00    +0.000 C 
ENDBRANCH  21  22
ENDBRANCH  16  21
TORSDOF 3
ENDMDL
MODEL 8
REMARK VINA RESULT:      -5.9      9.071     11.751
REMARK  Name = 
REMARK  5 active torsions:
REMARK  status: ('A' for Active; 'I' for Inactive)
REMARK    1  A    between atoms: C_1  and  C_2
REMARK    2  A    between atoms: C_7  and  C_8
REMARK    3  A    between atoms: C_9  and  O_10
REMARK    4  A    between atoms: C_17  and  C_18
REMARK    5  A    between atoms: C_18  and  N_19
REMARK                            x       y       z     vdW  Elec       q    Type
REMARK                         _______ _______ _______ _____ _____    ______ ____
ROOT
ATOM      1  C   UNL     1      -7.438  11.652  20.465  0.00  0.00    +0.000 C 
ATOM      2  C   UNL     1      -7.154  12.389  19.193  0.00  0.00    +0.000 C 
ATOM      3  C   UNL     1      -7.888  13.689  18.967  0.00  0.00    +0.000 C 
ATOM      4  C   UNL     1      -7.362  14.831  19.855  0.00  0.00    +0.000 C 
ATOM      5  C   UNL     1      -5.863  14.876  19.921  0.00  0.00    +0.000 C 
ATOM      6  O   UNL     1      -5.292  15.869  20.778  0.00  0.00    +0.000 OA
ATOM      7  C   UNL     1      -5.071  14.499  21.182  0.00  0.00    +0.000 C 
ATOM      8  C   UNL     1      -5.708  14.247  22.523  0.00  0.00    +0.000 C 
ATOM      9  C   UNL     1      -3.633  14.019  21.055  0.00  0.00    +0.000 C 
ATOM     10  C   UNL     1      -3.528  12.540  20.626  0.00  0.00    +0.000 C 
ATOM     11  C   UNL     1      -3.591  12.311  19.101  0.00  0.00    +0.000 C 
ATOM     12  C   UNL     1      -4.729  11.385  18.650  0.00  0.00    +0.000 C 
ATOM     13  O   UNL     1      -4.259  10.790  17.434  0.00  0.00    +0.000 OA
ATOM     14  C   UNL     1      -2.943  11.091  17.222  0.00  0.00    +0.000 C 
ATOM     15  O   UNL     1      -2.388  10.862  16.166  0.00  0.00    +0.000 OA
ATOM     16  C   UNL     1      -2.347  11.639  18.498  0.00  0.00    +0.000 C 
ATOM     17  C   UNL     1      -5.943  12.174  18.292  0.00  0.00    +0.000 C 
ATOM     18  O   UNL     1      -7.166  11.470  18.082  0.00  0.00    +0.000 OA
ENDROOT
BRANCH   9  19
ATOM     19  O   UNL     1      -2.889  14.832  20.150  0.00  0.00    +0.000 OA
ATOM     20  H   UNL     1      -2.341  15.421  20.703  0.00  0.00    +0.000 HD
ENDBRANCH   9  19
BRANCH  16  21
ATOM     21  C   UNL     1      -1.176  12.624  18.305  0.00  0.00    +0.000 C 
BRANCH  21  22
ATOM     22  N   UNL     1      -0.094  12.521  19.289  0.00  0.00    +0.000 NA
ATOM     23  C   UNL     1       0.952  13.553  19.214  0.00  0.00    +0.000 C 
ATOM     24  C   UNL     1       2.025  13.283  18.147  0.00  0.00    +0.000 C 
ATOM     25  O   UNL     1       2.626  11.995  18.322  0.00  0.00    +0.000 OA
ATOM     26  C   UNL     1       1.629  10.968  18.271  0.00  0.00    +0.000 C 
ATOM     27  C   UNL     1       0.536  11.186  19.329  0.00  0.00    +0.000 C 
ENDBRANCH  21  22
ENDBRANCH  16  21
TORSDOF 3
ENDMDL
MODEL 9
REMARK VINA RESULT:      -5.9      9.394     12.209
REMARK  Name = 
REMARK  5 active torsions:
REMARK  status: ('A' for Active; 'I' for Inactive)
REMARK    1  A    between atoms: C_1  and  C_2
REMARK    2  A    between atoms: C_7  and  C_8
REMARK    3  A    between atoms: C_9  and  O_10
REMARK    4  A    between atoms: C_17  and  C_18
REMARK    5  A    between atoms: C_18  and  N_19
REMARK                            x       y       z     vdW  Elec       q    Type
REMARK                         _______ _______ _______ _____ _____    ______ ____
ROOT
ATOM      1  C   UNL     1      -7.704  12.810  20.853  0.00  0.00    +0.000 C 
ATOM      2  C   UNL     1      -7.293  13.442  19.559  0.00  0.00    +0.000 C 
ATOM      3  C   UNL     1      -7.685  14.884  19.338  0.00  0.00    +0.000 C 
ATOM      4  C   UNL     1      -6.855  15.863  20.188  0.00  0.00    +0.000 C 
ATOM      5  C   UNL     1      -5.391  15.530  20.200  0.00  0.00    +0.000 C 
ATOM      6  O   UNL     1      -4.556  16.353  21.019  0.00  0.00    +0.000 OA
ATOM      7  C   UNL     1      -4.671  14.974  21.438  0.00  0.00    +0.000 C 
ATOM      8  C   UNL     1      -5.299  14.900  22.805  0.00  0.00    +0.000 C 
ATOM      9  C   UNL     1      -3.407  14.146  21.268  0.00  0.00    +0.000 C 
ATOM     10  C   UNL     1      -3.693  12.686  20.860  0.00  0.00    +0.000 C 
ATOM     11  C   UNL     1      -3.870  12.468  19.342  0.00  0.00    +0.000 C 
ATOM     12  C   UNL     1      -5.221  11.856  18.947  0.00  0.00    +0.000 C 
ATOM     13  O   UNL     1      -4.963  11.153  17.725  0.00  0.00    +0.000 OA
ATOM     14  C   UNL     1      -3.624  11.112  17.462  0.00  0.00    +0.000 C 
ATOM     15  O   UNL     1      -3.184  10.743  16.390  0.00  0.00    +0.000 OA
ATOM     16  C   UNL     1      -2.860  11.501  18.706  0.00  0.00    +0.000 C 
ATOM     17  C   UNL     1      -6.211  12.923  18.619  0.00  0.00    +0.000 C 
ATOM     18  O   UNL     1      -7.579  12.548  18.465  0.00  0.00    +0.000 OA
ENDROOT
BRANCH   9  19
ATOM     19  O   UNL     1      -2.517  14.739  20.323  0.00  0.00    +0.000 OA
ATOM     20  H   UNL     1      -3.066  14.991  19.556  0.00  0.00    +0.000 HD
ENDBRANCH   9  19
BRANCH  16  21
ATOM     21  C   UNL     1      -1.487  12.158  18.455  0.00  0.00    +0.000 C 
BRANCH  21  22
ATOM     22  N   UNL     1      -0.321  11.345  18.816  0.00  0.00    +0.000 NA
ATOM     23  C   UNL     1      -0.471  10.488  20.003  0.00  0.00    +0.000 C 
ATOM     24  C   UNL     1      -0.255  11.220  21.337  0.00  0.00    +0.000 C 
ATOM     25  O   UNL     1       1.014  11.881  21.374  0.00  0.00    +0.000 OA
ATOM     26  C   UNL     1       1.123  12.813  20.291  0.00  0.00    +0.000 C 
ATOM     27  C   UNL     1       0.926  12.127  18.930  0.00  0.00    +0.000 C 
ENDBRANCH  21  22
ENDBRANCH  16  21
TORSDOF 3
ENDMDL
