MODEL 1
REMARK VINA RESULT:      -8.2      0.000      0.000
REMARK  Name = 
REMARK  10 active torsions:
REMARK  status: ('A' for Active; 'I' for Inactive)
REMARK    1  A    between atoms: C_1  and  O_2
REMARK    2  A    between atoms: O_2  and  C_3
REMARK    3  A    between atoms: C_6  and  C_7
REMARK    4  A    between atoms: C_7  and  N_8
REMARK    5  A    between atoms: C_9  and  C_11
REMARK    6  A    between atoms: C_15  and  C_16
REMARK    7  A    between atoms: C_19  and  C_20
REMARK    8  A    between atoms: C_21  and  C_22
REMARK    9  A    between atoms: C_28  and  O_29
REMARK   10  A    between atoms: O_29  and  C_30
REMARK                            x       y       z     vdW  Elec       q    Type
REMARK                         _______ _______ _______ _____ _____    ______ ____
ROOT
ATOM      1  C   UNL     1       0.429   9.650  21.580  0.00  0.00    +0.000 A 
ATOM      2  C   UNL     1       0.853   8.348  21.912  0.00  0.00    +0.000 A 
ATOM      3  N   UNL     1       1.472   7.718  20.913  0.00  0.00    +0.000 NA
ATOM      4  N   UNL     1       1.471   8.611  19.891  0.00  0.00    +0.000 N 
ATOM      5  C   UNL     1       2.009   8.457  18.600  0.00  0.00    +0.000 A 
ATOM      6  C   UNL     1       1.917   9.473  17.724  0.00  0.00    +0.000 A 
ATOM      7  C   UNL     1       1.231  10.695  18.217  0.00  0.00    +0.000 A 
ATOM      8  N   UNL     1       0.718  10.873  19.398  0.00  0.00    +0.000 NA
ATOM      9  C   UNL     1       0.835   9.813  20.266  0.00  0.00    +0.000 A 
ENDROOT
BRANCH   5  10
ATOM     10  C   UNL     1       2.700   7.227  18.173  0.00  0.00    +0.000 A 
ATOM     11  C   UNL     1       3.980   7.297  17.620  0.00  0.00    +0.000 A 
ATOM     12  C   UNL     1       4.614   6.141  17.155  0.00  0.00    +0.000 A 
ATOM     13  C   UNL     1       3.982   4.890  17.225  0.00  0.00    +0.000 A 
ATOM     14  C   UNL     1       4.708   3.679  16.706  0.00  0.00    +0.000 C 
ATOM     15  C   UNL     1       2.691   4.806  17.784  0.00  0.00    +0.000 A 
ATOM     16  C   UNL     1       1.935   3.510  17.908  0.00  0.00    +0.000 C 
ATOM     17  C   UNL     1       2.067   5.980  18.256  0.00  0.00    +0.000 A 
ENDBRANCH   5  10
BRANCH   1  19
ATOM     18  N   UNL     1      -0.442  11.844  21.990  0.00  0.00    +0.000 N 
ATOM     19  C   UNL     1      -0.266  10.568  22.469  0.00  0.00    +0.000 C 
ATOM     20  O   UNL     1      -0.663  10.203  23.571  0.00  0.00    +0.000 OA
ATOM     21  H   UNL     1      -0.111  12.048  21.052  0.00  0.00    +0.000 HD
BRANCH  18  22
ATOM     22  C   UNL     1      -1.095  12.892  22.756  0.00  0.00    +0.000 C 
BRANCH  22  26
ATOM     23  C   UNL     1      -5.433  12.838  22.503  0.00  0.00    +0.000 A 
ATOM     24  C   UNL     1      -4.801  12.841  23.743  0.00  0.00    +0.000 A 
ATOM     25  C   UNL     1      -3.408  12.853  23.834  0.00  0.00    +0.000 A 
ATOM     26  C   UNL     1      -2.612  12.876  22.678  0.00  0.00    +0.000 A 
ATOM     27  C   UNL     1      -3.255  12.873  21.419  0.00  0.00    +0.000 A 
ATOM     28  C   UNL     1      -4.658  12.844  21.343  0.00  0.00    +0.000 A 
BRANCH  23  30
ATOM     29  C   UNL     1      -7.500  12.260  21.467  0.00  0.00    +0.000 C 
ATOM     30  O   UNL     1      -6.800  12.838  22.562  0.00  0.00    +0.000 OA
ENDBRANCH  23  30
BRANCH  27  31
ATOM     31  O   UNL     1      -2.429  12.907  20.321  0.00  0.00    +0.000 OA
ATOM     32  C   UNL     1      -2.733  12.024  19.244  0.00  0.00    +0.000 C 
ENDBRANCH  27  31
ENDBRANCH  22  26
ENDBRANCH  18  22
ENDBRANCH   1  19
TORSDOF 6
ENDMDL
MODEL 2
REMARK VINA RESULT:      -8.1      0.533      1.338
REMARK  Name = 
REMARK  10 active torsions:
REMARK  status: ('A' for Active; 'I' for Inactive)
REMARK    1  A    between atoms: C_1  and  O_2
REMARK    2  A    between atoms: O_2  and  C_3
REMARK    3  A    between atoms: C_6  and  C_7
REMARK    4  A    between atoms: C_7  and  N_8
REMARK    5  A    between atoms: C_9  and  C_11
REMARK    6  A    between atoms: C_15  and  C_16
REMARK    7  A    between atoms: C_19  and  C_20
REMARK    8  A    between atoms: C_21  and  C_22
REMARK    9  A    between atoms: C_28  and  O_29
REMARK   10  A    between atoms: O_29  and  C_30
REMARK                            x       y       z     vdW  Elec       q    Type
REMARK                         _______ _______ _______ _____ _____    ______ ____
ROOT
ATOM      1  C   UNL     1       0.504   9.603  21.633  0.00  0.00    +0.000 A 
ATOM      2  C   UNL     1       0.882   8.274  21.906  0.00  0.00    +0.000 A 
ATOM      3  N   UNL     1       1.458   7.661  20.872  0.00  0.00    +0.000 NA
ATOM      4  N   UNL     1       1.475   8.594  19.885  0.00  0.00    +0.000 N 
ATOM      5  C   UNL     1       1.984   8.471  18.580  0.00  0.00    +0.000 A 
ATOM      6  C   UNL     1       1.917   9.523  17.745  0.00  0.00    +0.000 A 
ATOM      7  C   UNL     1       1.288  10.750  18.300  0.00  0.00    +0.000 A 
ATOM      8  N   UNL     1       0.803  10.900  19.496  0.00  0.00    +0.000 NA
ATOM      9  C   UNL     1       0.894   9.803  20.319  0.00  0.00    +0.000 A 
ENDROOT
BRANCH   5  10
ATOM     10  C   UNL     1       2.619   7.232  18.091  0.00  0.00    +0.000 A 
ATOM     11  C   UNL     1       1.956   6.009  18.214  0.00  0.00    +0.000 A 
ATOM     12  C   UNL     1       2.579   4.824  17.811  0.00  0.00    +0.000 A 
ATOM     13  C   UNL     1       3.880   4.832  17.283  0.00  0.00    +0.000 A 
ATOM     14  C   UNL     1       4.504   3.527  16.869  0.00  0.00    +0.000 C 
ATOM     15  C   UNL     1       4.557   6.061  17.151  0.00  0.00    +0.000 A 
ATOM     16  C   UNL     1       5.950   6.172  16.591  0.00  0.00    +0.000 C 
ATOM     17  C   UNL     1       3.913   7.249  17.555  0.00  0.00    +0.000 A 
ENDBRANCH   5  10
BRANCH   1  19
ATOM     18  N   UNL     1      -0.520  11.728  22.056  0.00  0.00    +0.000 N 
ATOM     19  C   UNL     1      -0.139  10.512  22.570  0.00  0.00    +0.000 C 
ATOM     20  O   UNL     1      -0.321  10.190  23.740  0.00  0.00    +0.000 OA
ATOM     21  H   UNL     1      -0.361  11.896  21.068  0.00  0.00    +0.000 HD
BRANCH  18  22
ATOM     22  C   UNL     1      -1.155  12.760  22.858  0.00  0.00    +0.000 C 
BRANCH  22  26
ATOM     23  C   UNL     1      -5.491  12.811  22.584  0.00  0.00    +0.000 A 
ATOM     24  C   UNL     1      -4.866  12.756  23.826  0.00  0.00    +0.000 A 
ATOM     25  C   UNL     1      -3.474  12.733  23.923  0.00  0.00    +0.000 A 
ATOM     26  C   UNL     1      -2.671  12.781  22.773  0.00  0.00    +0.000 A 
ATOM     27  C   UNL     1      -3.307  12.838  21.512  0.00  0.00    +0.000 A 
ATOM     28  C   UNL     1      -4.710  12.842  21.428  0.00  0.00    +0.000 A 
BRANCH  23  30
ATOM     29  C   UNL     1      -7.457  13.109  23.897  0.00  0.00    +0.000 C 
ATOM     30  O   UNL     1      -6.858  12.839  22.636  0.00  0.00    +0.000 OA
ENDBRANCH  23  30
BRANCH  27  31
ATOM     31  O   UNL     1      -2.474  12.893  20.419  0.00  0.00    +0.000 OA
ATOM     32  C   UNL     1      -2.835  12.118  19.280  0.00  0.00    +0.000 C 
ENDBRANCH  27  31
ENDBRANCH  22  26
ENDBRANCH  18  22
ENDBRANCH   1  19
TORSDOF 6
ENDMDL
MODEL 3
REMARK VINA RESULT:      -8.0      3.931     10.368
REMARK  Name = 
REMARK  10 active torsions:
REMARK  status: ('A' for Active; 'I' for Inactive)
REMARK    1  A    between atoms: C_1  and  O_2
REMARK    2  A    between atoms: O_2  and  C_3
REMARK    3  A    between atoms: C_6  and  C_7
REMARK    4  A    between atoms: C_7  and  N_8
REMARK    5  A    between atoms: C_9  and  C_11
REMARK    6  A    between atoms: C_15  and  C_16
REMARK    7  A    between atoms: C_19  and  C_20
REMARK    8  A    between atoms: C_21  and  C_22
REMARK    9  A    between atoms: C_28  and  O_29
REMARK   10  A    between atoms: O_29  and  C_30
REMARK                            x       y       z     vdW  Elec       q    Type
REMARK                         _______ _______ _______ _____ _____    ______ ____
ROOT
ATOM      1  C   UNL     1       2.353   6.463  19.755  0.00  0.00    +0.000 A 
ATOM      2  C   UNL     1       1.667   6.501  20.985  0.00  0.00    +0.000 A 
ATOM      3  N   UNL     1       1.030   7.652  21.205  0.00  0.00    +0.000 NA
ATOM      4  N   UNL     1       1.286   8.402  20.103  0.00  0.00    +0.000 N 
ATOM      5  C   UNL     1       0.843   9.706  19.816  0.00  0.00    +0.000 A 
ATOM      6  C   UNL     1       1.198  10.280  18.652  0.00  0.00    +0.000 A 
ATOM      7  C   UNL     1       2.054   9.458  17.759  0.00  0.00    +0.000 A 
ATOM      8  N   UNL     1       2.487   8.256  17.991  0.00  0.00    +0.000 NA
ATOM      9  C   UNL     1       2.100   7.702  19.188  0.00  0.00    +0.000 A 
ENDROOT
BRANCH   5  10
ATOM     10  C   UNL     1      -0.027  10.466  20.733  0.00  0.00    +0.000 A 
ATOM     11  C   UNL     1      -0.043  10.163  22.096  0.00  0.00    +0.000 A 
ATOM     12  C   UNL     1      -0.911  10.838  22.960  0.00  0.00    +0.000 A 
ATOM     13  C   UNL     1      -1.787  11.825  22.481  0.00  0.00    +0.000 A 
ATOM     14  C   UNL     1      -2.703  12.517  23.455  0.00  0.00    +0.000 C 
ATOM     15  C   UNL     1      -1.776  12.142  21.109  0.00  0.00    +0.000 A 
ATOM     16  C   UNL     1      -2.673  13.189  20.503  0.00  0.00    +0.000 C 
ATOM     17  C   UNL     1      -0.890  11.458  20.251  0.00  0.00    +0.000 A 
ENDBRANCH   5  10
BRANCH   1  19
ATOM     18  N   UNL     1       4.482   5.399  19.476  0.00  0.00    +0.000 N 
ATOM     19  C   UNL     1       3.128   5.341  19.250  0.00  0.00    +0.000 C 
ATOM     20  O   UNL     1       2.584   4.410  18.665  0.00  0.00    +0.000 OA
ATOM     21  H   UNL     1       4.841   6.191  20.001  0.00  0.00    +0.000 HD
BRANCH  18  22
ATOM     22  C   UNL     1       5.404   4.373  19.020  0.00  0.00    +0.000 C 
BRANCH  22  26
ATOM     23  C   UNL     1       6.609   4.747  14.862  0.00  0.00    +0.000 A 
ATOM     24  C   UNL     1       5.578   3.883  15.220  0.00  0.00    +0.000 A 
ATOM     25  C   UNL     1       5.188   3.752  16.554  0.00  0.00    +0.000 A 
ATOM     26  C   UNL     1       5.816   4.499  17.564  0.00  0.00    +0.000 A 
ATOM     27  C   UNL     1       6.862   5.376  17.199  0.00  0.00    +0.000 A 
ATOM     28  C   UNL     1       7.256   5.484  15.854  0.00  0.00    +0.000 A 
BRANCH  23  30
ATOM     29  C   UNL     1       6.519   3.644  12.751  0.00  0.00    +0.000 C 
ATOM     30  O   UNL     1       6.879   4.784  13.521  0.00  0.00    +0.000 OA
ENDBRANCH  23  30
BRANCH  27  31
ATOM     31  O   UNL     1       7.435   6.090  18.224  0.00  0.00    +0.000 OA
ATOM     32  C   UNL     1       7.798   7.442  17.960  0.00  0.00    +0.000 C 
ENDBRANCH  27  31
ENDBRANCH  22  26
ENDBRANCH  18  22
ENDBRANCH   1  19
TORSDOF 6
ENDMDL
MODEL 4
REMARK VINA RESULT:      -7.9      3.064      9.873
REMARK  Name = 
REMARK  10 active torsions:
REMARK  status: ('A' for Active; 'I' for Inactive)
REMARK    1  A    between atoms: C_1  and  O_2
REMARK    2  A    between atoms: O_2  and  C_3
REMARK    3  A    between atoms: C_6  and  C_7
REMARK    4  A    between atoms: C_7  and  N_8
REMARK    5  A    between atoms: C_9  and  C_11
REMARK    6  A    between atoms: C_15  and  C_16
REMARK    7  A    between atoms: C_19  and  C_20
REMARK    8  A    between atoms: C_21  and  C_22
REMARK    9  A    between atoms: C_28  and  O_29
REMARK   10  A    between atoms: O_29  and  C_30
REMARK                            x       y       z     vdW  Elec       q    Type
REMARK                         _______ _______ _______ _____ _____    ______ ____
ROOT
ATOM      1  C   UNL     1       0.992  10.585  19.308  0.00  0.00    +0.000 A 
ATOM      2  C   UNL     1       0.415  11.859  19.141  0.00  0.00    +0.000 A 
ATOM      3  N   UNL     1      -0.299  12.263  20.192  0.00  0.00    +0.000 NA
ATOM      4  N   UNL     1      -0.198  11.246  21.086  0.00  0.00    +0.000 N 
ATOM      5  C   UNL     1      -0.759  11.161  22.374  0.00  0.00    +0.000 A 
ATOM      6  C   UNL     1      -0.532  10.065  23.119  0.00  0.00    +0.000 A 
ATOM      7  C   UNL     1       0.311   9.017  22.489  0.00  0.00    +0.000 A 
ATOM      8  N   UNL     1       0.842   9.057  21.304  0.00  0.00    +0.000 NA
ATOM      9  C   UNL     1       0.590  10.195  20.575  0.00  0.00    +0.000 A 
ENDROOT
BRANCH   5  10
ATOM     10  C   UNL     1      -1.572  12.246  22.956  0.00  0.00    +0.000 A 
ATOM     11  C   UNL     1      -1.015  13.511  23.154  0.00  0.00    +0.000 A 
ATOM     12  C   UNL     1      -1.761  14.524  23.763  0.00  0.00    +0.000 A 
ATOM     13  C   UNL     1      -3.077  14.295  24.196  0.00  0.00    +0.000 A 
ATOM     14  C   UNL     1      -3.832  15.420  24.850  0.00  0.00    +0.000 C 
ATOM     15  C   UNL     1      -3.650  13.024  23.998  0.00  0.00    +0.000 A 
ATOM     16  C   UNL     1      -5.055  12.684  24.422  0.00  0.00    +0.000 C 
ATOM     17  C   UNL     1      -2.888  12.013  23.375  0.00  0.00    +0.000 A 
ENDBRANCH   5  10
BRANCH   1  19
ATOM     18  N   UNL     1       2.016   8.553  18.556  0.00  0.00    +0.000 N 
ATOM     19  C   UNL     1       1.823   9.895  18.333  0.00  0.00    +0.000 C 
ATOM     20  O   UNL     1       2.307  10.494  17.378  0.00  0.00    +0.000 OA
ATOM     21  H   UNL     1       1.547   8.133  19.353  0.00  0.00    +0.000 HD
BRANCH  18  22
ATOM     22  C   UNL     1       2.834   7.719  17.693  0.00  0.00    +0.000 C 
BRANCH  22  26
ATOM     23  C   UNL     1       3.359   3.629  19.065  0.00  0.00    +0.000 A 
ATOM     24  C   UNL     1       2.456   4.475  19.704  0.00  0.00    +0.000 A 
ATOM     25  C   UNL     1       2.286   5.791  19.274  0.00  0.00    +0.000 A 
ATOM     26  C   UNL     1       3.008   6.290  18.179  0.00  0.00    +0.000 A 
ATOM     27  C   UNL     1       3.924   5.431  17.530  0.00  0.00    +0.000 A 
ATOM     28  C   UNL     1       4.099   4.112  17.985  0.00  0.00    +0.000 A 
BRANCH  23  30
ATOM     29  C   UNL     1       4.564   2.026  20.352  0.00  0.00    +0.000 C 
ATOM     30  O   UNL     1       3.417   2.364  19.583  0.00  0.00    +0.000 OA
ENDBRANCH  23  30
BRANCH  27  31
ATOM     31  O   UNL     1       4.598   5.966  16.458  0.00  0.00    +0.000 OA
ATOM     32  C   UNL     1       5.515   5.120  15.770  0.00  0.00    +0.000 C 
ENDBRANCH  27  31
ENDBRANCH  22  26
ENDBRANCH  18  22
ENDBRANCH   1  19
TORSDOF 6
ENDMDL
MODEL 5
REMARK VINA RESULT:      -7.9      1.695      1.884
REMARK  Name = 
REMARK  10 active torsions:
REMARK  status: ('A' for Active; 'I' for Inactive)
REMARK    1  A    between atoms: C_1  and  O_2
REMARK    2  A    between atoms: O_2  and  C_3
REMARK    3  A    between atoms: C_6  and  C_7
REMARK    4  A    between atoms: C_7  and  N_8
REMARK    5  A    between atoms: C_9  and  C_11
REMARK    6  A    between atoms: C_15  and  C_16
REMARK    7  A    between atoms: C_19  and  C_20
REMARK    8  A    between atoms: C_21  and  C_22
REMARK    9  A    between atoms: C_28  and  O_29
REMARK   10  A    between atoms: O_29  and  C_30
REMARK                            x       y       z     vdW  Elec       q    Type
REMARK                         _______ _______ _______ _____ _____    ______ ____
ROOT
ATOM      1  C   UNL     1       0.348  10.222  21.039  0.00  0.00    +0.000 A 
ATOM      2  C   UNL     1       0.504   9.183  21.977  0.00  0.00    +0.000 A 
ATOM      3  N   UNL     1       1.135   8.114  21.490  0.00  0.00    +0.000 NA
ATOM      4  N   UNL     1       1.416   8.439  20.202  0.00  0.00    +0.000 N 
ATOM      5  C   UNL     1       2.085   7.666  19.235  0.00  0.00    +0.000 A 
ATOM      6  C   UNL     1       2.278   8.174  18.005  0.00  0.00    +0.000 A 
ATOM      7  C   UNL     1       1.745   9.542  17.778  0.00  0.00    +0.000 A 
ATOM      8  N   UNL     1       1.119  10.284  18.642  0.00  0.00    +0.000 NA
ATOM      9  C   UNL     1       0.945   9.731  19.888  0.00  0.00    +0.000 A 
ENDROOT
BRANCH   5  10
ATOM     10  C   UNL     1       2.613   6.320  19.526  0.00  0.00    +0.000 A 
ATOM     11  C   UNL     1       3.876   5.947  19.063  0.00  0.00    +0.000 A 
ATOM     12  C   UNL     1       4.355   4.651  19.280  0.00  0.00    +0.000 A 
ATOM     13  C   UNL     1       3.581   3.697  19.959  0.00  0.00    +0.000 A 
ATOM     14  C   UNL     1       4.143   2.317  20.162  0.00  0.00    +0.000 C 
ATOM     15  C   UNL     1       2.306   4.064  20.434  0.00  0.00    +0.000 A 
ATOM     16  C   UNL     1       1.405   3.113  21.177  0.00  0.00    +0.000 C 
ATOM     17  C   UNL     1       1.839   5.376  20.213  0.00  0.00    +0.000 A 
ENDBRANCH   5  10
BRANCH   1  19
ATOM     18  N   UNL     1      -1.193  11.916  20.335  0.00  0.00    +0.000 N 
ATOM     19  C   UNL     1      -0.295  11.502  21.289  0.00  0.00    +0.000 C 
ATOM     20  O   UNL     1      -0.039  12.152  22.298  0.00  0.00    +0.000 OA
ATOM     21  H   UNL     1      -1.369  11.297  19.550  0.00  0.00    +0.000 HD
BRANCH  18  22
ATOM     22  C   UNL     1      -1.907  13.179  20.418  0.00  0.00    +0.000 C 
BRANCH  22  26
ATOM     23  C   UNL     1      -5.606  12.995  22.690  0.00  0.00    +0.000 A 
ATOM     24  C   UNL     1      -4.460  13.545  23.256  0.00  0.00    +0.000 A 
ATOM     25  C   UNL     1      -3.266  13.603  22.536  0.00  0.00    +0.000 A 
ATOM     26  C   UNL     1      -3.196  13.122  21.219  0.00  0.00    +0.000 A 
ATOM     27  C   UNL     1      -4.361  12.564  20.644  0.00  0.00    +0.000 A 
ATOM     28  C   UNL     1      -5.551  12.496  21.388  0.00  0.00    +0.000 A 
BRANCH  23  30
ATOM     29  C   UNL     1      -7.838  12.260  23.086  0.00  0.00    +0.000 C 
ATOM     30  O   UNL     1      -6.706  13.013  23.503  0.00  0.00    +0.000 OA
ENDBRANCH  23  30
BRANCH  27  31
ATOM     31  O   UNL     1      -4.240  12.118  19.350  0.00  0.00    +0.000 OA
ATOM     32  C   UNL     1      -5.357  12.301  18.485  0.00  0.00    +0.000 C 
ENDBRANCH  27  31
ENDBRANCH  22  26
ENDBRANCH  18  22
ENDBRANCH   1  19
TORSDOF 6
ENDMDL
MODEL 6
REMARK VINA RESULT:      -7.9      3.709     10.205
REMARK  Name = 
REMARK  10 active torsions:
REMARK  status: ('A' for Active; 'I' for Inactive)
REMARK    1  A    between atoms: C_1  and  O_2
REMARK    2  A    between atoms: O_2  and  C_3
REMARK    3  A    between atoms: C_6  and  C_7
REMARK    4  A    between atoms: C_7  and  N_8
REMARK    5  A    between atoms: C_9  and  C_11
REMARK    6  A    between atoms: C_15  and  C_16
REMARK    7  A    between atoms: C_19  and  C_20
REMARK    8  A    between atoms: C_21  and  C_22
REMARK    9  A    between atoms: C_28  and  O_29
REMARK   10  A    between atoms: O_29  and  C_30
REMARK                            x       y       z     vdW  Elec       q    Type
REMARK                         _______ _______ _______ _____ _____    ______ ____
ROOT
ATOM      1  C   UNL     1       1.805   7.204  20.031  0.00  0.00    +0.000 A 
ATOM      2  C   UNL     1       1.280   7.482  21.308  0.00  0.00    +0.000 A 
ATOM      3  N   UNL     1       0.904   8.751  21.466  0.00  0.00    +0.000 NA
ATOM      4  N   UNL     1       1.174   9.340  20.273  0.00  0.00    +0.000 N 
ATOM      5  C   UNL     1       0.959  10.677  19.894  0.00  0.00    +0.000 A 
ATOM      6  C   UNL     1       1.286  11.070  18.650  0.00  0.00    +0.000 A 
ATOM      7  C   UNL     1       1.864  10.020  17.771  0.00  0.00    +0.000 A 
ATOM      8  N   UNL     1       2.082   8.779  18.086  0.00  0.00    +0.000 NA
ATOM      9  C   UNL     1       1.731   8.416  19.364  0.00  0.00    +0.000 A 
ENDROOT
BRANCH   5  10
ATOM     10  C   UNL     1       0.360  11.671  20.805  0.00  0.00    +0.000 A 
ATOM     11  C   UNL     1       0.940  12.934  20.945  0.00  0.00    +0.000 A 
ATOM     12  C   UNL     1       0.413  13.857  21.853  0.00  0.00    +0.000 A 
ATOM     13  C   UNL     1      -0.700  13.538  22.647  0.00  0.00    +0.000 A 
ATOM     14  C   UNL     1      -1.222  14.568  23.611  0.00  0.00    +0.000 C 
ATOM     15  C   UNL     1      -1.295  12.268  22.512  0.00  0.00    +0.000 A 
ATOM     16  C   UNL     1      -2.494  11.837  23.314  0.00  0.00    +0.000 C 
ATOM     17  C   UNL     1      -0.757  11.350  21.586  0.00  0.00    +0.000 A 
ENDBRANCH   5  10
BRANCH   1  19
ATOM     18  N   UNL     1       3.541   5.552  20.013  0.00  0.00    +0.000 N 
ATOM     19  C   UNL     1       2.288   5.910  19.575  0.00  0.00    +0.000 C 
ATOM     20  O   UNL     1       1.602   5.199  18.849  0.00  0.00    +0.000 OA
ATOM     21  H   UNL     1       4.023   6.188  20.641  0.00  0.00    +0.000 HD
BRANCH  18  22
ATOM     22  C   UNL     1       4.183   4.305  19.636  0.00  0.00    +0.000 C 
BRANCH  22  26
ATOM     23  C   UNL     1       6.500   4.504  15.965  0.00  0.00    +0.000 A 
ATOM     24  C   UNL     1       5.177   4.071  15.939  0.00  0.00    +0.000 A 
ATOM     25  C   UNL     1       4.428   3.998  17.114  0.00  0.00    +0.000 A 
ATOM     26  C   UNL     1       4.983   4.374  18.347  0.00  0.00    +0.000 A 
ATOM     27  C   UNL     1       6.326   4.814  18.372  0.00  0.00    +0.000 A 
ATOM     28  C   UNL     1       7.075   4.865  17.184  0.00  0.00    +0.000 A 
BRANCH  23  30
ATOM     29  C   UNL     1       6.406   3.969  13.645  0.00  0.00    +0.000 C 
ATOM     30  O   UNL     1       7.111   4.536  14.742  0.00  0.00    +0.000 OA
ENDBRANCH  23  30
BRANCH  27  31
ATOM     31  O   UNL     1       6.818   5.179  19.603  0.00  0.00    +0.000 OA
ATOM     32  C   UNL     1       8.104   5.792  19.641  0.00  0.00    +0.000 C 
ENDBRANCH  27  31
ENDBRANCH  22  26
ENDBRANCH  18  22
ENDBRANCH   1  19
TORSDOF 6
ENDMDL
MODEL 7
REMARK VINA RESULT:      -7.9      3.827     10.363
REMARK  Name = 
REMARK  10 active torsions:
REMARK  status: ('A' for Active; 'I' for Inactive)
REMARK    1  A    between atoms: C_1  and  O_2
REMARK    2  A    between atoms: O_2  and  C_3
REMARK    3  A    between atoms: C_6  and  C_7
REMARK    4  A    between atoms: C_7  and  N_8
REMARK    5  A    between atoms: C_9  and  C_11
REMARK    6  A    between atoms: C_15  and  C_16
REMARK    7  A    between atoms: C_19  and  C_20
REMARK    8  A    between atoms: C_21  and  C_22
REMARK    9  A    between atoms: C_28  and  O_29
REMARK   10  A    between atoms: O_29  and  C_30
REMARK                            x       y       z     vdW  Elec       q    Type
REMARK                         _______ _______ _______ _____ _____    ______ ____
ROOT
ATOM      1  C   UNL     1       1.952   7.130  19.822  0.00  0.00    +0.000 A 
ATOM      2  C   UNL     1       1.435   7.266  21.125  0.00  0.00    +0.000 A 
ATOM      3  N   UNL     1       1.010   8.498  21.404  0.00  0.00    +0.000 NA
ATOM      4  N   UNL     1       1.238   9.206  20.268  0.00  0.00    +0.000 N 
ATOM      5  C   UNL     1       0.963  10.562  20.017  0.00  0.00    +0.000 A 
ATOM      6  C   UNL     1       1.255  11.081  18.811  0.00  0.00    +0.000 A 
ATOM      7  C   UNL     1       1.863  10.143  17.833  0.00  0.00    +0.000 A 
ATOM      8  N   UNL     1       2.136   8.888  18.028  0.00  0.00    +0.000 NA
ATOM      9  C   UNL     1       1.820   8.394  19.271  0.00  0.00    +0.000 A 
ENDROOT
BRANCH   5  10
ATOM     10  C   UNL     1       0.337  11.441  21.022  0.00  0.00    +0.000 A 
ATOM     11  C   UNL     1      -0.635  10.936  21.888  0.00  0.00    +0.000 A 
ATOM     12  C   UNL     1      -1.277  11.779  22.800  0.00  0.00    +0.000 A 
ATOM     13  C   UNL     1      -0.968  13.147  22.863  0.00  0.00    +0.000 A 
ATOM     14  C   UNL     1      -1.693  14.010  23.860  0.00  0.00    +0.000 C 
ATOM     15  C   UNL     1       0.013  13.668  21.997  0.00  0.00    +0.000 A 
ATOM     16  C   UNL     1       0.416  15.118  21.994  0.00  0.00    +0.000 C 
ATOM     17  C   UNL     1       0.658  12.803  21.087  0.00  0.00    +0.000 A 
ENDBRANCH   5  10
BRANCH   1  19
ATOM     18  N   UNL     1       3.557   5.352  19.896  0.00  0.00    +0.000 N 
ATOM     19  C   UNL     1       2.482   5.905  19.242  0.00  0.00    +0.000 C 
ATOM     20  O   UNL     1       1.982   5.414  18.236  0.00  0.00    +0.000 OA
ATOM     21  H   UNL     1       3.883   5.807  20.742  0.00  0.00    +0.000 HD
BRANCH  18  22
ATOM     22  C   UNL     1       4.221   4.143  19.440  0.00  0.00    +0.000 C 
BRANCH  22  26
ATOM     23  C   UNL     1       6.846   4.705  16.023  0.00  0.00    +0.000 A 
ATOM     24  C   UNL     1       5.595   4.117  15.859  0.00  0.00    +0.000 A 
ATOM     25  C   UNL     1       4.748   3.927  16.952  0.00  0.00    +0.000 A 
ATOM     26  C   UNL     1       5.130   4.338  18.239  0.00  0.00    +0.000 A 
ATOM     27  C   UNL     1       6.400   4.935  18.404  0.00  0.00    +0.000 A 
ATOM     28  C   UNL     1       7.250   5.104  17.297  0.00  0.00    +0.000 A 
BRANCH  23  30
ATOM     29  C   UNL     1       6.914   4.506  13.649  0.00  0.00    +0.000 C 
ATOM     30  O   UNL     1       7.566   4.840  14.868  0.00  0.00    +0.000 OA
ENDBRANCH  23  30
BRANCH  27  31
ATOM     31  O   UNL     1       6.720   5.328  19.682  0.00  0.00    +0.000 OA
ATOM     32  C   UNL     1       8.083   5.645  19.950  0.00  0.00    +0.000 C 
ENDBRANCH  27  31
ENDBRANCH  22  26
ENDBRANCH  18  22
ENDBRANCH   1  19
TORSDOF 6
ENDMDL
MODEL 8
REMARK VINA RESULT:      -7.7      1.788      2.320
REMARK  Name = 
REMARK  10 active torsions:
REMARK  status: ('A' for Active; 'I' for Inactive)
REMARK    1  A    between atoms: C_1  and  O_2
REMARK    2  A    between atoms: O_2  and  C_3
REMARK    3  A    between atoms: C_6  and  C_7
REMARK    4  A    between atoms: C_7  and  N_8
REMARK    5  A    between atoms: C_9  and  C_11
REMARK    6  A    between atoms: C_15  and  C_16
REMARK    7  A    between atoms: C_19  and  C_20
REMARK    8  A    between atoms: C_21  and  C_22
REMARK    9  A    between atoms: C_28  and  O_29
REMARK   10  A    between atoms: O_29  and  C_30
REMARK                            x       y       z     vdW  Elec       q    Type
REMARK                         _______ _______ _______ _____ _____    ______ ____
ROOT
ATOM      1  C   UNL     1       0.577  10.266  20.978  0.00  0.00    +0.000 A 
ATOM      2  C   UNL     1       0.764   9.271  21.958  0.00  0.00    +0.000 A 
ATOM      3  N   UNL     1       1.335   8.162  21.490  0.00  0.00    +0.000 NA
ATOM      4  N   UNL     1       1.543   8.412  20.172  0.00  0.00    +0.000 N 
ATOM      5  C   UNL     1       2.131   7.572  19.208  0.00  0.00    +0.000 A 
ATOM      6  C   UNL     1       2.260   8.011  17.944  0.00  0.00    +0.000 A 
ATOM      7  C   UNL     1       1.749   9.381  17.678  0.00  0.00    +0.000 A 
ATOM      8  N   UNL     1       1.198  10.183  18.539  0.00  0.00    +0.000 NA
ATOM      9  C   UNL     1       1.087   9.700  19.820  0.00  0.00    +0.000 A 
ENDROOT
BRANCH   5  10
ATOM     10  C   UNL     1       2.641   6.228  19.536  0.00  0.00    +0.000 A 
ATOM     11  C   UNL     1       3.913   5.838  19.115  0.00  0.00    +0.000 A 
ATOM     12  C   UNL     1       4.376   4.544  19.368  0.00  0.00    +0.000 A 
ATOM     13  C   UNL     1       3.577   3.606  20.041  0.00  0.00    +0.000 A 
ATOM     14  C   UNL     1       4.124   2.226  20.283  0.00  0.00    +0.000 C 
ATOM     15  C   UNL     1       2.292   3.990  20.474  0.00  0.00    +0.000 A 
ATOM     16  C   UNL     1       1.364   3.059  21.209  0.00  0.00    +0.000 C 
ATOM     17  C   UNL     1       1.841   5.301  20.218  0.00  0.00    +0.000 A 
ENDBRANCH   5  10
BRANCH   1  19
ATOM     18  N   UNL     1      -1.182  11.826  20.516  0.00  0.00    +0.000 N 
ATOM     19  C   UNL     1      -0.016  11.575  21.199  0.00  0.00    +0.000 C 
ATOM     20  O   UNL     1       0.507  12.387  21.956  0.00  0.00    +0.000 OA
ATOM     21  H   UNL     1      -1.563  11.083  19.939  0.00  0.00    +0.000 HD
BRANCH  18  22
ATOM     22  C   UNL     1      -1.893  13.090  20.606  0.00  0.00    +0.000 C 
BRANCH  22  26
ATOM     23  C   UNL     1      -5.857  12.811  22.366  0.00  0.00    +0.000 A 
ATOM     24  C   UNL     1      -5.700  12.807  20.983  0.00  0.00    +0.000 A 
ATOM     25  C   UNL     1      -4.431  12.902  20.409  0.00  0.00    +0.000 A 
ATOM     26  C   UNL     1      -3.283  12.989  21.211  0.00  0.00    +0.000 A 
ATOM     27  C   UNL     1      -3.443  12.992  22.616  0.00  0.00    +0.000 A 
ATOM     28  C   UNL     1      -4.728  12.914  23.180  0.00  0.00    +0.000 A 
BRANCH  23  30
ATOM     29  C   UNL     1      -7.456  13.192  24.090  0.00  0.00    +0.000 C 
ATOM     30  O   UNL     1      -7.153  12.702  22.791  0.00  0.00    +0.000 OA
ENDBRANCH  23  30
BRANCH  27  31
ATOM     31  O   UNL     1      -2.286  13.069  23.354  0.00  0.00    +0.000 OA
ATOM     32  C   UNL     1      -1.969  14.324  23.950  0.00  0.00    +0.000 C 
ENDBRANCH  27  31
ENDBRANCH  22  26
ENDBRANCH  18  22
ENDBRANCH   1  19
TORSDOF 6
ENDMDL
MODEL 9
REMARK VINA RESULT:      -7.7      3.604     10.117
REMARK  Name = 
REMARK  10 active torsions:
REMARK  status: ('A' for Active; 'I' for Inactive)
REMARK    1  A    between atoms: C_1  and  O_2
REMARK    2  A    between atoms: O_2  and  C_3
REMARK    3  A    between atoms: C_6  and  C_7
REMARK    4  A    between atoms: C_7  and  N_8
REMARK    5  A    between atoms: C_9  and  C_11
REMARK    6  A    between atoms: C_15  and  C_16
REMARK    7  A    between atoms: C_19  and  C_20
REMARK    8  A    between atoms: C_21  and  C_22
REMARK    9  A    between atoms: C_28  and  O_29
REMARK   10  A    between atoms: O_29  and  C_30
REMARK                            x       y       z     vdW  Elec       q    Type
REMARK                         _______ _______ _______ _____ _____    ______ ____
ROOT
ATOM      1  C   UNL     1       1.847   7.006  20.428  0.00  0.00    +0.000 A 
ATOM      2  C   UNL     1       0.948   7.363  21.452  0.00  0.00    +0.000 A 
ATOM      3  N   UNL     1       0.360   8.543  21.258  0.00  0.00    +0.000 NA
ATOM      4  N   UNL     1       0.866   8.989  20.079  0.00  0.00    +0.000 N 
ATOM      5  C   UNL     1       0.572  10.187  19.404  0.00  0.00    +0.000 A 
ATOM      6  C   UNL     1       1.175  10.446  18.229  0.00  0.00    +0.000 A 
ATOM      7  C   UNL     1       2.126   9.411  17.748  0.00  0.00    +0.000 A 
ATOM      8  N   UNL     1       2.426   8.297  18.345  0.00  0.00    +0.000 NA
ATOM      9  C   UNL     1       1.787   8.067  19.540  0.00  0.00    +0.000 A 
ENDROOT
BRANCH   5  10
ATOM     10  C   UNL     1      -0.400  11.169  19.920  0.00  0.00    +0.000 A 
ATOM     11  C   UNL     1      -1.621  11.358  19.269  0.00  0.00    +0.000 A 
ATOM     12  C   UNL     1      -2.518  12.332  19.717  0.00  0.00    +0.000 A 
ATOM     13  C   UNL     1      -2.215  13.143  20.822  0.00  0.00    +0.000 A 
ATOM     14  C   UNL     1      -3.215  14.179  21.259  0.00  0.00    +0.000 C 
ATOM     15  C   UNL     1      -0.988  12.959  21.489  0.00  0.00    +0.000 A 
ATOM     16  C   UNL     1      -0.576  13.776  22.685  0.00  0.00    +0.000 C 
ATOM     17  C   UNL     1      -0.095  11.968  21.030  0.00  0.00    +0.000 A 
ENDBRANCH   5  10
BRANCH   1  19
ATOM     18  N   UNL     1       3.843   5.871  19.741  0.00  0.00    +0.000 N 
ATOM     19  C   UNL     1       2.625   5.778  20.372  0.00  0.00    +0.000 C 
ATOM     20  O   UNL     1       2.202   4.738  20.866  0.00  0.00    +0.000 OA
ATOM     21  H   UNL     1       4.128   6.781  19.393  0.00  0.00    +0.000 HD
BRANCH  18  22
ATOM     22  C   UNL     1       4.736   4.737  19.578  0.00  0.00    +0.000 C 
BRANCH  22  26
ATOM     23  C   UNL     1       6.334   4.290  15.562  0.00  0.00    +0.000 A 
ATOM     24  C   UNL     1       7.182   4.579  16.627  0.00  0.00    +0.000 A 
ATOM     25  C   UNL     1       6.676   4.730  17.919  0.00  0.00    +0.000 A 
ATOM     26  C   UNL     1       5.305   4.580  18.178  0.00  0.00    +0.000 A 
ATOM     27  C   UNL     1       4.445   4.286  17.096  0.00  0.00    +0.000 A 
ATOM     28  C   UNL     1       4.965   4.154  15.797  0.00  0.00    +0.000 A 
BRANCH  23  30
ATOM     29  C   UNL     1       6.169   3.763  13.244  0.00  0.00    +0.000 C 
ATOM     30  O   UNL     1       6.964   4.158  14.354  0.00  0.00    +0.000 OA
ENDBRANCH  23  30
BRANCH  27  31
ATOM     31  O   UNL     1       3.114   4.139  17.406  0.00  0.00    +0.000 OA
ATOM     32  C   UNL     1       2.590   2.814  17.441  0.00  0.00    +0.000 C 
ENDBRANCH  27  31
ENDBRANCH  22  26
ENDBRANCH  18  22
ENDBRANCH   1  19
TORSDOF 6
ENDMDL
