MODEL 1
REMARK VINA RESULT:      -6.6      0.000      0.000
REMARK  Name = 
REMARK  13 active torsions:
REMARK  status: ('A' for Active; 'I' for Inactive)
REMARK    1  A    between atoms: C_1  and  C_2
REMARK    2  A    between atoms: C_2  and  S_3
REMARK    3  A    between atoms: S_3  and  C_4
REMARK    4  A    between atoms: C_4  and  C_5
REMARK    5  A    between atoms: C_5  and  N_6
REMARK    6  A    between atoms: C_12  and  O_13
REMARK    7  A    between atoms: C_14  and  C_15
REMARK    8  A    between atoms: N_20  and  C_21
REMARK    9  A    between atoms: C_22  and  O_23
REMARK   10  A    between atoms: O_23  and  C_24
REMARK   11  A    between atoms: C_25  and  C_26
REMARK   12  A    between atoms: C_26  and  O_27
REMARK   13  A    between atoms: O_27  and  C_28
REMARK                            x       y       z     vdW  Elec       q    Type
REMARK                         _______ _______ _______ _____ _____    ______ ____
ROOT
ATOM      1  N   UNL     1       1.482   8.149  20.668  0.00  0.00    +0.000 NA
ATOM      2  C   UNL     1       0.754   9.127  20.241  0.00  0.00    +0.000 C 
ATOM      3  C   UNL     1      -0.257   9.716  21.268  0.00  0.00    +0.000 C 
ATOM      4  O   UNL     1      -0.459   9.203  22.356  0.00  0.00    +0.000 OA
ATOM      5  C   UNL     1      -0.897  10.981  20.894  0.00  0.00    +0.000 C 
ATOM      6  C   UNL     1      -0.967  11.364  19.610  0.00  0.00    +0.000 C 
ATOM      7  C   UNL     1      -0.405  10.487  18.607  0.00  0.00    +0.000 C 
ATOM      8  C   UNL     1       0.670   9.719  18.856  0.00  0.00    +0.000 C 
ATOM      9  C   UNL     1       1.782   9.621  17.857  0.00  0.00    +0.000 C 
ATOM     10  N   UNL     1      -0.999  12.813  19.549  0.00  0.00    +0.000 N 
ATOM     11  C   UNL     1      -0.307  13.542  18.478  0.00  0.00    +0.000 C 
ATOM     12  C   UNL     1       1.137  13.380  18.861  0.00  0.00    +0.000 C 
ATOM     13  C   UNL     1       1.140  13.172  20.390  0.00  0.00    +0.000 C 
ATOM     14  N   UNL     1       1.955  14.200  19.718  0.00  0.00    +0.000 NA
ATOM     15  C   UNL     1       1.585  15.603  19.731  0.00  0.00    +0.000 C 
ATOM     16  C   UNL     1      -0.351  13.238  20.851  0.00  0.00    +0.000 C 
ATOM     17  C   UNL     1      -0.999  12.170  21.790  0.00  0.00    +0.000 C 
ENDROOT
BRANCH   7  18
ATOM     18  O   UNL     1      -1.167  10.285  17.483  0.00  0.00    +0.000 OA
ATOM     19  H   UNL     1      -1.611  11.143  17.317  0.00  0.00    +0.000 HD
ENDBRANCH   7  18
BRANCH  16  20
ATOM     20  O   UNL     1      -0.595  14.551  21.337  0.00  0.00    +0.000 OA
ATOM     21  C   UNL     1      -0.137  14.681  22.700  0.00  0.00    +0.000 C 
ENDBRANCH  16  20
BRANCH   1  22
ATOM     22  C   UNL     1       2.380   7.430  19.767  0.00  0.00    +0.000 C 
BRANCH  22  23
ATOM     23  C   UNL     1       2.248   5.911  19.911  0.00  0.00    +0.000 C 
BRANCH  23  24
ATOM     24  S   UNL     1       3.807   5.188  19.268  0.00  0.00    +0.000 S 
BRANCH  24  26
ATOM     25  C   UNL     1       1.686   4.380  17.774  0.00  0.00    +0.000 C 
ATOM     26  C   UNL     1       3.206   4.443  17.727  0.00  0.00    +0.000 C 
ENDBRANCH  24  26
ENDBRANCH  23  24
ENDBRANCH  22  23
ENDBRANCH   1  22
BRANCH  17  27
ATOM     27  C   UNL     1      -2.517  12.472  22.023  0.00  0.00    +0.000 C 
BRANCH  27  28
ATOM     28  O   UNL     1      -3.087  11.850  23.185  0.00  0.00    +0.000 OA
BRANCH  28  29
ATOM     29  C   UNL     1      -3.764  12.634  24.025  0.00  0.00    +0.000 C 
ATOM     30  N   UNL     1      -4.751  11.941  24.627  0.00  0.00    +0.000 N 
ATOM     31  O   UNL     1      -3.553  13.821  24.209  0.00  0.00    +0.000 OA
ATOM     32  H   UNL     1      -4.917  10.986  24.346  0.00  0.00    +0.000 HD
ATOM     33  H   UNL     1      -5.393  12.421  25.239  0.00  0.00    +0.000 HD
ENDBRANCH  28  29
ENDBRANCH  27  28
ENDBRANCH  17  27
TORSDOF 9
ENDMDL
MODEL 2
REMARK VINA RESULT:      -6.3      1.051      1.156
REMARK  Name = 
REMARK  13 active torsions:
REMARK  status: ('A' for Active; 'I' for Inactive)
REMARK    1  A    between atoms: C_1  and  C_2
REMARK    2  A    between atoms: C_2  and  S_3
REMARK    3  A    between atoms: S_3  and  C_4
REMARK    4  A    between atoms: C_4  and  C_5
REMARK    5  A    between atoms: C_5  and  N_6
REMARK    6  A    between atoms: C_12  and  O_13
REMARK    7  A    between atoms: C_14  and  C_15
REMARK    8  A    between atoms: N_20  and  C_21
REMARK    9  A    between atoms: C_22  and  O_23
REMARK   10  A    between atoms: O_23  and  C_24
REMARK   11  A    between atoms: C_25  and  C_26
REMARK   12  A    between atoms: C_26  and  O_27
REMARK   13  A    between atoms: O_27  and  C_28
REMARK                            x       y       z     vdW  Elec       q    Type
REMARK                         _______ _______ _______ _____ _____    ______ ____
ROOT
ATOM      1  N   UNL     1       1.388   8.056  20.847  0.00  0.00    +0.000 NA
ATOM      2  C   UNL     1       0.768   9.072  20.344  0.00  0.00    +0.000 C 
ATOM      3  C   UNL     1      -0.185   9.831  21.313  0.00  0.00    +0.000 C 
ATOM      4  O   UNL     1      -0.447   9.418  22.430  0.00  0.00    +0.000 OA
ATOM      5  C   UNL     1      -0.688  11.126  20.844  0.00  0.00    +0.000 C 
ATOM      6  C   UNL     1      -0.708  11.425  19.536  0.00  0.00    +0.000 C 
ATOM      7  C   UNL     1      -0.231  10.427  18.604  0.00  0.00    +0.000 C 
ATOM      8  C   UNL     1       0.757   9.572  18.921  0.00  0.00    +0.000 C 
ATOM      9  C   UNL     1       1.861   9.292  17.948  0.00  0.00    +0.000 C 
ATOM     10  N   UNL     1      -0.589  12.861  19.376  0.00  0.00    +0.000 N 
ATOM     11  C   UNL     1       0.183  13.440  18.269  0.00  0.00    +0.000 C 
ATOM     12  C   UNL     1       1.599  13.158  18.683  0.00  0.00    +0.000 C 
ATOM     13  C   UNL     1       1.569  13.056  20.223  0.00  0.00    +0.000 C 
ATOM     14  N   UNL     1       2.491  13.946  19.496  0.00  0.00    +0.000 NA
ATOM     15  C   UNL     1       2.267  15.378  19.408  0.00  0.00    +0.000 C 
ATOM     16  C   UNL     1       0.089  13.307  20.656  0.00  0.00    +0.000 C 
ATOM     17  C   UNL     1      -0.673  12.378  21.656  0.00  0.00    +0.000 C 
ENDROOT
BRANCH   7  18
ATOM     18  O   UNL     1      -1.001  10.227  17.485  0.00  0.00    +0.000 OA
ATOM     19  H   UNL     1      -1.036  11.099  17.039  0.00  0.00    +0.000 HD
ENDBRANCH   7  18
BRANCH  16  20
ATOM     20  O   UNL     1      -0.022  14.668  21.048  0.00  0.00    +0.000 OA
ATOM     21  C   UNL     1       0.495  14.856  22.383  0.00  0.00    +0.000 C 
ENDBRANCH  16  20
BRANCH   1  22
ATOM     22  C   UNL     1       2.214   7.188  20.010  0.00  0.00    +0.000 C 
BRANCH  22  23
ATOM     23  C   UNL     1       2.013   5.706  20.340  0.00  0.00    +0.000 C 
BRANCH  23  24
ATOM     24  S   UNL     1       3.470   4.818  19.666  0.00  0.00    +0.000 S 
BRANCH  24  26
ATOM     25  C   UNL     1       2.292   3.166  21.474  0.00  0.00    +0.000 C 
ATOM     26  C   UNL     1       3.075   3.121  20.170  0.00  0.00    +0.000 C 
ENDBRANCH  24  26
ENDBRANCH  23  24
ENDBRANCH  22  23
ENDBRANCH   1  22
BRANCH  17  27
ATOM     27  C   UNL     1      -2.154  12.850  21.844  0.00  0.00    +0.000 C 
BRANCH  27  28
ATOM     28  O   UNL     1      -2.589  12.947  23.209  0.00  0.00    +0.000 OA
BRANCH  28  29
ATOM     29  C   UNL     1      -3.862  12.645  23.466  0.00  0.00    +0.000 C 
ATOM     30  N   UNL     1      -4.682  13.284  22.607  0.00  0.00    +0.000 N 
ATOM     31  O   UNL     1      -4.249  11.920  24.367  0.00  0.00    +0.000 OA
ATOM     32  H   UNL     1      -4.285  13.941  21.952  0.00  0.00    +0.000 HD
ATOM     33  H   UNL     1      -5.681  13.206  22.724  0.00  0.00    +0.000 HD
ENDBRANCH  28  29
ENDBRANCH  27  28
ENDBRANCH  17  27
TORSDOF 9
ENDMDL
MODEL 3
REMARK VINA RESULT:      -6.2      1.128      1.137
REMARK  Name = 
REMARK  13 active torsions:
REMARK  status: ('A' for Active; 'I' for Inactive)
REMARK    1  A    between atoms: C_1  and  C_2
REMARK    2  A    between atoms: C_2  and  S_3
REMARK    3  A    between atoms: S_3  and  C_4
REMARK    4  A    between atoms: C_4  and  C_5
REMARK    5  A    between atoms: C_5  and  N_6
REMARK    6  A    between atoms: C_12  and  O_13
REMARK    7  A    between atoms: C_14  and  C_15
REMARK    8  A    between atoms: N_20  and  C_21
REMARK    9  A    between atoms: C_22  and  O_23
REMARK   10  A    between atoms: O_23  and  C_24
REMARK   11  A    between atoms: C_25  and  C_26
REMARK   12  A    between atoms: C_26  and  O_27
REMARK   13  A    between atoms: O_27  and  C_28
REMARK                            x       y       z     vdW  Elec       q    Type
REMARK                         _______ _______ _______ _____ _____    ______ ____
ROOT
ATOM      1  N   UNL     1       1.414   8.314  21.057  0.00  0.00    +0.000 NA
ATOM      2  C   UNL     1       0.720   9.310  20.615  0.00  0.00    +0.000 C 
ATOM      3  C   UNL     1       0.023  10.183  21.699  0.00  0.00    +0.000 C 
ATOM      4  O   UNL     1       0.007   9.873  22.879  0.00  0.00    +0.000 OA
ATOM      5  C   UNL     1      -0.543  11.455  21.241  0.00  0.00    +0.000 C 
ATOM      6  C   UNL     1      -0.847  11.648  19.948  0.00  0.00    +0.000 C 
ATOM      7  C   UNL     1      -0.612  10.560  19.025  0.00  0.00    +0.000 C 
ATOM      8  C   UNL     1       0.404   9.694  19.191  0.00  0.00    +0.000 C 
ATOM      9  C   UNL     1       1.257   9.291  18.028  0.00  0.00    +0.000 C 
ATOM     10  N   UNL     1      -0.735  13.061  19.640  0.00  0.00    +0.000 N 
ATOM     11  C   UNL     1      -0.216  13.516  18.344  0.00  0.00    +0.000 C 
ATOM     12  C   UNL     1       1.250  13.211  18.460  0.00  0.00    +0.000 C 
ATOM     13  C   UNL     1       1.561  13.236  19.972  0.00  0.00    +0.000 C 
ATOM     14  N   UNL     1       2.317  14.025  18.984  0.00  0.00    +0.000 NA
ATOM     15  C   UNL     1       2.111  15.453  18.822  0.00  0.00    +0.000 C 
ATOM     16  C   UNL     1       0.221  13.580  20.696  0.00  0.00    +0.000 C 
ATOM     17  C   UNL     1      -0.321  12.768  21.916  0.00  0.00    +0.000 C 
ENDROOT
BRANCH   7  18
ATOM     18  O   UNL     1      -1.615  10.301  18.125  0.00  0.00    +0.000 OA
ATOM     19  H   UNL     1      -1.903  11.182  17.804  0.00  0.00    +0.000 HD
ENDBRANCH   7  18
BRANCH  16  20
ATOM     20  O   UNL     1       0.229  14.972  20.981  0.00  0.00    +0.000 OA
ATOM     21  C   UNL     1       1.067  15.251  22.124  0.00  0.00    +0.000 C 
ENDBRANCH  16  20
BRANCH   1  22
ATOM     22  C   UNL     1       2.014   7.348  20.139  0.00  0.00    +0.000 C 
BRANCH  22  23
ATOM     23  C   UNL     1       1.938   5.916  20.677  0.00  0.00    +0.000 C 
BRANCH  23  24
ATOM     24  S   UNL     1       2.007   4.806  19.218  0.00  0.00    +0.000 S 
BRANCH  24  26
ATOM     25  C   UNL     1       0.874   2.389  18.707  0.00  0.00    +0.000 C 
ATOM     26  C   UNL     1       0.988   3.428  19.813  0.00  0.00    +0.000 C 
ENDBRANCH  24  26
ENDBRANCH  23  24
ENDBRANCH  22  23
ENDBRANCH   1  22
BRANCH  17  27
ATOM     27  C   UNL     1      -1.712  13.313  22.383  0.00  0.00    +0.000 C 
BRANCH  27  28
ATOM     28  O   UNL     1      -2.450  12.430  23.241  0.00  0.00    +0.000 OA
BRANCH  28  29
ATOM     29  C   UNL     1      -3.777  12.565  23.257  0.00  0.00    +0.000 C 
ATOM     30  N   UNL     1      -4.295  12.023  24.378  0.00  0.00    +0.000 N 
ATOM     31  O   UNL     1      -4.446  13.075  22.374  0.00  0.00    +0.000 OA
ATOM     32  H   UNL     1      -3.680  11.536  25.012  0.00  0.00    +0.000 HD
ATOM     33  H   UNL     1      -5.296  11.989  24.496  0.00  0.00    +0.000 HD
ENDBRANCH  28  29
ENDBRANCH  27  28
ENDBRANCH  17  27
TORSDOF 9
ENDMDL
MODEL 4
REMARK VINA RESULT:      -6.2      1.357      1.408
REMARK  Name = 
REMARK  13 active torsions:
REMARK  status: ('A' for Active; 'I' for Inactive)
REMARK    1  A    between atoms: C_1  and  C_2
REMARK    2  A    between atoms: C_2  and  S_3
REMARK    3  A    between atoms: S_3  and  C_4
REMARK    4  A    between atoms: C_4  and  C_5
REMARK    5  A    between atoms: C_5  and  N_6
REMARK    6  A    between atoms: C_12  and  O_13
REMARK    7  A    between atoms: C_14  and  C_15
REMARK    8  A    between atoms: N_20  and  C_21
REMARK    9  A    between atoms: C_22  and  O_23
REMARK   10  A    between atoms: O_23  and  C_24
REMARK   11  A    between atoms: C_25  and  C_26
REMARK   12  A    between atoms: C_26  and  O_27
REMARK   13  A    between atoms: O_27  and  C_28
REMARK                            x       y       z     vdW  Elec       q    Type
REMARK                         _______ _______ _______ _____ _____    ______ ____
ROOT
ATOM      1  N   UNL     1       1.404   8.150  20.902  0.00  0.00    +0.000 NA
ATOM      2  C   UNL     1       0.840   9.194  20.393  0.00  0.00    +0.000 C 
ATOM      3  C   UNL     1      -0.007  10.053  21.376  0.00  0.00    +0.000 C 
ATOM      4  O   UNL     1      -0.247   9.696  22.518  0.00  0.00    +0.000 OA
ATOM      5  C   UNL     1      -0.432  11.368  20.887  0.00  0.00    +0.000 C 
ATOM      6  C   UNL     1      -0.490  11.628  19.572  0.00  0.00    +0.000 C 
ATOM      7  C   UNL     1      -0.135  10.569  18.654  0.00  0.00    +0.000 C 
ATOM      8  C   UNL     1       0.800   9.651  18.956  0.00  0.00    +0.000 C 
ATOM      9  C   UNL     1       1.833   9.257  17.945  0.00  0.00    +0.000 C 
ATOM     10  N   UNL     1      -0.271  13.046  19.358  0.00  0.00    +0.000 N 
ATOM     11  C   UNL     1       0.490  13.529  18.199  0.00  0.00    +0.000 C 
ATOM     12  C   UNL     1       1.898  13.152  18.560  0.00  0.00    +0.000 C 
ATOM     13  C   UNL     1       1.933  13.100  20.102  0.00  0.00    +0.000 C 
ATOM     14  N   UNL     1       2.884  13.894  19.305  0.00  0.00    +0.000 NA
ATOM     15  C   UNL     1       2.765  15.335  19.178  0.00  0.00    +0.000 C 
ATOM     16  C   UNL     1       0.498  13.476  20.591  0.00  0.00    +0.000 C 
ATOM     17  C   UNL     1      -0.285  12.640  21.655  0.00  0.00    +0.000 C 
ENDROOT
BRANCH   7  18
ATOM     18  O   UNL     1      -0.969  10.394  17.578  0.00  0.00    +0.000 OA
ATOM     19  H   UNL     1      -1.437   9.551  17.751  0.00  0.00    +0.000 HD
ENDBRANCH   7  18
BRANCH  16  20
ATOM     20  O   UNL     1       0.508  14.853  20.941  0.00  0.00    +0.000 OA
ATOM     21  C   UNL     1       1.121  15.044  22.234  0.00  0.00    +0.000 C 
ENDBRANCH  16  20
BRANCH   1  22
ATOM     22  C   UNL     1       2.122   7.196  20.060  0.00  0.00    +0.000 C 
BRANCH  22  23
ATOM     23  C   UNL     1       1.833   5.745  20.455  0.00  0.00    +0.000 C 
BRANCH  23  24
ATOM     24  S   UNL     1       3.024   4.703  19.526  0.00  0.00    +0.000 S 
BRANCH  24  26
ATOM     25  C   UNL     1       1.083   2.996  18.686  0.00  0.00    +0.000 C 
ATOM     26  C   UNL     1       1.962   4.127  18.172  0.00  0.00    +0.000 C 
ENDBRANCH  24  26
ENDBRANCH  23  24
ENDBRANCH  22  23
ENDBRANCH   1  22
BRANCH  17  27
ATOM     27  C   UNL     1      -1.716  13.230  21.892  0.00  0.00    +0.000 C 
BRANCH  27  28
ATOM     28  O   UNL     1      -2.770  12.256  21.947  0.00  0.00    +0.000 OA
BRANCH  28  29
ATOM     29  C   UNL     1      -3.952  12.611  21.443  0.00  0.00    +0.000 C 
ATOM     30  N   UNL     1      -3.789  13.317  20.306  0.00  0.00    +0.000 N 
ATOM     31  O   UNL     1      -5.037  12.367  21.944  0.00  0.00    +0.000 OA
ATOM     32  H   UNL     1      -2.855  13.556  20.011  0.00  0.00    +0.000 HD
ATOM     33  H   UNL     1      -4.596  13.713  19.848  0.00  0.00    +0.000 HD
ENDBRANCH  28  29
ENDBRANCH  27  28
ENDBRANCH  17  27
TORSDOF 9
ENDMDL
MODEL 5
REMARK VINA RESULT:      -6.0      4.679      8.813
REMARK  Name = 
REMARK  13 active torsions:
REMARK  status: ('A' for Active; 'I' for Inactive)
REMARK    1  A    between atoms: C_1  and  C_2
REMARK    2  A    between atoms: C_2  and  S_3
REMARK    3  A    between atoms: S_3  and  C_4
REMARK    4  A    between atoms: C_4  and  C_5
REMARK    5  A    between atoms: C_5  and  N_6
REMARK    6  A    between atoms: C_12  and  O_13
REMARK    7  A    between atoms: C_14  and  C_15
REMARK    8  A    between atoms: N_20  and  C_21
REMARK    9  A    between atoms: C_22  and  O_23
REMARK   10  A    between atoms: O_23  and  C_24
REMARK   11  A    between atoms: C_25  and  C_26
REMARK   12  A    between atoms: C_26  and  O_27
REMARK   13  A    between atoms: O_27  and  C_28
REMARK                            x       y       z     vdW  Elec       q    Type
REMARK                         _______ _______ _______ _____ _____    ______ ____
ROOT
ATOM      1  N   UNL     1       6.187   6.295  15.399  0.00  0.00    +0.000 NA
ATOM      2  C   UNL     1       5.745   6.016  16.581  0.00  0.00    +0.000 C 
ATOM      3  C   UNL     1       4.489   6.813  17.038  0.00  0.00    +0.000 C 
ATOM      4  O   UNL     1       4.032   7.743  16.393  0.00  0.00    +0.000 OA
ATOM      5  C   UNL     1       3.823   6.331  18.252  0.00  0.00    +0.000 C 
ATOM      6  C   UNL     1       4.479   5.572  19.143  0.00  0.00    +0.000 C 
ATOM      7  C   UNL     1       5.865   5.257  18.877  0.00  0.00    +0.000 C 
ATOM      8  C   UNL     1       6.330   5.099  17.625  0.00  0.00    +0.000 C 
ATOM      9  C   UNL     1       7.242   3.958  17.291  0.00  0.00    +0.000 C 
ATOM     10  N   UNL     1       3.529   4.715  19.827  0.00  0.00    +0.000 N 
ATOM     11  C   UNL     1       3.881   3.339  20.197  0.00  0.00    +0.000 C 
ATOM     12  C   UNL     1       3.877   2.637  18.869  0.00  0.00    +0.000 C 
ATOM     13  C   UNL     1       2.917   3.449  17.974  0.00  0.00    +0.000 C 
ATOM     14  N   UNL     1       2.790   1.995  18.175  0.00  0.00    +0.000 NA
ATOM     15  C   UNL     1       1.780   1.425  19.048  0.00  0.00    +0.000 C 
ATOM     16  C   UNL     1       2.372   4.619  18.853  0.00  0.00    +0.000 C 
ATOM     17  C   UNL     1       2.352   6.107  18.372  0.00  0.00    +0.000 C 
ENDROOT
BRANCH   7  18
ATOM     18  O   UNL     1       6.728   5.379  19.937  0.00  0.00    +0.000 OA
ATOM     19  H   UNL     1       7.575   5.678  19.543  0.00  0.00    +0.000 HD
ENDBRANCH   7  18
BRANCH  16  20
ATOM     20  O   UNL     1       1.097   4.233  19.346  0.00  0.00    +0.000 OA
ATOM     21  C   UNL     1       1.069   4.298  20.789  0.00  0.00    +0.000 C 
ENDBRANCH  16  20
BRANCH   1  22
ATOM     22  C   UNL     1       7.429   5.707  14.902  0.00  0.00    +0.000 C 
BRANCH  22  23
ATOM     23  C   UNL     1       7.244   5.029  13.541  0.00  0.00    +0.000 C 
BRANCH  23  24
ATOM     24  S   UNL     1       5.782   3.931  13.700  0.00  0.00    +0.000 S 
BRANCH  24  26
ATOM     25  C   UNL     1       4.367   3.151  11.515  0.00  0.00    +0.000 C 
ATOM     26  C   UNL     1       5.786   3.150  12.063  0.00  0.00    +0.000 C 
ENDBRANCH  24  26
ENDBRANCH  23  24
ENDBRANCH  22  23
ENDBRANCH   1  22
BRANCH  17  27
ATOM     27  C   UNL     1       1.808   7.054  19.494  0.00  0.00    +0.000 C 
BRANCH  27  28
ATOM     28  O   UNL     1       2.205   8.428  19.370  0.00  0.00    +0.000 OA
BRANCH  28  29
ATOM     29  C   UNL     1       1.329   9.267  18.816  0.00  0.00    +0.000 C 
ATOM     30  N   UNL     1       1.725   9.614  17.575  0.00  0.00    +0.000 N 
ATOM     31  O   UNL     1       0.323   9.696  19.356  0.00  0.00    +0.000 OA
ATOM     32  H   UNL     1       2.619   9.288  17.241  0.00  0.00    +0.000 HD
ATOM     33  H   UNL     1       1.195  10.300  17.059  0.00  0.00    +0.000 HD
ENDBRANCH  28  29
ENDBRANCH  27  28
ENDBRANCH  17  27
TORSDOF 9
ENDMDL
MODEL 6
REMARK VINA RESULT:      -6.0      1.187      1.360
REMARK  Name = 
REMARK  13 active torsions:
REMARK  status: ('A' for Active; 'I' for Inactive)
REMARK    1  A    between atoms: C_1  and  C_2
REMARK    2  A    between atoms: C_2  and  S_3
REMARK    3  A    between atoms: S_3  and  C_4
REMARK    4  A    between atoms: C_4  and  C_5
REMARK    5  A    between atoms: C_5  and  N_6
REMARK    6  A    between atoms: C_12  and  O_13
REMARK    7  A    between atoms: C_14  and  C_15
REMARK    8  A    between atoms: N_20  and  C_21
REMARK    9  A    between atoms: C_22  and  O_23
REMARK   10  A    between atoms: O_23  and  C_24
REMARK   11  A    between atoms: C_25  and  C_26
REMARK   12  A    between atoms: C_26  and  O_27
REMARK   13  A    between atoms: O_27  and  C_28
REMARK                            x       y       z     vdW  Elec       q    Type
REMARK                         _______ _______ _______ _____ _____    ______ ____
ROOT
ATOM      1  N   UNL     1       1.402   8.155  20.917  0.00  0.00    +0.000 NA
ATOM      2  C   UNL     1       0.857   9.209  20.407  0.00  0.00    +0.000 C 
ATOM      3  C   UNL     1       0.035  10.090  21.392  0.00  0.00    +0.000 C 
ATOM      4  O   UNL     1      -0.207   9.742  22.536  0.00  0.00    +0.000 OA
ATOM      5  C   UNL     1      -0.365  11.412  20.900  0.00  0.00    +0.000 C 
ATOM      6  C   UNL     1      -0.425  11.668  19.584  0.00  0.00    +0.000 C 
ATOM      7  C   UNL     1      -0.097  10.598  18.668  0.00  0.00    +0.000 C 
ATOM      8  C   UNL     1       0.820   9.661  18.969  0.00  0.00    +0.000 C 
ATOM      9  C   UNL     1       1.839   9.241  17.954  0.00  0.00    +0.000 C 
ATOM     10  N   UNL     1      -0.176  13.080  19.364  0.00  0.00    +0.000 N 
ATOM     11  C   UNL     1       0.588  13.543  18.199  0.00  0.00    +0.000 C 
ATOM     12  C   UNL     1       1.990  13.137  18.553  0.00  0.00    +0.000 C 
ATOM     13  C   UNL     1       2.032  13.090  20.095  0.00  0.00    +0.000 C 
ATOM     14  N   UNL     1       2.995  13.860  19.290  0.00  0.00    +0.000 NA
ATOM     15  C   UNL     1       2.907  15.303  19.158  0.00  0.00    +0.000 C 
ATOM     16  C   UNL     1       0.608  13.498  20.591  0.00  0.00    +0.000 C 
ATOM     17  C   UNL     1      -0.186  12.683  21.662  0.00  0.00    +0.000 C 
ENDROOT
BRANCH   7  18
ATOM     18  O   UNL     1      -0.940  10.437  17.597  0.00  0.00    +0.000 OA
ATOM     19  H   UNL     1      -0.561   9.694  17.083  0.00  0.00    +0.000 HD
ENDBRANCH   7  18
BRANCH  16  20
ATOM     20  O   UNL     1       0.650  14.876  20.935  0.00  0.00    +0.000 OA
ATOM     21  C   UNL     1       1.322  15.064  22.199  0.00  0.00    +0.000 C 
ENDBRANCH  16  20
BRANCH   1  22
ATOM     22  C   UNL     1       2.095   7.183  20.075  0.00  0.00    +0.000 C 
BRANCH  22  23
ATOM     23  C   UNL     1       1.898   5.746  20.569  0.00  0.00    +0.000 C 
BRANCH  23  24
ATOM     24  S   UNL     1       2.958   4.682  19.515  0.00  0.00    +0.000 S 
BRANCH  24  26
ATOM     25  C   UNL     1       4.250   5.340  17.217  0.00  0.00    +0.000 C 
ATOM     26  C   UNL     1       2.975   5.656  17.985  0.00  0.00    +0.000 C 
ENDBRANCH  24  26
ENDBRANCH  23  24
ENDBRANCH  22  23
ENDBRANCH   1  22
BRANCH  17  27
ATOM     27  C   UNL     1      -1.603  13.304  21.905  0.00  0.00    +0.000 C 
BRANCH  27  28
ATOM     28  O   UNL     1      -2.648  12.350  22.145  0.00  0.00    +0.000 OA
BRANCH  28  29
ATOM     29  C   UNL     1      -3.843  12.608  21.610  0.00  0.00    +0.000 C 
ATOM     30  N   UNL     1      -4.813  12.484  22.537  0.00  0.00    +0.000 N 
ATOM     31  O   UNL     1      -4.048  12.886  20.440  0.00  0.00    +0.000 OA
ATOM     32  H   UNL     1      -4.567  12.157  23.459  0.00  0.00    +0.000 HD
ATOM     33  H   UNL     1      -5.779  12.582  22.261  0.00  0.00    +0.000 HD
ENDBRANCH  28  29
ENDBRANCH  27  28
ENDBRANCH  17  27
TORSDOF 9
ENDMDL
MODEL 7
REMARK VINA RESULT:      -5.8      1.585      1.655
REMARK  Name = 
REMARK  13 active torsions:
REMARK  status: ('A' for Active; 'I' for Inactive)
REMARK    1  A    between atoms: C_1  and  C_2
REMARK    2  A    between atoms: C_2  and  S_3
REMARK    3  A    between atoms: S_3  and  C_4
REMARK    4  A    between atoms: C_4  and  C_5
REMARK    5  A    between atoms: C_5  and  N_6
REMARK    6  A    between atoms: C_12  and  O_13
REMARK    7  A    between atoms: C_14  and  C_15
REMARK    8  A    between atoms: N_20  and  C_21
REMARK    9  A    between atoms: C_22  and  O_23
REMARK   10  A    between atoms: O_23  and  C_24
REMARK   11  A    between atoms: C_25  and  C_26
REMARK   12  A    between atoms: C_26  and  O_27
REMARK   13  A    between atoms: O_27  and  C_28
REMARK                            x       y       z     vdW  Elec       q    Type
REMARK                         _______ _______ _______ _____ _____    ______ ____
ROOT
ATOM      1  N   UNL     1       1.840   7.907  20.435  0.00  0.00    +0.000 NA
ATOM      2  C   UNL     1       1.187   8.960  20.071  0.00  0.00    +0.000 C 
ATOM      3  C   UNL     1       0.492   9.755  21.215  0.00  0.00    +0.000 C 
ATOM      4  O   UNL     1       0.439   9.342  22.362  0.00  0.00    +0.000 OA
ATOM      5  C   UNL     1      -0.024  11.081  20.862  0.00  0.00    +0.000 C 
ATOM      6  C   UNL     1      -0.292  11.398  19.585  0.00  0.00    +0.000 C 
ATOM      7  C   UNL     1      -0.069  10.389  18.573  0.00  0.00    +0.000 C 
ATOM      8  C   UNL     1       0.915   9.480  18.682  0.00  0.00    +0.000 C 
ATOM      9  C   UNL     1       1.782   9.155  17.504  0.00  0.00    +0.000 C 
ATOM     10  N   UNL     1      -0.131  12.829  19.408  0.00  0.00    +0.000 N 
ATOM     11  C   UNL     1       0.431  13.380  18.169  0.00  0.00    +0.000 C 
ATOM     12  C   UNL     1       1.884  13.019  18.287  0.00  0.00    +0.000 C 
ATOM     13  C   UNL     1       2.161  12.899  19.800  0.00  0.00    +0.000 C 
ATOM     14  N   UNL     1       2.963  13.748  18.903  0.00  0.00    +0.000 NA
ATOM     15  C   UNL     1       2.805  15.191  18.866  0.00  0.00    +0.000 C 
ATOM     16  C   UNL     1       0.816  13.220  20.525  0.00  0.00    +0.000 C 
ATOM     17  C   UNL     1       0.222  12.320  21.657  0.00  0.00    +0.000 C 
ENDROOT
BRANCH   7  18
ATOM     18  O   UNL     1      -1.059  10.245  17.634  0.00  0.00    +0.000 OA
ATOM     19  H   UNL     1      -0.639   9.760  16.893  0.00  0.00    +0.000 HD
ENDBRANCH   7  18
BRANCH  16  20
ATOM     20  O   UNL     1       0.860  14.580  20.935  0.00  0.00    +0.000 OA
ATOM     21  C   UNL     1       1.858  14.770  21.961  0.00  0.00    +0.000 C 
ENDBRANCH  16  20
BRANCH   1  22
ATOM     22  C   UNL     1       2.431   7.008  19.447  0.00  0.00    +0.000 C 
BRANCH  22  23
ATOM     23  C   UNL     1       2.751   5.631  20.036  0.00  0.00    +0.000 C 
BRANCH  23  24
ATOM     24  S   UNL     1       3.501   4.645  18.683  0.00  0.00    +0.000 S 
BRANCH  24  26
ATOM     25  C   UNL     1       2.430   2.308  17.802  0.00  0.00    +0.000 C 
ATOM     26  C   UNL     1       2.858   2.998  19.089  0.00  0.00    +0.000 C 
ENDBRANCH  24  26
ENDBRANCH  23  24
ENDBRANCH  22  23
ENDBRANCH   1  22
BRANCH  17  27
ATOM     27  C   UNL     1      -1.162  12.866  22.143  0.00  0.00    +0.000 C 
BRANCH  27  28
ATOM     28  O   UNL     1      -1.220  13.213  23.535  0.00  0.00    +0.000 OA
BRANCH  28  29
ATOM     29  C   UNL     1      -1.247  14.512  23.837  0.00  0.00    +0.000 C 
ATOM     30  N   UNL     1      -1.647  15.237  22.774  0.00  0.00    +0.000 N 
ATOM     31  O   UNL     1      -0.926  14.995  24.910  0.00  0.00    +0.000 OA
ATOM     32  H   UNL     1      -1.802  14.768  21.894  0.00  0.00    +0.000 HD
ATOM     33  H   UNL     1      -1.649  16.245  22.832  0.00  0.00    +0.000 HD
ENDBRANCH  28  29
ENDBRANCH  27  28
ENDBRANCH  17  27
TORSDOF 9
ENDMDL
MODEL 8
REMARK VINA RESULT:      -5.6      1.562      1.711
REMARK  Name = 
REMARK  13 active torsions:
REMARK  status: ('A' for Active; 'I' for Inactive)
REMARK    1  A    between atoms: C_1  and  C_2
REMARK    2  A    between atoms: C_2  and  S_3
REMARK    3  A    between atoms: S_3  and  C_4
REMARK    4  A    between atoms: C_4  and  C_5
REMARK    5  A    between atoms: C_5  and  N_6
REMARK    6  A    between atoms: C_12  and  O_13
REMARK    7  A    between atoms: C_14  and  C_15
REMARK    8  A    between atoms: N_20  and  C_21
REMARK    9  A    between atoms: C_22  and  O_23
REMARK   10  A    between atoms: O_23  and  C_24
REMARK   11  A    between atoms: C_25  and  C_26
REMARK   12  A    between atoms: C_26  and  O_27
REMARK   13  A    between atoms: O_27  and  C_28
REMARK                            x       y       z     vdW  Elec       q    Type
REMARK                         _______ _______ _______ _____ _____    ______ ____
ROOT
ATOM      1  N   UNL     1       1.520   8.047  20.643  0.00  0.00    +0.000 NA
ATOM      2  C   UNL     1       0.822   9.029  20.177  0.00  0.00    +0.000 C 
ATOM      3  C   UNL     1      -0.200   9.662  21.167  0.00  0.00    +0.000 C 
ATOM      4  O   UNL     1      -0.438   9.178  22.261  0.00  0.00    +0.000 OA
ATOM      5  C   UNL     1      -0.804  10.930  20.750  0.00  0.00    +0.000 C 
ATOM      6  C   UNL     1      -0.837  11.286  19.456  0.00  0.00    +0.000 C 
ATOM      7  C   UNL     1      -0.270  10.375  18.486  0.00  0.00    +0.000 C 
ATOM      8  C   UNL     1       0.783   9.591  18.778  0.00  0.00    +0.000 C 
ATOM      9  C   UNL     1       1.916   9.448  17.809  0.00  0.00    +0.000 C 
ATOM     10  N   UNL     1      -0.837  12.733  19.362  0.00  0.00    +0.000 N 
ATOM     11  C   UNL     1      -0.105  13.423  18.292  0.00  0.00    +0.000 C 
ATOM     12  C   UNL     1       1.326  13.241  18.712  0.00  0.00    +0.000 C 
ATOM     13  C   UNL     1       1.289  13.068  20.245  0.00  0.00    +0.000 C 
ATOM     14  N   UNL     1       2.140  14.063  19.570  0.00  0.00    +0.000 NA
ATOM     15  C   UNL     1       1.799  15.474  19.543  0.00  0.00    +0.000 C 
ATOM     16  C   UNL     1      -0.210  13.175  20.669  0.00  0.00    +0.000 C 
ATOM     17  C   UNL     1      -0.902  12.142  21.616  0.00  0.00    +0.000 C 
ENDROOT
BRANCH   7  18
ATOM     18  O   UNL     1      -1.010  10.162  17.350  0.00  0.00    +0.000 OA
ATOM     19  H   UNL     1      -0.517  10.618  16.635  0.00  0.00    +0.000 HD
ENDBRANCH   7  18
BRANCH  16  20
ATOM     20  O   UNL     1      -0.438  14.502  21.119  0.00  0.00    +0.000 OA
ATOM     21  C   UNL     1       0.025  14.665  22.477  0.00  0.00    +0.000 C 
ENDBRANCH  16  20
BRANCH   1  22
ATOM     22  C   UNL     1       2.423   7.289  19.780  0.00  0.00    +0.000 C 
BRANCH  22  23
ATOM     23  C   UNL     1       2.186   5.779  19.880  0.00  0.00    +0.000 C 
BRANCH  23  24
ATOM     24  S   UNL     1       2.829   5.045  18.325  0.00  0.00    +0.000 S 
BRANCH  24  26
ATOM     25  C   UNL     1       4.659   6.441  16.881  0.00  0.00    +0.000 C 
ATOM     26  C   UNL     1       4.468   5.820  18.257  0.00  0.00    +0.000 C 
ENDBRANCH  24  26
ENDBRANCH  23  24
ENDBRANCH  22  23
ENDBRANCH   1  22
BRANCH  17  27
ATOM     27  C   UNL     1      -2.419  12.480  21.806  0.00  0.00    +0.000 C 
BRANCH  27  28
ATOM     28  O   UNL     1      -3.050  13.087  20.668  0.00  0.00    +0.000 OA
BRANCH  28  29
ATOM     29  C   UNL     1      -4.280  12.672  20.361  0.00  0.00    +0.000 C 
ATOM     30  N   UNL     1      -4.422  12.561  19.025  0.00  0.00    +0.000 N 
ATOM     31  O   UNL     1      -5.172  12.450  21.163  0.00  0.00    +0.000 OA
ATOM     32  H   UNL     1      -3.664  12.855  18.429  0.00  0.00    +0.000 HD
ATOM     33  H   UNL     1      -5.324  12.323  18.640  0.00  0.00    +0.000 HD
ENDBRANCH  28  29
ENDBRANCH  27  28
ENDBRANCH  17  27
TORSDOF 9
ENDMDL
MODEL 9
REMARK VINA RESULT:      -5.6      1.033      1.080
REMARK  Name = 
REMARK  13 active torsions:
REMARK  status: ('A' for Active; 'I' for Inactive)
REMARK    1  A    between atoms: C_1  and  C_2
REMARK    2  A    between atoms: C_2  and  S_3
REMARK    3  A    between atoms: S_3  and  C_4
REMARK    4  A    between atoms: C_4  and  C_5
REMARK    5  A    between atoms: C_5  and  N_6
REMARK    6  A    between atoms: C_12  and  O_13
REMARK    7  A    between atoms: C_14  and  C_15
REMARK    8  A    between atoms: N_20  and  C_21
REMARK    9  A    between atoms: C_22  and  O_23
REMARK   10  A    between atoms: O_23  and  C_24
REMARK   11  A    between atoms: C_25  and  C_26
REMARK   12  A    between atoms: C_26  and  O_27
REMARK   13  A    between atoms: O_27  and  C_28
REMARK                            x       y       z     vdW  Elec       q    Type
REMARK                         _______ _______ _______ _____ _____    ______ ____
ROOT
ATOM      1  N   UNL     1       1.573   7.816  20.585  0.00  0.00    +0.000 NA
ATOM      2  C   UNL     1       0.951   8.884  20.210  0.00  0.00    +0.000 C 
ATOM      3  C   UNL     1       0.000   9.519  21.267  0.00  0.00    +0.000 C 
ATOM      4  O   UNL     1      -0.259   8.973  22.327  0.00  0.00    +0.000 OA
ATOM      5  C   UNL     1      -0.506  10.860  20.960  0.00  0.00    +0.000 C 
ATOM      6  C   UNL     1      -0.530  11.315  19.698  0.00  0.00    +0.000 C 
ATOM      7  C   UNL     1      -0.055  10.439  18.650  0.00  0.00    +0.000 C 
ATOM      8  C   UNL     1       0.935   9.553  18.859  0.00  0.00    +0.000 C 
ATOM      9  C   UNL     1       2.036   9.394  17.856  0.00  0.00    +0.000 C 
ATOM     10  N   UNL     1      -0.413  12.761  19.713  0.00  0.00    +0.000 N 
ATOM     11  C   UNL     1       0.355  13.470  18.682  0.00  0.00    +0.000 C 
ATOM     12  C   UNL     1       1.772  13.142  19.055  0.00  0.00    +0.000 C 
ATOM     13  C   UNL     1       1.747  12.855  20.571  0.00  0.00    +0.000 C 
ATOM     14  N   UNL     1       2.665  13.828  19.954  0.00  0.00    +0.000 NA
ATOM     15  C   UNL     1       2.440  15.259  20.041  0.00  0.00    +0.000 C 
ATOM     16  C   UNL     1       0.268  13.049  21.035  0.00  0.00    +0.000 C 
ATOM     17  C   UNL     1      -0.490  12.005  21.917  0.00  0.00    +0.000 C 
ENDROOT
BRANCH   7  18
ATOM     18  O   UNL     1      -0.828  10.374  17.518  0.00  0.00    +0.000 OA
ATOM     19  H   UNL     1      -1.525  11.052  17.645  0.00  0.00    +0.000 HD
ENDBRANCH   7  18
BRANCH  16  20
ATOM     20  O   UNL     1       0.157  14.352  21.589  0.00  0.00    +0.000 OA
ATOM     21  C   UNL     1      -0.975  15.050  21.024  0.00  0.00    +0.000 C 
ENDBRANCH  16  20
BRANCH   1  22
ATOM     22  C   UNL     1       2.398   7.057  19.647  0.00  0.00    +0.000 C 
BRANCH  22  23
ATOM     23  C   UNL     1       2.279   5.546  19.866  0.00  0.00    +0.000 C 
BRANCH  23  24
ATOM     24  S   UNL     1       2.362   4.769  18.206  0.00  0.00    +0.000 S 
BRANCH  24  26
ATOM     25  C   UNL     1       4.461   3.953  16.686  0.00  0.00    +0.000 C 
ATOM     26  C   UNL     1       4.158   4.742  17.951  0.00  0.00    +0.000 C 
ENDBRANCH  24  26
ENDBRANCH  23  24
ENDBRANCH  22  23
ENDBRANCH   1  22
BRANCH  17  27
ATOM     27  C   UNL     1      -1.971  12.448  22.166  0.00  0.00    +0.000 C 
BRANCH  27  28
ATOM     28  O   UNL     1      -2.282  12.781  23.528  0.00  0.00    +0.000 OA
BRANCH  28  29
ATOM     29  C   UNL     1      -3.316  13.598  23.733  0.00  0.00    +0.000 C 
ATOM     30  N   UNL     1      -4.054  13.719  22.611  0.00  0.00    +0.000 N 
ATOM     31  O   UNL     1      -3.557  14.186  24.774  0.00  0.00    +0.000 OA
ATOM     32  H   UNL     1      -3.731  13.273  21.766  0.00  0.00    +0.000 HD
ATOM     33  H   UNL     1      -4.832  14.361  22.595  0.00  0.00    +0.000 HD
ENDBRANCH  28  29
ENDBRANCH  27  28
ENDBRANCH  17  27
TORSDOF 9
ENDMDL
