MODEL 1
REMARK VINA RESULT:      -7.6      0.000      0.000
REMARK  Name = 
REMARK  11 active torsions:
REMARK  status: ('A' for Active; 'I' for Inactive)
REMARK    1  A    between atoms: C_1  and  O_2
REMARK    2  A    between atoms: O_2  and  C_3
REMARK    3  A    between atoms: C_8  and  C_9
REMARK    4  A    between atoms: C_9  and  C_10
REMARK    5  A    between atoms: C_9  and  C_11
REMARK    6  A    between atoms: C_13  and  O_14
REMARK    7  A    between atoms: O_14  and  C_15
REMARK    8  A    between atoms: C_16  and  O_17
REMARK    9  A    between atoms: O_17  and  C_18
REMARK   10  A    between atoms: C_19  and  O_20
REMARK   11  A    between atoms: O_20  and  C_21
REMARK                            x       y       z     vdW  Elec       q    Type
REMARK                         _______ _______ _______ _____ _____    ______ ____
ROOT
ATOM      1  C   UNL     1       3.559   4.598  17.786  0.00  0.00    +0.000 C 
ATOM      2  C   UNL     1       2.549   3.580  17.239  0.00  0.00    +0.000 C 
ENDROOT
BRANCH   1   8
ATOM      3  C   UNL     1       2.511   5.989  19.749  0.00  0.00    +0.000 A 
ATOM      4  C   UNL     1       1.964   7.194  20.222  0.00  0.00    +0.000 A 
ATOM      5  C   UNL     1       1.826   8.241  19.343  0.00  0.00    +0.000 A 
ATOM      6  C   UNL     1       2.207   8.132  18.031  0.00  0.00    +0.000 A 
ATOM      7  C   UNL     1       2.736   6.963  17.527  0.00  0.00    +0.000 A 
ATOM      8  C   UNL     1       2.910   5.851  18.387  0.00  0.00    +0.000 A 
ATOM      9  O   UNL     1       2.020   9.289  17.343  0.00  0.00    +0.000 OA
ATOM     10  C   UNL     1       1.484  10.139  18.380  0.00  0.00    +0.000 C 
ATOM     11  O   UNL     1       1.341   9.473  19.649  0.00  0.00    +0.000 OA
BRANCH   3  13
ATOM     12  C   UNL     1       1.615   4.121  20.905  0.00  0.00    +0.000 C 
ATOM     13  O   UNL     1       2.742   4.940  20.600  0.00  0.00    +0.000 OA
ENDBRANCH   3  13
ENDBRANCH   1   8
BRANCH   1  14
ATOM     14  C   UNL     1       4.701   4.829  16.797  0.00  0.00    +0.000 A 
ATOM     15  C   UNL     1       5.656   5.825  17.045  0.00  0.00    +0.000 A 
ATOM     16  C   UNL     1       6.790   5.964  16.229  0.00  0.00    +0.000 A 
ATOM     17  C   UNL     1       6.959   5.136  15.100  0.00  0.00    +0.000 A 
ATOM     18  C   UNL     1       5.985   4.166  14.805  0.00  0.00    +0.000 A 
ATOM     19  C   UNL     1       4.895   4.014  15.675  0.00  0.00    +0.000 A 
BRANCH  16  20
ATOM     20  O   UNL     1       7.781   6.890  16.471  0.00  0.00    +0.000 OA
ATOM     21  C   UNL     1       7.675   7.621  17.687  0.00  0.00    +0.000 C 
ENDBRANCH  16  20
BRANCH  17  22
ATOM     22  O   UNL     1       8.080   5.383  14.338  0.00  0.00    +0.000 OA
ATOM     23  C   UNL     1       7.864   5.626  12.952  0.00  0.00    +0.000 C 
ENDBRANCH  17  22
BRANCH  18  24
ATOM     24  O   UNL     1       6.147   3.409  13.675  0.00  0.00    +0.000 OA
ATOM     25  C   UNL     1       5.134   3.459  12.680  0.00  0.00    +0.000 C 
ENDBRANCH  18  24
ENDBRANCH   1  14
TORSDOF 6
ENDMDL
MODEL 2
REMARK VINA RESULT:      -7.2      0.206      2.566
REMARK  Name = 
REMARK  11 active torsions:
REMARK  status: ('A' for Active; 'I' for Inactive)
REMARK    1  A    between atoms: C_1  and  O_2
REMARK    2  A    between atoms: O_2  and  C_3
REMARK    3  A    between atoms: C_8  and  C_9
REMARK    4  A    between atoms: C_9  and  C_10
REMARK    5  A    between atoms: C_9  and  C_11
REMARK    6  A    between atoms: C_13  and  O_14
REMARK    7  A    between atoms: O_14  and  C_15
REMARK    8  A    between atoms: C_16  and  O_17
REMARK    9  A    between atoms: O_17  and  C_18
REMARK   10  A    between atoms: C_19  and  O_20
REMARK   11  A    between atoms: O_20  and  C_21
REMARK                            x       y       z     vdW  Elec       q    Type
REMARK                         _______ _______ _______ _____ _____    ______ ____
ROOT
ATOM      1  C   UNL     1       3.565   4.473  17.896  0.00  0.00    +0.000 C 
ATOM      2  C   UNL     1       2.563   3.519  17.230  0.00  0.00    +0.000 C 
ENDROOT
BRANCH   1   8
ATOM      3  C   UNL     1       2.496   5.936  19.794  0.00  0.00    +0.000 A 
ATOM      4  C   UNL     1       1.961   7.164  20.220  0.00  0.00    +0.000 A 
ATOM      5  C   UNL     1       1.868   8.190  19.311  0.00  0.00    +0.000 A 
ATOM      6  C   UNL     1       2.281   8.038  18.013  0.00  0.00    +0.000 A 
ATOM      7  C   UNL     1       2.798   6.846  17.554  0.00  0.00    +0.000 A 
ATOM      8  C   UNL     1       2.927   5.754  18.447  0.00  0.00    +0.000 A 
ATOM      9  O   UNL     1       2.134   9.180  17.290  0.00  0.00    +0.000 OA
ATOM     10  C   UNL     1       1.590  10.068  18.291  0.00  0.00    +0.000 C 
ATOM     11  O   UNL     1       1.400   9.439  19.573  0.00  0.00    +0.000 OA
BRANCH   3  13
ATOM     12  C   UNL     1       1.540   4.097  20.949  0.00  0.00    +0.000 C 
ATOM     13  O   UNL     1       2.683   4.905  20.677  0.00  0.00    +0.000 OA
ENDBRANCH   3  13
ENDBRANCH   1   8
BRANCH   1  14
ATOM     14  C   UNL     1       4.815   4.650  17.034  0.00  0.00    +0.000 A 
ATOM     15  C   UNL     1       5.001   3.858  15.893  0.00  0.00    +0.000 A 
ATOM     16  C   UNL     1       6.065   4.094  15.009  0.00  0.00    +0.000 A 
ATOM     17  C   UNL     1       7.010   5.105  15.288  0.00  0.00    +0.000 A 
ATOM     18  C   UNL     1       6.869   5.875  16.455  0.00  0.00    +0.000 A 
ATOM     19  C   UNL     1       5.761   5.652  17.285  0.00  0.00    +0.000 A 
BRANCH  16  20
ATOM     20  O   UNL     1       6.251   3.378  13.846  0.00  0.00    +0.000 OA
ATOM     21  C   UNL     1       5.213   3.473  12.878  0.00  0.00    +0.000 C 
ENDBRANCH  16  20
BRANCH  17  22
ATOM     22  O   UNL     1       8.042   5.226  14.383  0.00  0.00    +0.000 OA
ATOM     23  C   UNL     1       7.716   5.805  13.124  0.00  0.00    +0.000 C 
ENDBRANCH  17  22
BRANCH  18  24
ATOM     24  O   UNL     1       7.827   6.815  16.729  0.00  0.00    +0.000 OA
ATOM     25  C   UNL     1       7.462   7.939  17.518  0.00  0.00    +0.000 C 
ENDBRANCH  18  24
ENDBRANCH   1  14
TORSDOF 6
ENDMDL
MODEL 3
REMARK VINA RESULT:      -6.8      3.545      8.567
REMARK  Name = 
REMARK  11 active torsions:
REMARK  status: ('A' for Active; 'I' for Inactive)
REMARK    1  A    between atoms: C_1  and  O_2
REMARK    2  A    between atoms: O_2  and  C_3
REMARK    3  A    between atoms: C_8  and  C_9
REMARK    4  A    between atoms: C_9  and  C_10
REMARK    5  A    between atoms: C_9  and  C_11
REMARK    6  A    between atoms: C_13  and  O_14
REMARK    7  A    between atoms: O_14  and  C_15
REMARK    8  A    between atoms: C_16  and  O_17
REMARK    9  A    between atoms: O_17  and  C_18
REMARK   10  A    between atoms: C_19  and  O_20
REMARK   11  A    between atoms: O_20  and  C_21
REMARK                            x       y       z     vdW  Elec       q    Type
REMARK                         _______ _______ _______ _____ _____    ______ ____
ROOT
ATOM      1  C   UNL     1       1.190  10.321  19.020  0.00  0.00    +0.000 C 
ATOM      2  C   UNL     1       2.095  11.024  17.998  0.00  0.00    +0.000 C 
ENDROOT
BRANCH   1   8
ATOM      3  C   UNL     1       1.249   8.144  20.483  0.00  0.00    +0.000 A 
ATOM      4  C   UNL     1       1.622   6.797  20.636  0.00  0.00    +0.000 A 
ATOM      5  C   UNL     1       2.318   6.190  19.618  0.00  0.00    +0.000 A 
ATOM      6  C   UNL     1       2.651   6.866  18.474  0.00  0.00    +0.000 A 
ATOM      7  C   UNL     1       2.314   8.190  18.292  0.00  0.00    +0.000 A 
ATOM      8  C   UNL     1       1.589   8.867  19.303  0.00  0.00    +0.000 A 
ATOM      9  O   UNL     1       3.306   6.075  17.582  0.00  0.00    +0.000 OA
ATOM     10  C   UNL     1       3.336   4.822  18.299  0.00  0.00    +0.000 C 
ATOM     11  O   UNL     1       2.726   4.894  19.602  0.00  0.00    +0.000 OA
BRANCH   3  13
ATOM     12  C   UNL     1       1.186   9.242  22.586  0.00  0.00    +0.000 C 
ATOM     13  O   UNL     1       0.489   8.775  21.432  0.00  0.00    +0.000 OA
ENDBRANCH   3  13
ENDBRANCH   1   8
BRANCH   1  14
ATOM     14  C   UNL     1      -0.286  10.577  18.720  0.00  0.00    +0.000 A 
ATOM     15  C   UNL     1      -1.009  11.503  19.484  0.00  0.00    +0.000 A 
ATOM     16  C   UNL     1      -2.323  11.861  19.142  0.00  0.00    +0.000 A 
ATOM     17  C   UNL     1      -2.964  11.244  18.047  0.00  0.00    +0.000 A 
ATOM     18  C   UNL     1      -2.273  10.275  17.300  0.00  0.00    +0.000 A 
ATOM     19  C   UNL     1      -0.942   9.986  17.633  0.00  0.00    +0.000 A 
BRANCH  16  20
ATOM     20  O   UNL     1      -3.049  12.808  19.831  0.00  0.00    +0.000 OA
ATOM     21  C   UNL     1      -3.118  12.642  21.242  0.00  0.00    +0.000 C 
ENDBRANCH  16  20
BRANCH  17  22
ATOM     22  O   UNL     1      -4.268  11.629  17.822  0.00  0.00    +0.000 OA
ATOM     23  C   UNL     1      -5.281  10.760  18.317  0.00  0.00    +0.000 C 
ENDBRANCH  17  22
BRANCH  18  24
ATOM     24  O   UNL     1      -2.936   9.655  16.274  0.00  0.00    +0.000 OA
ATOM     25  C   UNL     1      -2.923  10.271  14.994  0.00  0.00    +0.000 C 
ENDBRANCH  18  24
ENDBRANCH   1  14
TORSDOF 6
ENDMDL
MODEL 4
REMARK VINA RESULT:      -6.8      4.718      9.882
REMARK  Name = 
REMARK  11 active torsions:
REMARK  status: ('A' for Active; 'I' for Inactive)
REMARK    1  A    between atoms: C_1  and  O_2
REMARK    2  A    between atoms: O_2  and  C_3
REMARK    3  A    between atoms: C_8  and  C_9
REMARK    4  A    between atoms: C_9  and  C_10
REMARK    5  A    between atoms: C_9  and  C_11
REMARK    6  A    between atoms: C_13  and  O_14
REMARK    7  A    between atoms: O_14  and  C_15
REMARK    8  A    between atoms: C_16  and  O_17
REMARK    9  A    between atoms: O_17  and  C_18
REMARK   10  A    between atoms: C_19  and  O_20
REMARK   11  A    between atoms: O_20  and  C_21
REMARK                            x       y       z     vdW  Elec       q    Type
REMARK                         _______ _______ _______ _____ _____    ______ ____
ROOT
ATOM      1  C   UNL     1      -0.426  11.977  19.450  0.00  0.00    +0.000 C 
ATOM      2  C   UNL     1       0.301  12.966  18.529  0.00  0.00    +0.000 C 
ENDROOT
BRANCH   1   8
ATOM      3  C   UNL     1       0.280   9.860  20.831  0.00  0.00    +0.000 A 
ATOM      4  C   UNL     1       0.964   8.634  20.903  0.00  0.00    +0.000 A 
ATOM      5  C   UNL     1       1.670   8.211  19.803  0.00  0.00    +0.000 A 
ATOM      6  C   UNL     1       1.719   8.954  18.652  0.00  0.00    +0.000 A 
ATOM      7  C   UNL     1       1.072  10.167  18.547  0.00  0.00    +0.000 A 
ATOM      8  C   UNL     1       0.321  10.651  19.646  0.00  0.00    +0.000 A 
ATOM      9  O   UNL     1       2.440   8.342  17.675  0.00  0.00    +0.000 OA
ATOM     10  C   UNL     1       2.830   7.124  18.346  0.00  0.00    +0.000 C 
ATOM     11  O   UNL     1       2.359   7.044  19.705  0.00  0.00    +0.000 OA
BRANCH   3  13
ATOM     12  C   UNL     1      -0.240   9.697  23.140  0.00  0.00    +0.000 C 
ATOM     13  O   UNL     1      -0.501  10.292  21.870  0.00  0.00    +0.000 OA
ENDBRANCH   3  13
ENDBRANCH   1   8
BRANCH   1  14
ATOM     14  C   UNL     1      -1.909  11.878  19.095  0.00  0.00    +0.000 A 
ATOM     15  C   UNL     1      -2.881  12.317  20.003  0.00  0.00    +0.000 A 
ATOM     16  C   UNL     1      -4.238  12.369  19.648  0.00  0.00    +0.000 A 
ATOM     17  C   UNL     1      -4.658  11.918  18.379  0.00  0.00    +0.000 A 
ATOM     18  C   UNL     1      -3.704  11.424  17.473  0.00  0.00    +0.000 A 
ATOM     19  C   UNL     1      -2.349  11.443  17.838  0.00  0.00    +0.000 A 
BRANCH  16  20
ATOM     20  O   UNL     1      -5.218  12.849  20.489  0.00  0.00    +0.000 OA
ATOM     21  C   UNL     1      -4.913  12.838  21.879  0.00  0.00    +0.000 C 
ENDBRANCH  16  20
BRANCH  17  22
ATOM     22  O   UNL     1      -6.015  11.966  18.145  0.00  0.00    +0.000 OA
ATOM     23  C   UNL     1      -6.756  10.795  18.467  0.00  0.00    +0.000 C 
ENDBRANCH  17  22
BRANCH  18  24
ATOM     24  O   UNL     1      -4.143  10.946  16.267  0.00  0.00    +0.000 OA
ATOM     25  C   UNL     1      -3.177  10.643  15.270  0.00  0.00    +0.000 C 
ENDBRANCH  18  24
ENDBRANCH   1  14
TORSDOF 6
ENDMDL
MODEL 5
REMARK VINA RESULT:      -6.7      1.481      6.788
REMARK  Name = 
REMARK  11 active torsions:
REMARK  status: ('A' for Active; 'I' for Inactive)
REMARK    1  A    between atoms: C_1  and  O_2
REMARK    2  A    between atoms: O_2  and  C_3
REMARK    3  A    between atoms: C_8  and  C_9
REMARK    4  A    between atoms: C_9  and  C_10
REMARK    5  A    between atoms: C_9  and  C_11
REMARK    6  A    between atoms: C_13  and  O_14
REMARK    7  A    between atoms: O_14  and  C_15
REMARK    8  A    between atoms: C_16  and  O_17
REMARK    9  A    between atoms: O_17  and  C_18
REMARK   10  A    between atoms: C_19  and  O_20
REMARK   11  A    between atoms: O_20  and  C_21
REMARK                            x       y       z     vdW  Elec       q    Type
REMARK                         _______ _______ _______ _____ _____    ______ ____
ROOT
ATOM      1  C   UNL     1       3.653   3.543  17.097  0.00  0.00    +0.000 C 
ATOM      2  C   UNL     1       3.761   2.093  17.588  0.00  0.00    +0.000 C 
ENDROOT
BRANCH   1   8
ATOM      3  C   UNL     1       6.108   4.469  17.084  0.00  0.00    +0.000 A 
ATOM      4  C   UNL     1       7.241   4.887  16.364  0.00  0.00    +0.000 A 
ATOM      5  C   UNL     1       7.182   4.886  14.991  0.00  0.00    +0.000 A 
ATOM      6  C   UNL     1       6.054   4.492  14.321  0.00  0.00    +0.000 A 
ATOM      7  C   UNL     1       4.919   4.087  14.991  0.00  0.00    +0.000 A 
ATOM      8  C   UNL     1       4.922   4.059  16.407  0.00  0.00    +0.000 A 
ATOM      9  O   UNL     1       6.216   4.532  12.971  0.00  0.00    +0.000 OA
ATOM     10  C   UNL     1       7.582   4.990  12.875  0.00  0.00    +0.000 C 
ATOM     11  O   UNL     1       8.196   5.235  14.156  0.00  0.00    +0.000 OA
BRANCH   3  13
ATOM     12  C   UNL     1       6.663   5.508  19.144  0.00  0.00    +0.000 C 
ATOM     13  O   UNL     1       6.138   4.377  18.450  0.00  0.00    +0.000 OA
ENDBRANCH   3  13
ENDBRANCH   1   8
BRANCH   1  14
ATOM     14  C   UNL     1       3.045   4.446  18.170  0.00  0.00    +0.000 A 
ATOM     15  C   UNL     1       2.600   3.898  19.381  0.00  0.00    +0.000 A 
ATOM     16  C   UNL     1       2.169   4.718  20.436  0.00  0.00    +0.000 A 
ATOM     17  C   UNL     1       2.120   6.119  20.272  0.00  0.00    +0.000 A 
ATOM     18  C   UNL     1       2.513   6.683  19.046  0.00  0.00    +0.000 A 
ATOM     19  C   UNL     1       2.995   5.839  18.035  0.00  0.00    +0.000 A 
BRANCH  16  20
ATOM     20  O   UNL     1       1.780   4.225  21.662  0.00  0.00    +0.000 OA
ATOM     21  C   UNL     1       1.656   2.811  21.759  0.00  0.00    +0.000 C 
ENDBRANCH  16  20
BRANCH  17  22
ATOM     22  O   UNL     1       1.639   6.831  21.349  0.00  0.00    +0.000 OA
ATOM     23  C   UNL     1       0.419   7.536  21.149  0.00  0.00    +0.000 C 
ENDBRANCH  17  22
BRANCH  18  24
ATOM     24  O   UNL     1       2.407   8.040  18.895  0.00  0.00    +0.000 OA
ATOM     25  C   UNL     1       2.340   8.569  17.578  0.00  0.00    +0.000 C 
ENDBRANCH  18  24
ENDBRANCH   1  14
TORSDOF 6
ENDMDL
MODEL 6
REMARK VINA RESULT:      -6.7      2.175      7.240
REMARK  Name = 
REMARK  11 active torsions:
REMARK  status: ('A' for Active; 'I' for Inactive)
REMARK    1  A    between atoms: C_1  and  O_2
REMARK    2  A    between atoms: O_2  and  C_3
REMARK    3  A    between atoms: C_8  and  C_9
REMARK    4  A    between atoms: C_9  and  C_10
REMARK    5  A    between atoms: C_9  and  C_11
REMARK    6  A    between atoms: C_13  and  O_14
REMARK    7  A    between atoms: O_14  and  C_15
REMARK    8  A    between atoms: C_16  and  O_17
REMARK    9  A    between atoms: O_17  and  C_18
REMARK   10  A    between atoms: C_19  and  O_20
REMARK   11  A    between atoms: O_20  and  C_21
REMARK                            x       y       z     vdW  Elec       q    Type
REMARK                         _______ _______ _______ _____ _____    ______ ____
ROOT
ATOM      1  C   UNL     1       2.028   5.508  19.908  0.00  0.00    +0.000 C 
ATOM      2  C   UNL     1       2.028   4.794  21.267  0.00  0.00    +0.000 C 
ENDROOT
BRANCH   1   8
ATOM      3  C   UNL     1       3.043   4.215  17.863  0.00  0.00    +0.000 A 
ATOM      4  C   UNL     1       4.147   3.915  17.047  0.00  0.00    +0.000 A 
ATOM      5  C   UNL     1       5.361   4.482  17.352  0.00  0.00    +0.000 A 
ATOM      6  C   UNL     1       5.511   5.322  18.425  0.00  0.00    +0.000 A 
ATOM      7  C   UNL     1       4.455   5.630  19.256  0.00  0.00    +0.000 A 
ATOM      8  C   UNL     1       3.177   5.082  18.986  0.00  0.00    +0.000 A 
ATOM      9  O   UNL     1       6.780   5.800  18.530  0.00  0.00    +0.000 OA
ATOM     10  C   UNL     1       7.405   5.168  17.391  0.00  0.00    +0.000 C 
ATOM     11  O   UNL     1       6.512   4.313  16.650  0.00  0.00    +0.000 OA
BRANCH   3  13
ATOM     12  C   UNL     1       1.395   2.549  18.238  0.00  0.00    +0.000 C 
ATOM     13  O   UNL     1       1.794   3.739  17.559  0.00  0.00    +0.000 OA
ENDBRANCH   3  13
ENDBRANCH   1   8
BRANCH   1  14
ATOM     14  C   UNL     1       1.806   7.011  20.074  0.00  0.00    +0.000 A 
ATOM     15  C   UNL     1       1.788   7.847  18.949  0.00  0.00    +0.000 A 
ATOM     16  C   UNL     1       1.448   9.205  19.058  0.00  0.00    +0.000 A 
ATOM     17  C   UNL     1       1.175   9.770  20.322  0.00  0.00    +0.000 A 
ATOM     18  C   UNL     1       1.239   8.958  21.467  0.00  0.00    +0.000 A 
ATOM     19  C   UNL     1       1.523   7.593  21.316  0.00  0.00    +0.000 A 
BRANCH  16  20
ATOM     20  O   UNL     1       1.361  10.048  17.972  0.00  0.00    +0.000 OA
ATOM     21  C   UNL     1       2.442  10.957  17.794  0.00  0.00    +0.000 C 
ENDBRANCH  16  20
BRANCH  17  22
ATOM     22  O   UNL     1       0.897  11.119  20.327  0.00  0.00    +0.000 OA
ATOM     23  C   UNL     1      -0.477  11.484  20.247  0.00  0.00    +0.000 C 
ENDBRANCH  17  22
BRANCH  18  24
ATOM     24  O   UNL     1       1.019   9.542  22.687  0.00  0.00    +0.000 OA
ATOM     25  C   UNL     1      -0.291   9.486  23.234  0.00  0.00    +0.000 C 
ENDBRANCH  18  24
ENDBRANCH   1  14
TORSDOF 6
ENDMDL
MODEL 7
REMARK VINA RESULT:      -6.7      4.383      9.755
REMARK  Name = 
REMARK  11 active torsions:
REMARK  status: ('A' for Active; 'I' for Inactive)
REMARK    1  A    between atoms: C_1  and  O_2
REMARK    2  A    between atoms: O_2  and  C_3
REMARK    3  A    between atoms: C_8  and  C_9
REMARK    4  A    between atoms: C_9  and  C_10
REMARK    5  A    between atoms: C_9  and  C_11
REMARK    6  A    between atoms: C_13  and  O_14
REMARK    7  A    between atoms: O_14  and  C_15
REMARK    8  A    between atoms: C_16  and  O_17
REMARK    9  A    between atoms: O_17  and  C_18
REMARK   10  A    between atoms: C_19  and  O_20
REMARK   11  A    between atoms: O_20  and  C_21
REMARK                            x       y       z     vdW  Elec       q    Type
REMARK                         _______ _______ _______ _____ _____    ______ ____
ROOT
ATOM      1  C   UNL     1       0.055  11.717  19.510  0.00  0.00    +0.000 C 
ATOM      2  C   UNL     1       0.916  12.694  18.697  0.00  0.00    +0.000 C 
ENDROOT
BRANCH   1   8
ATOM      3  C   UNL     1       0.510   9.494  20.828  0.00  0.00    +0.000 A 
ATOM      4  C   UNL     1       1.101   8.220  20.886  0.00  0.00    +0.000 A 
ATOM      5  C   UNL     1       1.856   7.798  19.819  0.00  0.00    +0.000 A 
ATOM      6  C   UNL     1       2.042   8.588  18.714  0.00  0.00    +0.000 A 
ATOM      7  C   UNL     1       1.490   9.848  18.625  0.00  0.00    +0.000 A 
ATOM      8  C   UNL     1       0.693  10.334  19.691  0.00  0.00    +0.000 A 
ATOM      9  O   UNL     1       2.791   7.971  17.761  0.00  0.00    +0.000 OA
ATOM     10  C   UNL     1       3.044   6.699  18.394  0.00  0.00    +0.000 C 
ATOM     11  O   UNL     1       2.469   6.590  19.711  0.00  0.00    +0.000 OA
BRANCH   3  13
ATOM     12  C   UNL     1       0.050   9.553  23.155  0.00  0.00    +0.000 C 
ATOM     13  O   UNL     1      -0.316   9.932  21.829  0.00  0.00    +0.000 OA
ENDBRANCH   3  13
ENDBRANCH   1   8
BRANCH   1  14
ATOM     14  C   UNL     1      -1.399  11.742  19.044  0.00  0.00    +0.000 A 
ATOM     15  C   UNL     1      -1.786  11.015  17.910  0.00  0.00    +0.000 A 
ATOM     16  C   UNL     1      -3.137  10.906  17.541  0.00  0.00    +0.000 A 
ATOM     17  C   UNL     1      -4.131  11.583  18.280  0.00  0.00    +0.000 A 
ATOM     18  C   UNL     1      -3.756  12.359  19.390  0.00  0.00    +0.000 A 
ATOM     19  C   UNL     1      -2.405  12.397  19.765  0.00  0.00    +0.000 A 
BRANCH  16  20
ATOM     20  O   UNL     1      -3.567  10.155  16.470  0.00  0.00    +0.000 OA
ATOM     21  C   UNL     1      -3.027  10.505  15.200  0.00  0.00    +0.000 C 
ENDBRANCH  16  20
BRANCH  17  22
ATOM     22  O   UNL     1      -5.420  11.450  17.810  0.00  0.00    +0.000 OA
ATOM     23  C   UNL     1      -5.973  12.582  17.148  0.00  0.00    +0.000 C 
ENDBRANCH  17  22
BRANCH  18  24
ATOM     24  O   UNL     1      -4.734  13.047  20.058  0.00  0.00    +0.000 OA
ATOM     25  C   UNL     1      -5.370  12.413  21.160  0.00  0.00    +0.000 C 
ENDBRANCH  18  24
ENDBRANCH   1  14
TORSDOF 6
ENDMDL
MODEL 8
REMARK VINA RESULT:      -6.6      3.325      7.315
REMARK  Name = 
REMARK  11 active torsions:
REMARK  status: ('A' for Active; 'I' for Inactive)
REMARK    1  A    between atoms: C_1  and  O_2
REMARK    2  A    between atoms: O_2  and  C_3
REMARK    3  A    between atoms: C_8  and  C_9
REMARK    4  A    between atoms: C_9  and  C_10
REMARK    5  A    between atoms: C_9  and  C_11
REMARK    6  A    between atoms: C_13  and  O_14
REMARK    7  A    between atoms: O_14  and  C_15
REMARK    8  A    between atoms: C_16  and  O_17
REMARK    9  A    between atoms: O_17  and  C_18
REMARK   10  A    between atoms: C_19  and  O_20
REMARK   11  A    between atoms: O_20  and  C_21
REMARK                            x       y       z     vdW  Elec       q    Type
REMARK                         _______ _______ _______ _____ _____    ______ ____
ROOT
ATOM      1  C   UNL     1       3.337   7.206  18.386  0.00  0.00    +0.000 C 
ATOM      2  C   UNL     1       3.701   7.603  16.949  0.00  0.00    +0.000 C 
ENDROOT
BRANCH   1   8
ATOM      3  C   UNL     1       4.287   4.903  19.210  0.00  0.00    +0.000 A 
ATOM      4  C   UNL     1       4.111   3.524  19.413  0.00  0.00    +0.000 A 
ATOM      5  C   UNL     1       2.923   2.950  19.027  0.00  0.00    +0.000 A 
ATOM      6  C   UNL     1       1.923   3.690  18.453  0.00  0.00    +0.000 A 
ATOM      7  C   UNL     1       2.063   5.042  18.224  0.00  0.00    +0.000 A 
ATOM      8  C   UNL     1       3.262   5.691  18.610  0.00  0.00    +0.000 A 
ATOM      9  O   UNL     1       0.822   2.940  18.177  0.00  0.00    +0.000 OA
ATOM     10  C   UNL     1       1.248   1.645  18.655  0.00  0.00    +0.000 C 
ATOM     11  O   UNL     1       2.590   1.641  19.179  0.00  0.00    +0.000 OA
BRANCH   3  13
ATOM     12  C   UNL     1       6.576   5.396  18.823  0.00  0.00    +0.000 C 
ATOM     13  O   UNL     1       5.419   5.539  19.646  0.00  0.00    +0.000 OA
ENDBRANCH   3  13
ENDBRANCH   1   8
BRANCH   1  14
ATOM     14  C   UNL     1       2.161   8.032  18.906  0.00  0.00    +0.000 A 
ATOM     15  C   UNL     1       1.814   7.986  20.262  0.00  0.00    +0.000 A 
ATOM     16  C   UNL     1       0.831   8.838  20.792  0.00  0.00    +0.000 A 
ATOM     17  C   UNL     1       0.127   9.721  19.946  0.00  0.00    +0.000 A 
ATOM     18  C   UNL     1       0.425   9.744  18.572  0.00  0.00    +0.000 A 
ATOM     19  C   UNL     1       1.454   8.923  18.088  0.00  0.00    +0.000 A 
BRANCH  16  20
ATOM     20  O   UNL     1       0.500   8.867  22.129  0.00  0.00    +0.000 OA
ATOM     21  C   UNL     1       1.500   9.364  23.012  0.00  0.00    +0.000 C 
ENDBRANCH  16  20
BRANCH  17  22
ATOM     22  O   UNL     1      -0.849  10.482  20.553  0.00  0.00    +0.000 OA
ATOM     23  C   UNL     1      -0.502  11.826  20.866  0.00  0.00    +0.000 C 
ENDBRANCH  17  22
BRANCH  18  24
ATOM     24  O   UNL     1      -0.307  10.574  17.765  0.00  0.00    +0.000 OA
ATOM     25  C   UNL     1      -1.564  10.113  17.288  0.00  0.00    +0.000 C 
ENDBRANCH  18  24
ENDBRANCH   1  14
TORSDOF 6
ENDMDL
MODEL 9
REMARK VINA RESULT:      -6.5      2.002      6.729
REMARK  Name = 
REMARK  11 active torsions:
REMARK  status: ('A' for Active; 'I' for Inactive)
REMARK    1  A    between atoms: C_1  and  O_2
REMARK    2  A    between atoms: O_2  and  C_3
REMARK    3  A    between atoms: C_8  and  C_9
REMARK    4  A    between atoms: C_9  and  C_10
REMARK    5  A    between atoms: C_9  and  C_11
REMARK    6  A    between atoms: C_13  and  O_14
REMARK    7  A    between atoms: O_14  and  C_15
REMARK    8  A    between atoms: C_16  and  O_17
REMARK    9  A    between atoms: O_17  and  C_18
REMARK   10  A    between atoms: C_19  and  O_20
REMARK   11  A    between atoms: O_20  and  C_21
REMARK                            x       y       z     vdW  Elec       q    Type
REMARK                         _______ _______ _______ _____ _____    ______ ____
ROOT
ATOM      1  C   UNL     1       4.735   6.448  17.403  0.00  0.00    +0.000 C 
ATOM      2  C   UNL     1       4.016   7.724  16.943  0.00  0.00    +0.000 C 
ENDROOT
BRANCH   1   8
ATOM      3  C   UNL     1       6.915   5.520  16.276  0.00  0.00    +0.000 A 
ATOM      4  C   UNL     1       7.530   4.816  15.226  0.00  0.00    +0.000 A 
ATOM      5  C   UNL     1       6.741   4.332  14.210  0.00  0.00    +0.000 A 
ATOM      6  C   UNL     1       5.384   4.524  14.202  0.00  0.00    +0.000 A 
ATOM      7  C   UNL     1       4.746   5.221  15.206  0.00  0.00    +0.000 A 
ATOM      8  C   UNL     1       5.506   5.735  16.285  0.00  0.00    +0.000 A 
ATOM      9  O   UNL     1       4.789   3.939  13.129  0.00  0.00    +0.000 OA
ATOM     10  C   UNL     1       5.931   3.350  12.471  0.00  0.00    +0.000 C 
ATOM     11  O   UNL     1       7.178   3.613  13.143  0.00  0.00    +0.000 OA
BRANCH   3  13
ATOM     12  C   UNL     1       7.778   5.035  18.432  0.00  0.00    +0.000 C 
ATOM     13  O   UNL     1       7.643   5.956  17.352  0.00  0.00    +0.000 OA
ENDBRANCH   3  13
ENDBRANCH   1   8
BRANCH   1  14
ATOM     14  C   UNL     1       3.819   5.578  18.262  0.00  0.00    +0.000 A 
ATOM     15  C   UNL     1       3.040   6.160  19.272  0.00  0.00    +0.000 A 
ATOM     16  C   UNL     1       2.088   5.409  19.980  0.00  0.00    +0.000 A 
ATOM     17  C   UNL     1       1.941   4.029  19.726  0.00  0.00    +0.000 A 
ATOM     18  C   UNL     1       2.750   3.417  18.754  0.00  0.00    +0.000 A 
ATOM     19  C   UNL     1       3.648   4.209  18.023  0.00  0.00    +0.000 A 
BRANCH  16  20
ATOM     20  O   UNL     1       1.262   5.953  20.938  0.00  0.00    +0.000 OA
ATOM     21  C   UNL     1       1.274   7.372  21.045  0.00  0.00    +0.000 C 
ENDBRANCH  16  20
BRANCH  17  22
ATOM     22  O   UNL     1       1.013   3.372  20.506  0.00  0.00    +0.000 OA
ATOM     23  C   UNL     1       1.523   2.632  21.609  0.00  0.00    +0.000 C 
ENDBRANCH  17  22
BRANCH  18  24
ATOM     24  O   UNL     1       2.622   2.066  18.562  0.00  0.00    +0.000 OA
ATOM     25  C   UNL     1       3.794   1.312  18.286  0.00  0.00    +0.000 C 
ENDBRANCH  18  24
ENDBRANCH   1  14
TORSDOF 6
ENDMDL
