MODEL 1
REMARK VINA RESULT:      -6.8      0.000      0.000
REMARK  Name = 
REMARK  5 active torsions:
REMARK  status: ('A' for Active; 'I' for Inactive)
REMARK    1  A    between atoms: C_1  and  O_2
REMARK    2  A    between atoms: O_2  and  C_3
REMARK    3  A    between atoms: C_14  and  N_15
REMARK    4  A    between atoms: N_15  and  C_16
REMARK    5  A    between atoms: N_15  and  C_17
REMARK                            x       y       z     vdW  Elec       q    Type
REMARK                         _______ _______ _______ _____ _____    ______ ____
ROOT
ATOM      1  C   UNL     1       1.189   8.542  20.334  0.00  0.00    +0.000 A 
ATOM      2  C   UNL     1       1.031   9.654  19.499  0.00  0.00    +0.000 A 
ATOM      3  C   UNL     1       1.578   9.686  18.219  0.00  0.00    +0.000 A 
ATOM      4  C   UNL     1       2.325   8.617  17.740  0.00  0.00    +0.000 A 
ATOM      5  C   UNL     1       2.550   7.499  18.563  0.00  0.00    +0.000 A 
ATOM      6  C   UNL     1       3.270   6.283  18.406  0.00  0.00    +0.000 A 
ATOM      7  C   UNL     1       3.149   5.574  19.579  0.00  0.00    +0.000 A 
ATOM      8  N   UNL     1       2.336   6.279  20.427  0.00  0.00    +0.000 N 
ATOM      9  C   UNL     1       1.978   7.482  19.846  0.00  0.00    +0.000 A 
ATOM     10  C   UNL     1       3.825   4.296  19.903  0.00  0.00    +0.000 C 
ATOM     11  C   UNL     1       4.538   3.711  18.665  0.00  0.00    +0.000 C 
ATOM     12  C   UNL     1       5.188   4.784  17.730  0.00  0.00    +0.000 C 
ATOM     13  C   UNL     1       4.071   5.774  17.251  0.00  0.00    +0.000 C 
ATOM     14  H   UNL     1       2.051   5.998  21.355  0.00  0.00    +0.000 HD
ENDROOT
BRANCH  12  15
ATOM     15  N   UNL     1       5.918   4.155  16.584  0.00  0.00    +0.000 NA
ATOM     16  C   UNL     1       5.332   4.525  15.288  0.00  0.00    +0.000 C 
ATOM     17  C   UNL     1       7.339   4.525  16.563  0.00  0.00    +0.000 C 
ENDBRANCH  12  15
BRANCH   1  19
ATOM     18  C   UNL     1      -0.223   9.569  21.888  0.00  0.00    +0.000 C 
ATOM     19  O   UNL     1       0.613   8.455  21.578  0.00  0.00    +0.000 OA
ENDBRANCH   1  19
TORSDOF 2
ENDMDL
MODEL 2
REMARK VINA RESULT:      -6.6      2.332      5.936
REMARK  Name = 
REMARK  5 active torsions:
REMARK  status: ('A' for Active; 'I' for Inactive)
REMARK    1  A    between atoms: C_1  and  O_2
REMARK    2  A    between atoms: O_2  and  C_3
REMARK    3  A    between atoms: C_14  and  N_15
REMARK    4  A    between atoms: N_15  and  C_16
REMARK    5  A    between atoms: N_15  and  C_17
REMARK                            x       y       z     vdW  Elec       q    Type
REMARK                         _______ _______ _______ _____ _____    ______ ____
ROOT
ATOM      1  C   UNL     1       4.889   4.423  18.502  0.00  0.00    +0.000 A 
ATOM      2  C   UNL     1       5.485   4.389  17.236  0.00  0.00    +0.000 A 
ATOM      3  C   UNL     1       5.289   5.415  16.314  0.00  0.00    +0.000 A 
ATOM      4  C   UNL     1       4.471   6.495  16.618  0.00  0.00    +0.000 A 
ATOM      5  C   UNL     1       3.815   6.545  17.860  0.00  0.00    +0.000 A 
ATOM      6  C   UNL     1       2.910   7.461  18.466  0.00  0.00    +0.000 A 
ATOM      7  C   UNL     1       2.583   6.962  19.706  0.00  0.00    +0.000 A 
ATOM      8  N   UNL     1       3.295   5.810  19.909  0.00  0.00    +0.000 N 
ATOM      9  C   UNL     1       4.035   5.508  18.781  0.00  0.00    +0.000 A 
ATOM     10  C   UNL     1       1.589   7.533  20.645  0.00  0.00    +0.000 C 
ATOM     11  C   UNL     1       1.094   8.914  20.162  0.00  0.00    +0.000 C 
ATOM     12  C   UNL     1       0.941   9.037  18.610  0.00  0.00    +0.000 C 
ATOM     13  C   UNL     1       2.327   8.735  17.945  0.00  0.00    +0.000 C 
ATOM     14  H   UNL     1       3.275   5.231  20.738  0.00  0.00    +0.000 HD
ENDROOT
BRANCH  12  15
ATOM     15  N   UNL     1       0.398  10.372  18.208  0.00  0.00    +0.000 NA
ATOM     16  C   UNL     1      -1.072  10.395  18.219  0.00  0.00    +0.000 C 
ATOM     17  C   UNL     1       0.875  11.451  19.084  0.00  0.00    +0.000 C 
ENDBRANCH  12  15
BRANCH   1  19
ATOM     18  C   UNL     1       4.131   2.417  19.437  0.00  0.00    +0.000 C 
ATOM     19  O   UNL     1       5.109   3.458  19.455  0.00  0.00    +0.000 OA
ENDBRANCH   1  19
TORSDOF 2
ENDMDL
MODEL 3
REMARK VINA RESULT:      -6.6      2.642      4.195
REMARK  Name = 
REMARK  5 active torsions:
REMARK  status: ('A' for Active; 'I' for Inactive)
REMARK    1  A    between atoms: C_1  and  O_2
REMARK    2  A    between atoms: O_2  and  C_3
REMARK    3  A    between atoms: C_14  and  N_15
REMARK    4  A    between atoms: N_15  and  C_16
REMARK    5  A    between atoms: N_15  and  C_17
REMARK                            x       y       z     vdW  Elec       q    Type
REMARK                         _______ _______ _______ _____ _____    ______ ____
ROOT
ATOM      1  C   UNL     1       2.395   4.122  19.939  0.00  0.00    +0.000 A 
ATOM      2  C   UNL     1       1.532   3.050  19.683  0.00  0.00    +0.000 A 
ATOM      3  C   UNL     1       1.729   2.203  18.595  0.00  0.00    +0.000 A 
ATOM      4  C   UNL     1       2.779   2.416  17.710  0.00  0.00    +0.000 A 
ATOM      5  C   UNL     1       3.641   3.510  17.903  0.00  0.00    +0.000 A 
ATOM      6  C   UNL     1       4.763   4.023  17.194  0.00  0.00    +0.000 A 
ATOM      7  C   UNL     1       5.192   5.151  17.857  0.00  0.00    +0.000 A 
ATOM      8  N   UNL     1       4.417   5.316  18.974  0.00  0.00    +0.000 N 
ATOM      9  C   UNL     1       3.433   4.345  19.013  0.00  0.00    +0.000 A 
ATOM     10  C   UNL     1       6.268   6.068  17.415  0.00  0.00    +0.000 C 
ATOM     11  C   UNL     1       7.029   5.493  16.201  0.00  0.00    +0.000 C 
ATOM     12  C   UNL     1       6.129   4.716  15.185  0.00  0.00    +0.000 C 
ATOM     13  C   UNL     1       5.421   3.540  15.942  0.00  0.00    +0.000 C 
ATOM     14  H   UNL     1       4.509   6.048  19.664  0.00  0.00    +0.000 HD
ENDROOT
BRANCH  12  15
ATOM     15  N   UNL     1       6.909   4.239  14.001  0.00  0.00    +0.000 NA
ATOM     16  C   UNL     1       6.040   3.679  12.957  0.00  0.00    +0.000 C 
ATOM     17  C   UNL     1       7.711   5.313  13.397  0.00  0.00    +0.000 C 
ENDBRANCH  12  15
BRANCH   1  19
ATOM     18  C   UNL     1       1.502   6.118  20.770  0.00  0.00    +0.000 C 
ATOM     19  O   UNL     1       2.263   4.940  21.035  0.00  0.00    +0.000 OA
ENDBRANCH   1  19
TORSDOF 2
ENDMDL
MODEL 4
REMARK VINA RESULT:      -6.5      4.336      7.273
REMARK  Name = 
REMARK  5 active torsions:
REMARK  status: ('A' for Active; 'I' for Inactive)
REMARK    1  A    between atoms: C_1  and  O_2
REMARK    2  A    between atoms: O_2  and  C_3
REMARK    3  A    between atoms: C_14  and  N_15
REMARK    4  A    between atoms: N_15  and  C_16
REMARK    5  A    between atoms: N_15  and  C_17
REMARK                            x       y       z     vdW  Elec       q    Type
REMARK                         _______ _______ _______ _____ _____    ______ ____
ROOT
ATOM      1  C   UNL     1       7.572   5.001  13.355  0.00  0.00    +0.000 A 
ATOM      2  C   UNL     1       6.944   4.203  12.392  0.00  0.00    +0.000 A 
ATOM      3  C   UNL     1       5.799   3.468  12.691  0.00  0.00    +0.000 A 
ATOM      4  C   UNL     1       5.259   3.486  13.970  0.00  0.00    +0.000 A 
ATOM      5  C   UNL     1       5.886   4.236  14.981  0.00  0.00    +0.000 A 
ATOM      6  C   UNL     1       5.626   4.447  16.364  0.00  0.00    +0.000 A 
ATOM      7  C   UNL     1       6.611   5.275  16.850  0.00  0.00    +0.000 A 
ATOM      8  N   UNL     1       7.429   5.628  15.811  0.00  0.00    +0.000 N 
ATOM      9  C   UNL     1       7.031   4.980  14.656  0.00  0.00    +0.000 A 
ATOM     10  C   UNL     1       6.798   5.676  18.265  0.00  0.00    +0.000 C 
ATOM     11  C   UNL     1       5.606   5.223  19.136  0.00  0.00    +0.000 C 
ATOM     12  C   UNL     1       5.006   3.835  18.735  0.00  0.00    +0.000 C 
ATOM     13  C   UNL     1       4.544   3.902  17.240  0.00  0.00    +0.000 C 
ATOM     14  H   UNL     1       8.230   6.244  15.861  0.00  0.00    +0.000 HD
ENDROOT
BRANCH  12  15
ATOM     15  N   UNL     1       3.900   3.421  19.654  0.00  0.00    +0.000 NA
ATOM     16  C   UNL     1       2.964   4.522  19.920  0.00  0.00    +0.000 C 
ATOM     17  C   UNL     1       3.129   2.290  19.119  0.00  0.00    +0.000 C 
ENDBRANCH  12  15
BRANCH   1  19
ATOM     18  C   UNL     1       8.562   6.473  11.831  0.00  0.00    +0.000 C 
ATOM     19  O   UNL     1       8.667   5.783  13.077  0.00  0.00    +0.000 OA
ENDBRANCH   1  19
TORSDOF 2
ENDMDL
MODEL 5
REMARK VINA RESULT:      -6.5      1.408      1.820
REMARK  Name = 
REMARK  5 active torsions:
REMARK  status: ('A' for Active; 'I' for Inactive)
REMARK    1  A    between atoms: C_1  and  O_2
REMARK    2  A    between atoms: O_2  and  C_3
REMARK    3  A    between atoms: C_14  and  N_15
REMARK    4  A    between atoms: N_15  and  C_16
REMARK    5  A    between atoms: N_15  and  C_17
REMARK                            x       y       z     vdW  Elec       q    Type
REMARK                         _______ _______ _______ _____ _____    ______ ____
ROOT
ATOM      1  C   UNL     1       1.169   9.590  20.151  0.00  0.00    +0.000 A 
ATOM      2  C   UNL     1       1.371  10.427  19.047  0.00  0.00    +0.000 A 
ATOM      3  C   UNL     1       1.897   9.940  17.854  0.00  0.00    +0.000 A 
ATOM      4  C   UNL     1       2.264   8.606  17.731  0.00  0.00    +0.000 A 
ATOM      5  C   UNL     1       2.123   7.741  18.831  0.00  0.00    +0.000 A 
ATOM      6  C   UNL     1       2.419   6.367  19.054  0.00  0.00    +0.000 A 
ATOM      7  C   UNL     1       2.081   6.077  20.356  0.00  0.00    +0.000 A 
ATOM      8  N   UNL     1       1.537   7.199  20.921  0.00  0.00    +0.000 N 
ATOM      9  C   UNL     1       1.579   8.248  20.022  0.00  0.00    +0.000 A 
ATOM     10  C   UNL     1       2.317   4.791  21.055  0.00  0.00    +0.000 C 
ATOM     11  C   UNL     1       2.804   3.703  20.073  0.00  0.00    +0.000 C 
ATOM     12  C   UNL     1       3.759   4.229  18.952  0.00  0.00    +0.000 C 
ATOM     13  C   UNL     1       3.015   5.344  18.142  0.00  0.00    +0.000 C 
ATOM     14  H   UNL     1       1.179   7.282  21.863  0.00  0.00    +0.000 HD
ENDROOT
BRANCH  12  15
ATOM     15  N   UNL     1       4.249   3.120  18.073  0.00  0.00    +0.000 NA
ATOM     16  C   UNL     1       3.247   2.056  17.919  0.00  0.00    +0.000 C 
ATOM     17  C   UNL     1       4.616   3.597  16.732  0.00  0.00    +0.000 C 
ENDBRANCH  12  15
BRANCH   1  19
ATOM     18  C   UNL     1      -0.577  10.809  21.117  0.00  0.00    +0.000 C 
ATOM     19  O   UNL     1       0.598  10.025  21.323  0.00  0.00    +0.000 OA
ENDBRANCH   1  19
TORSDOF 2
ENDMDL
MODEL 6
REMARK VINA RESULT:      -6.3      2.480      5.921
REMARK  Name = 
REMARK  5 active torsions:
REMARK  status: ('A' for Active; 'I' for Inactive)
REMARK    1  A    between atoms: C_1  and  O_2
REMARK    2  A    between atoms: O_2  and  C_3
REMARK    3  A    between atoms: C_14  and  N_15
REMARK    4  A    between atoms: N_15  and  C_16
REMARK    5  A    between atoms: N_15  and  C_17
REMARK                            x       y       z     vdW  Elec       q    Type
REMARK                         _______ _______ _______ _____ _____    ______ ____
ROOT
ATOM      1  C   UNL     1       2.865   4.288  19.956  0.00  0.00    +0.000 A 
ATOM      2  C   UNL     1       3.388   3.854  18.732  0.00  0.00    +0.000 A 
ATOM      3  C   UNL     1       3.525   4.723  17.653  0.00  0.00    +0.000 A 
ATOM      4  C   UNL     1       3.122   6.048  17.751  0.00  0.00    +0.000 A 
ATOM      5  C   UNL     1       2.547   6.514  18.947  0.00  0.00    +0.000 A 
ATOM      6  C   UNL     1       2.013   7.764  19.368  0.00  0.00    +0.000 A 
ATOM      7  C   UNL     1       1.565   7.610  20.660  0.00  0.00    +0.000 A 
ATOM      8  N   UNL     1       1.856   6.335  21.068  0.00  0.00    +0.000 N 
ATOM      9  C   UNL     1       2.428   5.626  20.029  0.00  0.00    +0.000 A 
ATOM     10  C   UNL     1       0.839   8.623  21.461  0.00  0.00    +0.000 C 
ATOM     11  C   UNL     1       0.823   9.992  20.747  0.00  0.00    +0.000 C 
ATOM     12  C   UNL     1       0.687   9.906  19.192  0.00  0.00    +0.000 C 
ATOM     13  C   UNL     1       1.878   9.057  18.631  0.00  0.00    +0.000 C 
ATOM     14  H   UNL     1       1.662   5.938  21.978  0.00  0.00    +0.000 HD
ENDROOT
BRANCH  12  15
ATOM     15  N   UNL     1       0.612  11.262  18.563  0.00  0.00    +0.000 NA
ATOM     16  C   UNL     1      -0.740  11.834  18.646  0.00  0.00    +0.000 C 
ATOM     17  C   UNL     1       1.545  12.213  19.183  0.00  0.00    +0.000 C 
ENDBRANCH  12  15
BRANCH   1  19
ATOM     18  C   UNL     1       1.506   2.818  21.165  0.00  0.00    +0.000 C 
ATOM     19  O   UNL     1       2.770   3.473  21.058  0.00  0.00    +0.000 OA
ENDBRANCH   1  19
TORSDOF 2
ENDMDL
MODEL 7
REMARK VINA RESULT:      -6.2      3.706      4.286
REMARK  Name = 
REMARK  5 active torsions:
REMARK  status: ('A' for Active; 'I' for Inactive)
REMARK    1  A    between atoms: C_1  and  O_2
REMARK    2  A    between atoms: O_2  and  C_3
REMARK    3  A    between atoms: C_14  and  N_15
REMARK    4  A    between atoms: N_15  and  C_16
REMARK    5  A    between atoms: N_15  and  C_17
REMARK                            x       y       z     vdW  Elec       q    Type
REMARK                         _______ _______ _______ _____ _____    ______ ____
ROOT
ATOM      1  C   UNL     1       2.615   3.884  19.970  0.00  0.00    +0.000 A 
ATOM      2  C   UNL     1       1.314   3.709  19.482  0.00  0.00    +0.000 A 
ATOM      3  C   UNL     1       1.053   3.643  18.116  0.00  0.00    +0.000 A 
ATOM      4  C   UNL     1       2.079   3.775  17.190  0.00  0.00    +0.000 A 
ATOM      5  C   UNL     1       3.394   4.000  17.635  0.00  0.00    +0.000 A 
ATOM      6  C   UNL     1       4.640   4.205  16.979  0.00  0.00    +0.000 A 
ATOM      7  C   UNL     1       5.594   4.399  17.951  0.00  0.00    +0.000 A 
ATOM      8  N   UNL     1       4.996   4.263  19.176  0.00  0.00    +0.000 N 
ATOM      9  C   UNL     1       3.639   4.051  19.017  0.00  0.00    +0.000 A 
ATOM     10  C   UNL     1       7.015   4.753  17.724  0.00  0.00    +0.000 C 
ATOM     11  C   UNL     1       7.379   4.671  16.226  0.00  0.00    +0.000 C 
ATOM     12  C   UNL     1       6.240   5.137  15.260  0.00  0.00    +0.000 C 
ATOM     13  C   UNL     1       4.971   4.256  15.522  0.00  0.00    +0.000 C 
ATOM     14  H   UNL     1       5.451   4.333  20.076  0.00  0.00    +0.000 HD
ENDROOT
BRANCH  12  15
ATOM     15  N   UNL     1       6.673   5.096  13.828  0.00  0.00    +0.000 NA
ATOM     16  C   UNL     1       8.109   5.373  13.679  0.00  0.00    +0.000 C 
ATOM     17  C   UNL     1       6.394   3.797  13.201  0.00  0.00    +0.000 C 
ENDBRANCH  12  15
BRANCH   1  19
ATOM     18  C   UNL     1       2.090   3.015  22.076  0.00  0.00    +0.000 C 
ATOM     19  O   UNL     1       2.914   3.894  21.310  0.00  0.00    +0.000 OA
ENDBRANCH   1  19
TORSDOF 2
ENDMDL
MODEL 8
REMARK VINA RESULT:      -6.2      2.235      3.544
REMARK  Name = 
REMARK  5 active torsions:
REMARK  status: ('A' for Active; 'I' for Inactive)
REMARK    1  A    between atoms: C_1  and  O_2
REMARK    2  A    between atoms: O_2  and  C_3
REMARK    3  A    between atoms: C_14  and  N_15
REMARK    4  A    between atoms: N_15  and  C_16
REMARK    5  A    between atoms: N_15  and  C_17
REMARK                            x       y       z     vdW  Elec       q    Type
REMARK                         _______ _______ _______ _____ _____    ______ ____
ROOT
ATOM      1  C   UNL     1       1.392   9.887  19.030  0.00  0.00    +0.000 A 
ATOM      2  C   UNL     1       0.658  10.249  20.166  0.00  0.00    +0.000 A 
ATOM      3  C   UNL     1       0.495   9.372  21.235  0.00  0.00    +0.000 A 
ATOM      4  C   UNL     1       1.039   8.094  21.194  0.00  0.00    +0.000 A 
ATOM      5  C   UNL     1       1.743   7.673  20.052  0.00  0.00    +0.000 A 
ATOM      6  C   UNL     1       2.383   6.459  19.675  0.00  0.00    +0.000 A 
ATOM      7  C   UNL     1       2.890   6.634  18.408  0.00  0.00    +0.000 A 
ATOM      8  N   UNL     1       2.640   7.922  18.017  0.00  0.00    +0.000 N 
ATOM      9  C   UNL     1       1.907   8.577  18.990  0.00  0.00    +0.000 A 
ATOM     10  C   UNL     1       3.546   5.596  17.578  0.00  0.00    +0.000 C 
ATOM     11  C   UNL     1       3.799   4.308  18.390  0.00  0.00    +0.000 C 
ATOM     12  C   UNL     1       2.673   3.963  19.419  0.00  0.00    +0.000 C 
ATOM     13  C   UNL     1       2.515   5.165  20.412  0.00  0.00    +0.000 C 
ATOM     14  H   UNL     1       2.911   8.346  17.140  0.00  0.00    +0.000 HD
ENDROOT
BRANCH  12  15
ATOM     15  N   UNL     1       2.943   2.673  20.128  0.00  0.00    +0.000 NA
ATOM     16  C   UNL     1       4.376   2.348  20.153  0.00  0.00    +0.000 C 
ATOM     17  C   UNL     1       2.456   2.690  21.514  0.00  0.00    +0.000 C 
ENDBRANCH  12  15
BRANCH   1  19
ATOM     18  C   UNL     1       2.281  11.951  18.383  0.00  0.00    +0.000 C 
ATOM     19  O   UNL     1       1.622  10.749  17.985  0.00  0.00    +0.000 OA
ENDBRANCH   1  19
TORSDOF 2
ENDMDL
MODEL 9
REMARK VINA RESULT:      -6.2      2.301      4.361
REMARK  Name = 
REMARK  5 active torsions:
REMARK  status: ('A' for Active; 'I' for Inactive)
REMARK    1  A    between atoms: C_1  and  O_2
REMARK    2  A    between atoms: O_2  and  C_3
REMARK    3  A    between atoms: C_14  and  N_15
REMARK    4  A    between atoms: N_15  and  C_16
REMARK    5  A    between atoms: N_15  and  C_17
REMARK                            x       y       z     vdW  Elec       q    Type
REMARK                         _______ _______ _______ _____ _____    ______ ____
ROOT
ATOM      1  C   UNL     1      -0.595  11.440  21.090  0.00  0.00    +0.000 A 
ATOM      2  C   UNL     1      -1.021  11.205  22.403  0.00  0.00    +0.000 A 
ATOM      3  C   UNL     1      -0.627  10.067  23.101  0.00  0.00    +0.000 A 
ATOM      4  C   UNL     1       0.185   9.112  22.503  0.00  0.00    +0.000 A 
ATOM      5  C   UNL     1       0.598   9.285  21.170  0.00  0.00    +0.000 A 
ATOM      6  C   UNL     1       1.382   8.513  20.268  0.00  0.00    +0.000 A 
ATOM      7  C   UNL     1       1.425   9.191  19.071  0.00  0.00    +0.000 A 
ATOM      8  N   UNL     1       0.749  10.372  19.220  0.00  0.00    +0.000 N 
ATOM      9  C   UNL     1       0.200  10.446  20.487  0.00  0.00    +0.000 A 
ATOM     10  C   UNL     1       2.042   8.707  17.814  0.00  0.00    +0.000 C 
ATOM     11  C   UNL     1       2.847   7.410  18.050  0.00  0.00    +0.000 C 
ATOM     12  C   UNL     1       2.207   6.436  19.093  0.00  0.00    +0.000 C 
ATOM     13  C   UNL     1       2.054   7.191  20.456  0.00  0.00    +0.000 C 
ATOM     14  H   UNL     1       0.628  11.086  18.514  0.00  0.00    +0.000 HD
ENDROOT
BRANCH  12  15
ATOM     15  N   UNL     1       2.997   5.171  19.230  0.00  0.00    +0.000 NA
ATOM     16  C   UNL     1       4.439   5.431  19.337  0.00  0.00    +0.000 C 
ATOM     17  C   UNL     1       2.588   4.388  20.404  0.00  0.00    +0.000 C 
ENDBRANCH  12  15
BRANCH   1  19
ATOM     18  C   UNL     1      -2.212  12.527  19.797  0.00  0.00    +0.000 C 
ATOM     19  O   UNL     1      -0.917  12.580  20.394  0.00  0.00    +0.000 OA
ENDBRANCH   1  19
TORSDOF 2
ENDMDL
