MODEL 1
REMARK VINA RESULT:      -5.7      0.000      0.000
REMARK  Name = 
REMARK  9 active torsions:
REMARK  status: ('A' for Active; 'I' for Inactive)
REMARK    1  A    between atoms: C_1  and  N_2
REMARK    2  A    between atoms: N_2  and  C_3
REMARK    3  A    between atoms: N_2  and  C_4
REMARK    4  A    between atoms: C_4  and  C_5
REMARK    5  A    between atoms: C_5  and  C_6
REMARK    6  A    between atoms: C_6  and  O_7
REMARK    7  A    between atoms: O_7  and  C_8
REMARK    8  A    between atoms: C_8  and  C_10
REMARK    9  A    between atoms: C_10  and  C_11
REMARK                            x       y       z     vdW  Elec       q    Type
REMARK                         _______ _______ _______ _____ _____    ______ ____
ROOT
ATOM      1  C   UNL     1       6.676   5.086  17.305  0.00  0.00    +0.000 C 
ATOM      2  O   UNL     1       7.067   4.534  18.324  0.00  0.00    +0.000 OA
ENDROOT
BRANCH   1   3
ATOM      3  O   UNL     1       7.329   4.921  16.124  0.00  0.00    +0.000 OA
BRANCH   3   4
ATOM      4  C   UNL     1       6.752   5.049  14.876  0.00  0.00    +0.000 C 
BRANCH   4   5
ATOM      5  C   UNL     1       6.235   3.703  14.361  0.00  0.00    +0.000 C 
BRANCH   5   6
ATOM      6  C   UNL     1       6.361   3.624  12.823  0.00  0.00    +0.000 C 
BRANCH   6   8
ATOM      7  C   UNL     1       4.356   3.472  11.420  0.00  0.00    +0.000 C 
ATOM      8  N   UNL     1       5.353   2.734  12.213  0.00  0.00    +0.000 NA
ATOM      9  C   UNL     1       6.008   1.723  11.369  0.00  0.00    +0.000 C 
ENDBRANCH   6   8
ENDBRANCH   5   6
ENDBRANCH   4   5
ENDBRANCH   3   4
ENDBRANCH   1   3
BRANCH   1  10
ATOM     10  C   UNL     1       5.436   5.929  17.344  0.00  0.00    +0.000 C 
BRANCH  10  11
ATOM     11  C   UNL     1       4.248   5.132  17.805  0.00  0.00    +0.000 A 
ATOM     12  C   UNL     1       3.448   5.562  18.874  0.00  0.00    +0.000 A 
ATOM     13  C   UNL     1       2.326   4.814  19.256  0.00  0.00    +0.000 A 
ATOM     14  C   UNL     1       1.998   3.638  18.572  0.00  0.00    +0.000 A 
ATOM     15 CL   UNL     1       0.587   2.709  19.042  0.00  0.00    +0.000 Cl
ATOM     16  C   UNL     1       2.796   3.204  17.509  0.00  0.00    +0.000 A 
ATOM     17  C   UNL     1       3.913   3.945  17.126  0.00  0.00    +0.000 A 
ENDBRANCH  10  11
ENDBRANCH   1  10
TORSDOF 7
ENDMDL
MODEL 2
REMARK VINA RESULT:      -5.6      3.690      6.141
REMARK  Name = 
REMARK  9 active torsions:
REMARK  status: ('A' for Active; 'I' for Inactive)
REMARK    1  A    between atoms: C_1  and  N_2
REMARK    2  A    between atoms: N_2  and  C_3
REMARK    3  A    between atoms: N_2  and  C_4
REMARK    4  A    between atoms: C_4  and  C_5
REMARK    5  A    between atoms: C_5  and  C_6
REMARK    6  A    between atoms: C_6  and  O_7
REMARK    7  A    between atoms: O_7  and  C_8
REMARK    8  A    between atoms: C_8  and  C_10
REMARK    9  A    between atoms: C_10  and  C_11
REMARK                            x       y       z     vdW  Elec       q    Type
REMARK                         _______ _______ _______ _____ _____    ______ ____
ROOT
ATOM      1  C   UNL     1       4.935   5.036  19.347  0.00  0.00    +0.000 C 
ATOM      2  O   UNL     1       5.294   3.894  19.600  0.00  0.00    +0.000 OA
ENDROOT
BRANCH   1   3
ATOM      3  O   UNL     1       3.748   5.514  19.805  0.00  0.00    +0.000 OA
BRANCH   3   4
ATOM      4  C   UNL     1       2.664   5.832  19.011  0.00  0.00    +0.000 C 
BRANCH   4   5
ATOM      5  C   UNL     1       1.854   4.584  18.649  0.00  0.00    +0.000 C 
BRANCH   5   6
ATOM      6  C   UNL     1       1.133   4.023  19.895  0.00  0.00    +0.000 C 
BRANCH   6   8
ATOM      7  C   UNL     1       2.330   2.011  19.167  0.00  0.00    +0.000 C 
ATOM      8  N   UNL     1       1.590   2.667  20.258  0.00  0.00    +0.000 NA
ATOM      9  C   UNL     1       2.429   2.716  21.465  0.00  0.00    +0.000 C 
ENDBRANCH   6   8
ENDBRANCH   5   6
ENDBRANCH   4   5
ENDBRANCH   3   4
ENDBRANCH   1   3
BRANCH   1  10
ATOM     10  C   UNL     1       5.831   5.938  18.552  0.00  0.00    +0.000 C 
BRANCH  10  11
ATOM     11  C   UNL     1       5.967   5.461  17.133  0.00  0.00    +0.000 A 
ATOM     12  C   UNL     1       5.101   5.908  16.124  0.00  0.00    +0.000 A 
ATOM     13  C   UNL     1       5.276   5.472  14.805  0.00  0.00    +0.000 A 
ATOM     14  C   UNL     1       6.316   4.591  14.486  0.00  0.00    +0.000 A 
ATOM     15 CL   UNL     1       6.543   4.055  12.832  0.00  0.00    +0.000 Cl
ATOM     16  C   UNL     1       7.178   4.140  15.491  0.00  0.00    +0.000 A 
ATOM     17  C   UNL     1       7.007   4.571  16.805  0.00  0.00    +0.000 A 
ENDBRANCH  10  11
ENDBRANCH   1  10
TORSDOF 7
ENDMDL
MODEL 3
REMARK VINA RESULT:      -5.6      3.858      6.126
REMARK  Name = 
REMARK  9 active torsions:
REMARK  status: ('A' for Active; 'I' for Inactive)
REMARK    1  A    between atoms: C_1  and  N_2
REMARK    2  A    between atoms: N_2  and  C_3
REMARK    3  A    between atoms: N_2  and  C_4
REMARK    4  A    between atoms: C_4  and  C_5
REMARK    5  A    between atoms: C_5  and  C_6
REMARK    6  A    between atoms: C_6  and  O_7
REMARK    7  A    between atoms: O_7  and  C_8
REMARK    8  A    between atoms: C_8  and  C_10
REMARK    9  A    between atoms: C_10  and  C_11
REMARK                            x       y       z     vdW  Elec       q    Type
REMARK                         _______ _______ _______ _____ _____    ______ ____
ROOT
ATOM      1  C   UNL     1       2.731   6.205  18.442  0.00  0.00    +0.000 C 
ATOM      2  O   UNL     1       2.377   7.314  18.064  0.00  0.00    +0.000 OA
ENDROOT
BRANCH   1   3
ATOM      3  O   UNL     1       1.821   5.231  18.706  0.00  0.00    +0.000 OA
BRANCH   3   4
ATOM      4  C   UNL     1       1.520   4.180  17.863  0.00  0.00    +0.000 C 
BRANCH   4   5
ATOM      5  C   UNL     1       1.102   2.935  18.651  0.00  0.00    +0.000 C 
BRANCH   5   6
ATOM      6  C   UNL     1       2.341   2.111  19.065  0.00  0.00    +0.000 C 
BRANCH   6   8
ATOM      7  C   UNL     1       2.442   2.722  21.438  0.00  0.00    +0.000 C 
ATOM      8  N   UNL     1       3.126   2.759  20.135  0.00  0.00    +0.000 NA
ATOM      9  C   UNL     1       4.449   2.128  20.251  0.00  0.00    +0.000 C 
ENDBRANCH   6   8
ENDBRANCH   5   6
ENDBRANCH   4   5
ENDBRANCH   3   4
ENDBRANCH   1   3
BRANCH   1  10
ATOM     10  C   UNL     1       4.193   5.899  18.583  0.00  0.00    +0.000 C 
BRANCH  10  11
ATOM     11  C   UNL     1       4.768   5.375  17.296  0.00  0.00    +0.000 A 
ATOM     12  C   UNL     1       5.018   4.007  17.110  0.00  0.00    +0.000 A 
ATOM     13  C   UNL     1       5.520   3.546  15.887  0.00  0.00    +0.000 A 
ATOM     14  C   UNL     1       5.773   4.446  14.845  0.00  0.00    +0.000 A 
ATOM     15 CL   UNL     1       6.390   3.867  13.309  0.00  0.00    +0.000 Cl
ATOM     16  C   UNL     1       5.529   5.811  15.029  0.00  0.00    +0.000 A 
ATOM     17  C   UNL     1       5.029   6.274  16.245  0.00  0.00    +0.000 A 
ENDBRANCH  10  11
ENDBRANCH   1  10
TORSDOF 7
ENDMDL
MODEL 4
REMARK VINA RESULT:      -5.5      3.535      6.243
REMARK  Name = 
REMARK  9 active torsions:
REMARK  status: ('A' for Active; 'I' for Inactive)
REMARK    1  A    between atoms: C_1  and  N_2
REMARK    2  A    between atoms: N_2  and  C_3
REMARK    3  A    between atoms: N_2  and  C_4
REMARK    4  A    between atoms: C_4  and  C_5
REMARK    5  A    between atoms: C_5  and  C_6
REMARK    6  A    between atoms: C_6  and  O_7
REMARK    7  A    between atoms: O_7  and  C_8
REMARK    8  A    between atoms: C_8  and  C_10
REMARK    9  A    between atoms: C_10  and  C_11
REMARK                            x       y       z     vdW  Elec       q    Type
REMARK                         _______ _______ _______ _____ _____    ______ ____
ROOT
ATOM      1  C   UNL     1       5.288   5.012  19.161  0.00  0.00    +0.000 C 
ATOM      2  O   UNL     1       5.814   3.914  19.281  0.00  0.00    +0.000 OA
ENDROOT
BRANCH   1   3
ATOM      3  O   UNL     1       4.219   5.364  19.923  0.00  0.00    +0.000 OA
BRANCH   3   4
ATOM      4  C   UNL     1       2.963   5.661  19.433  0.00  0.00    +0.000 C 
BRANCH   4   5
ATOM      5  C   UNL     1       1.865   5.176  20.384  0.00  0.00    +0.000 C 
BRANCH   5   6
ATOM      6  C   UNL     1       1.089   3.994  19.762  0.00  0.00    +0.000 C 
BRANCH   6   8
ATOM      7  C   UNL     1       2.614   2.114  19.371  0.00  0.00    +0.000 C 
ATOM      8  N   UNL     1       1.569   2.681  20.239  0.00  0.00    +0.000 NA
ATOM      9  C   UNL     1       2.073   2.791  21.616  0.00  0.00    +0.000 C 
ENDBRANCH   6   8
ENDBRANCH   5   6
ENDBRANCH   4   5
ENDBRANCH   3   4
ENDBRANCH   1   3
BRANCH   1  10
ATOM     10  C   UNL     1       5.851   6.004  18.186  0.00  0.00    +0.000 C 
BRANCH  10  11
ATOM     11  C   UNL     1       5.949   5.417  16.806  0.00  0.00    +0.000 A 
ATOM     12  C   UNL     1       7.150   5.449  16.081  0.00  0.00    +0.000 A 
ATOM     13  C   UNL     1       7.219   4.862  14.811  0.00  0.00    +0.000 A 
ATOM     14  C   UNL     1       6.092   4.240  14.261  0.00  0.00    +0.000 A 
ATOM     15 CL   UNL     1       6.181   3.494  12.676  0.00  0.00    +0.000 Cl
ATOM     16  C   UNL     1       4.892   4.211  14.979  0.00  0.00    +0.000 A 
ATOM     17  C   UNL     1       4.820   4.794  16.243  0.00  0.00    +0.000 A 
ENDBRANCH  10  11
ENDBRANCH   1  10
TORSDOF 7
ENDMDL
MODEL 5
REMARK VINA RESULT:      -5.5      0.960      1.327
REMARK  Name = 
REMARK  9 active torsions:
REMARK  status: ('A' for Active; 'I' for Inactive)
REMARK    1  A    between atoms: C_1  and  N_2
REMARK    2  A    between atoms: N_2  and  C_3
REMARK    3  A    between atoms: N_2  and  C_4
REMARK    4  A    between atoms: C_4  and  C_5
REMARK    5  A    between atoms: C_5  and  C_6
REMARK    6  A    between atoms: C_6  and  O_7
REMARK    7  A    between atoms: O_7  and  C_8
REMARK    8  A    between atoms: C_8  and  C_10
REMARK    9  A    between atoms: C_10  and  C_11
REMARK                            x       y       z     vdW  Elec       q    Type
REMARK                         _______ _______ _______ _____ _____    ______ ____
ROOT
ATOM      1  C   UNL     1       6.746   4.941  17.433  0.00  0.00    +0.000 C 
ATOM      2  O   UNL     1       7.768   4.410  17.845  0.00  0.00    +0.000 OA
ENDROOT
BRANCH   1   3
ATOM      3  O   UNL     1       6.436   4.930  16.109  0.00  0.00    +0.000 OA
BRANCH   3   4
ATOM      4  C   UNL     1       6.231   3.792  15.355  0.00  0.00    +0.000 C 
BRANCH   4   5
ATOM      5  C   UNL     1       5.599   4.127  14.001  0.00  0.00    +0.000 C 
BRANCH   5   6
ATOM      6  C   UNL     1       6.522   3.683  12.844  0.00  0.00    +0.000 C 
BRANCH   6   8
ATOM      7  C   UNL     1       6.006   1.691  11.511  0.00  0.00    +0.000 C 
ATOM      8  N   UNL     1       5.774   3.133  11.696  0.00  0.00    +0.000 NA
ATOM      9  C   UNL     1       4.334   3.387  11.854  0.00  0.00    +0.000 C 
ENDBRANCH   6   8
ENDBRANCH   5   6
ENDBRANCH   4   5
ENDBRANCH   3   4
ENDBRANCH   1   3
BRANCH   1  10
ATOM     10  C   UNL     1       5.798   5.583  18.401  0.00  0.00    +0.000 C 
BRANCH  10  11
ATOM     11  C   UNL     1       4.505   4.821  18.488  0.00  0.00    +0.000 A 
ATOM     12  C   UNL     1       3.333   5.296  17.881  0.00  0.00    +0.000 A 
ATOM     13  C   UNL     1       2.153   4.545  17.949  0.00  0.00    +0.000 A 
ATOM     14  C   UNL     1       2.138   3.317  18.620  0.00  0.00    +0.000 A 
ATOM     15 CL   UNL     1       0.664   2.370  18.694  0.00  0.00    +0.000 Cl
ATOM     16  C   UNL     1       3.304   2.842  19.230  0.00  0.00    +0.000 A 
ATOM     17  C   UNL     1       4.480   3.587  19.165  0.00  0.00    +0.000 A 
ENDBRANCH  10  11
ENDBRANCH   1  10
TORSDOF 7
ENDMDL
MODEL 6
REMARK VINA RESULT:      -5.5      3.233      4.463
REMARK  Name = 
REMARK  9 active torsions:
REMARK  status: ('A' for Active; 'I' for Inactive)
REMARK    1  A    between atoms: C_1  and  N_2
REMARK    2  A    between atoms: N_2  and  C_3
REMARK    3  A    between atoms: N_2  and  C_4
REMARK    4  A    between atoms: C_4  and  C_5
REMARK    5  A    between atoms: C_5  and  C_6
REMARK    6  A    between atoms: C_6  and  O_7
REMARK    7  A    between atoms: O_7  and  C_8
REMARK    8  A    between atoms: C_8  and  C_10
REMARK    9  A    between atoms: C_10  and  C_11
REMARK                            x       y       z     vdW  Elec       q    Type
REMARK                         _______ _______ _______ _____ _____    ______ ____
ROOT
ATOM      1  C   UNL     1       3.479   2.709  17.834  0.00  0.00    +0.000 C 
ATOM      2  O   UNL     1       3.482   1.570  18.281  0.00  0.00    +0.000 OA
ENDROOT
BRANCH   1   3
ATOM      3  O   UNL     1       4.636   3.319  17.466  0.00  0.00    +0.000 OA
BRANCH   3   4
ATOM      4  C   UNL     1       4.946   3.722  16.182  0.00  0.00    +0.000 C 
BRANCH   4   5
ATOM      5  C   UNL     1       5.364   5.194  16.145  0.00  0.00    +0.000 C 
BRANCH   5   6
ATOM      6  C   UNL     1       6.876   5.323  15.855  0.00  0.00    +0.000 C 
BRANCH   6   8
ATOM      7  C   UNL     1       7.075   7.224  17.392  0.00  0.00    +0.000 C 
ATOM      8  N   UNL     1       7.624   5.922  16.979  0.00  0.00    +0.000 NA
ATOM      9  C   UNL     1       7.642   5.004  18.128  0.00  0.00    +0.000 C 
ENDBRANCH   6   8
ENDBRANCH   5   6
ENDBRANCH   4   5
ENDBRANCH   3   4
ENDBRANCH   1   3
BRANCH   1  10
ATOM     10  C   UNL     1       2.178   3.433  17.650  0.00  0.00    +0.000 C 
BRANCH  10  11
ATOM     11  C   UNL     1       2.088   4.631  18.554  0.00  0.00    +0.000 A 
ATOM     12  C   UNL     1       2.410   5.918  18.097  0.00  0.00    +0.000 A 
ATOM     13  C   UNL     1       2.282   7.019  18.953  0.00  0.00    +0.000 A 
ATOM     14  C   UNL     1       1.828   6.841  20.266  0.00  0.00    +0.000 A 
ATOM     15 CL   UNL     1       1.655   8.220  21.334  0.00  0.00    +0.000 Cl
ATOM     16  C   UNL     1       1.511   5.558  20.725  0.00  0.00    +0.000 A 
ATOM     17  C   UNL     1       1.638   4.460  19.876  0.00  0.00    +0.000 A 
ENDBRANCH  10  11
ENDBRANCH   1  10
TORSDOF 7
ENDMDL
MODEL 7
REMARK VINA RESULT:      -5.5      4.973      6.753
REMARK  Name = 
REMARK  9 active torsions:
REMARK  status: ('A' for Active; 'I' for Inactive)
REMARK    1  A    between atoms: C_1  and  N_2
REMARK    2  A    between atoms: N_2  and  C_3
REMARK    3  A    between atoms: N_2  and  C_4
REMARK    4  A    between atoms: C_4  and  C_5
REMARK    5  A    between atoms: C_5  and  C_6
REMARK    6  A    between atoms: C_6  and  O_7
REMARK    7  A    between atoms: O_7  and  C_8
REMARK    8  A    between atoms: C_8  and  C_10
REMARK    9  A    between atoms: C_10  and  C_11
REMARK                            x       y       z     vdW  Elec       q    Type
REMARK                         _______ _______ _______ _____ _____    ______ ____
ROOT
ATOM      1  C   UNL     1       7.108   6.989  17.286  0.00  0.00    +0.000 C 
ATOM      2  O   UNL     1       7.583   6.268  16.419  0.00  0.00    +0.000 OA
ENDROOT
BRANCH   1   3
ATOM      3  O   UNL     1       7.901   7.807  18.028  0.00  0.00    +0.000 OA
BRANCH   3   4
ATOM      4  C   UNL     1       8.060   9.161  17.814  0.00  0.00    +0.000 C 
BRANCH   4   5
ATOM      5  C   UNL     1       8.984   9.787  18.863  0.00  0.00    +0.000 C 
BRANCH   5   6
ATOM      6  C   UNL     1       9.635  11.076  18.315  0.00  0.00    +0.000 C 
BRANCH   6   8
ATOM      7  C   UNL     1       8.984  13.244  19.259  0.00  0.00    +0.000 C 
ATOM      8  N   UNL     1       9.882  12.082  19.367  0.00  0.00    +0.000 NA
ATOM      9  C   UNL     1       9.747  11.473  20.699  0.00  0.00    +0.000 C 
ENDBRANCH   6   8
ENDBRANCH   5   6
ENDBRANCH   4   5
ENDBRANCH   3   4
ENDBRANCH   1   3
BRANCH   1  10
ATOM     10  C   UNL     1       5.625   7.003  17.513  0.00  0.00    +0.000 C 
BRANCH  10  11
ATOM     11  C   UNL     1       5.101   5.621  17.782  0.00  0.00    +0.000 A 
ATOM     12  C   UNL     1       5.310   4.986  19.016  0.00  0.00    +0.000 A 
ATOM     13  C   UNL     1       4.777   3.712  19.248  0.00  0.00    +0.000 A 
ATOM     14  C   UNL     1       4.033   3.067  18.253  0.00  0.00    +0.000 A 
ATOM     15 CL   UNL     1       3.356   1.477  18.549  0.00  0.00    +0.000 Cl
ATOM     16  C   UNL     1       3.827   3.695  17.021  0.00  0.00    +0.000 A 
ATOM     17  C   UNL     1       4.355   4.964  16.786  0.00  0.00    +0.000 A 
ENDBRANCH  10  11
ENDBRANCH   1  10
TORSDOF 7
ENDMDL
MODEL 8
REMARK VINA RESULT:      -5.5      5.340      7.144
REMARK  Name = 
REMARK  9 active torsions:
REMARK  status: ('A' for Active; 'I' for Inactive)
REMARK    1  A    between atoms: C_1  and  N_2
REMARK    2  A    between atoms: N_2  and  C_3
REMARK    3  A    between atoms: N_2  and  C_4
REMARK    4  A    between atoms: C_4  and  C_5
REMARK    5  A    between atoms: C_5  and  C_6
REMARK    6  A    between atoms: C_6  and  O_7
REMARK    7  A    between atoms: O_7  and  C_8
REMARK    8  A    between atoms: C_8  and  C_10
REMARK    9  A    between atoms: C_10  and  C_11
REMARK                            x       y       z     vdW  Elec       q    Type
REMARK                         _______ _______ _______ _____ _____    ______ ____
ROOT
ATOM      1  C   UNL     1       7.623   7.149  17.730  0.00  0.00    +0.000 C 
ATOM      2  O   UNL     1       7.024   7.501  16.723  0.00  0.00    +0.000 OA
ENDROOT
BRANCH   1   3
ATOM      3  O   UNL     1       8.370   8.032  18.444  0.00  0.00    +0.000 OA
BRANCH   3   4
ATOM      4  C   UNL     1       8.460   9.384  18.183  0.00  0.00    +0.000 C 
BRANCH   4   5
ATOM      5  C   UNL     1       9.225  10.116  19.290  0.00  0.00    +0.000 C 
BRANCH   5   6
ATOM      6  C   UNL     1      10.177  11.173  18.686  0.00  0.00    +0.000 C 
BRANCH   6   8
ATOM      7  C   UNL     1      11.548  13.129  19.241  0.00  0.00    +0.000 C 
ATOM      8  N   UNL     1      11.009  11.840  19.707  0.00  0.00    +0.000 NA
ATOM      9  C   UNL     1      10.239  12.043  20.943  0.00  0.00    +0.000 C 
ENDBRANCH   6   8
ENDBRANCH   5   6
ENDBRANCH   4   5
ENDBRANCH   3   4
ENDBRANCH   1   3
BRANCH   1  10
ATOM     10  C   UNL     1       7.507   5.732  18.208  0.00  0.00    +0.000 C 
BRANCH  10  11
ATOM     11  C   UNL     1       6.089   5.241  18.120  0.00  0.00    +0.000 A 
ATOM     12  C   UNL     1       5.144   5.552  19.110  0.00  0.00    +0.000 A 
ATOM     13  C   UNL     1       3.822   5.109  18.982  0.00  0.00    +0.000 A 
ATOM     14  C   UNL     1       3.436   4.358  17.866  0.00  0.00    +0.000 A 
ATOM     15 CL   UNL     1       1.777   3.814  17.699  0.00  0.00    +0.000 Cl
ATOM     16  C   UNL     1       4.376   4.042  16.880  0.00  0.00    +0.000 A 
ATOM     17  C   UNL     1       5.693   4.481  17.004  0.00  0.00    +0.000 A 
ENDBRANCH  10  11
ENDBRANCH   1  10
TORSDOF 7
ENDMDL
MODEL 9
REMARK VINA RESULT:      -5.4      4.019      5.926
REMARK  Name = 
REMARK  9 active torsions:
REMARK  status: ('A' for Active; 'I' for Inactive)
REMARK    1  A    between atoms: C_1  and  N_2
REMARK    2  A    between atoms: N_2  and  C_3
REMARK    3  A    between atoms: N_2  and  C_4
REMARK    4  A    between atoms: C_4  and  C_5
REMARK    5  A    between atoms: C_5  and  C_6
REMARK    6  A    between atoms: C_6  and  O_7
REMARK    7  A    between atoms: O_7  and  C_8
REMARK    8  A    between atoms: C_8  and  C_10
REMARK    9  A    between atoms: C_10  and  C_11
REMARK                            x       y       z     vdW  Elec       q    Type
REMARK                         _______ _______ _______ _____ _____    ______ ____
ROOT
ATOM      1  C   UNL     1       5.612   6.702  16.329  0.00  0.00    +0.000 C 
ATOM      2  O   UNL     1       5.295   6.618  15.150  0.00  0.00    +0.000 OA
ENDROOT
BRANCH   1   3
ATOM      3  O   UNL     1       6.913   6.619  16.711  0.00  0.00    +0.000 OA
BRANCH   3   4
ATOM      4  C   UNL     1       7.435   7.168  17.866  0.00  0.00    +0.000 C 
BRANCH   4   5
ATOM      5  C   UNL     1       7.877   8.617  17.644  0.00  0.00    +0.000 C 
BRANCH   5   6
ATOM      6  C   UNL     1       8.886   9.051  18.730  0.00  0.00    +0.000 C 
BRANCH   6   8
ATOM      7  C   UNL     1       9.317  10.901  20.280  0.00  0.00    +0.000 C 
ATOM      8  N   UNL     1       8.937  10.515  18.911  0.00  0.00    +0.000 NA
ATOM      9  C   UNL     1       9.872  11.117  17.949  0.00  0.00    +0.000 C 
ENDBRANCH   6   8
ENDBRANCH   5   6
ENDBRANCH   4   5
ENDBRANCH   3   4
ENDBRANCH   1   3
BRANCH   1  10
ATOM     10  C   UNL     1       4.556   6.938  17.368  0.00  0.00    +0.000 C 
BRANCH  10  11
ATOM     11  C   UNL     1       3.774   5.685  17.647  0.00  0.00    +0.000 A 
ATOM     12  C   UNL     1       4.256   4.423  17.269  0.00  0.00    +0.000 A 
ATOM     13  C   UNL     1       3.521   3.271  17.574  0.00  0.00    +0.000 A 
ATOM     14  C   UNL     1       2.305   3.373  18.259  0.00  0.00    +0.000 A 
ATOM     15 CL   UNL     1       1.390   1.930  18.653  0.00  0.00    +0.000 Cl
ATOM     16  C   UNL     1       1.819   4.630  18.633  0.00  0.00    +0.000 A 
ATOM     17  C   UNL     1       2.548   5.779  18.331  0.00  0.00    +0.000 A 
ENDBRANCH  10  11
ENDBRANCH   1  10
TORSDOF 7
ENDMDL
