MODEL 1
REMARK VINA RESULT:      -7.5      0.000      0.000
REMARK  Name = 
REMARK  9 active torsions:
REMARK  status: ('A' for Active; 'I' for Inactive)
REMARK    1  A    between atoms: C_1  and  C_2
REMARK    2  A    between atoms: C_2  and  C_3
REMARK    3  A    between atoms: C_6  and  C_7
REMARK    4  A    between atoms: C_8  and  N_9
REMARK    5  A    between atoms: C_10  and  C_12
REMARK    6  A    between atoms: N_14  and  C_15
REMARK    7  A    between atoms: C_15  and  C_16
REMARK    8  A    between atoms: C_15  and  C_17
REMARK    9  A    between atoms: C_15  and  C_18
REMARK                            x       y       z     vdW  Elec       q    Type
REMARK                         _______ _______ _______ _____ _____    ______ ____
ROOT
ATOM      1  N   UNL     1       4.710   4.447  16.650  0.00  0.00    +0.000 N 
ATOM      2  C   UNL     1       3.767   5.197  17.318  0.00  0.00    +0.000 C 
ATOM      3  O   UNL     1       3.715   6.407  17.491  0.00  0.00    +0.000 OA
ATOM      4  H   UNL     1       4.547   3.442  16.650  0.00  0.00    +0.000 HD
ENDROOT
BRANCH   1  10
ATOM      5  C   UNL     1       6.216   4.680  14.649  0.00  0.00    +0.000 A 
ATOM      6  N   UNL     1       7.382   5.263  14.346  0.00  0.00    +0.000 NA
ATOM      7  O   UNL     1       7.782   5.916  15.486  0.00  0.00    +0.000 OA
ATOM      8  C   UNL     1       6.867   5.732  16.476  0.00  0.00    +0.000 A 
ATOM      9  C   UNL     1       7.194   6.431  17.734  0.00  0.00    +0.000 C 
ATOM     10  C   UNL     1       5.847   4.925  16.010  0.00  0.00    +0.000 A 
BRANCH   5  12
ATOM     11  C   UNL     1       6.403   3.562  12.412  0.00  0.00    +0.000 C 
ATOM     12  C   UNL     1       5.502   3.926  13.580  0.00  0.00    +0.000 C 
ENDBRANCH   5  12
ENDBRANCH   1  10
BRANCH   2  13
ATOM     13  C   UNL     1       2.633   4.345  17.925  0.00  0.00    +0.000 C 
ATOM     14  O   UNL     1       1.637   4.106  17.259  0.00  0.00    +0.000 OA
ATOM     15  N   UNL     1       2.904   3.946  19.216  0.00  0.00    +0.000 N 
ATOM     16  H   UNL     1       3.807   4.253  19.574  0.00  0.00    +0.000 HD
BRANCH  15  17
ATOM     17  C   UNL     1       2.039   3.134  20.075  0.00  0.00    +0.000 C 
ATOM     18  C   UNL     1       2.774   2.733  21.362  0.00  0.00    +0.000 C 
ATOM     19  C   UNL     1       0.806   3.976  20.457  0.00  0.00    +0.000 C 
ATOM     20  C   UNL     1       1.556   1.883  19.326  0.00  0.00    +0.000 C 
ENDBRANCH  15  17
ENDBRANCH   2  13
TORSDOF 4
ENDMDL
MODEL 2
REMARK VINA RESULT:      -7.5      0.129      1.033
REMARK  Name = 
REMARK  9 active torsions:
REMARK  status: ('A' for Active; 'I' for Inactive)
REMARK    1  A    between atoms: C_1  and  C_2
REMARK    2  A    between atoms: C_2  and  C_3
REMARK    3  A    between atoms: C_6  and  C_7
REMARK    4  A    between atoms: C_8  and  N_9
REMARK    5  A    between atoms: C_10  and  C_12
REMARK    6  A    between atoms: N_14  and  C_15
REMARK    7  A    between atoms: C_15  and  C_16
REMARK    8  A    between atoms: C_15  and  C_17
REMARK    9  A    between atoms: C_15  and  C_18
REMARK                            x       y       z     vdW  Elec       q    Type
REMARK                         _______ _______ _______ _____ _____    ______ ____
ROOT
ATOM      1  N   UNL     1       4.665   4.549  16.721  0.00  0.00    +0.000 N 
ATOM      2  C   UNL     1       3.711   5.318  17.349  0.00  0.00    +0.000 C 
ATOM      3  O   UNL     1       3.655   6.532  17.484  0.00  0.00    +0.000 OA
ATOM      4  H   UNL     1       4.503   3.543  16.749  0.00  0.00    +0.000 HD
ENDROOT
BRANCH   1  10
ATOM      5  C   UNL     1       6.193   4.739  14.732  0.00  0.00    +0.000 A 
ATOM      6  N   UNL     1       7.366   5.308  14.431  0.00  0.00    +0.000 NA
ATOM      7  O   UNL     1       7.760   5.975  15.565  0.00  0.00    +0.000 OA
ATOM      8  C   UNL     1       6.833   5.814  16.549  0.00  0.00    +0.000 A 
ATOM      9  C   UNL     1       7.154   6.530  17.799  0.00  0.00    +0.000 C 
ATOM     10  C   UNL     1       5.811   5.007  16.085  0.00  0.00    +0.000 A 
BRANCH   5  12
ATOM     11  C   UNL     1       6.395   3.576  12.518  0.00  0.00    +0.000 C 
ATOM     12  C   UNL     1       5.483   3.974  13.668  0.00  0.00    +0.000 C 
ENDBRANCH   5  12
ENDBRANCH   1  10
BRANCH   2  13
ATOM     13  C   UNL     1       2.568   4.484  17.965  0.00  0.00    +0.000 C 
ATOM     14  O   UNL     1       1.513   4.369  17.357  0.00  0.00    +0.000 OA
ATOM     15  N   UNL     1       2.900   3.951  19.191  0.00  0.00    +0.000 N 
ATOM     16  H   UNL     1       3.846   4.168  19.505  0.00  0.00    +0.000 HD
BRANCH  15  17
ATOM     17  C   UNL     1       2.046   3.118  20.038  0.00  0.00    +0.000 C 
ATOM     18  C   UNL     1       1.614   1.847  19.291  0.00  0.00    +0.000 C 
ATOM     19  C   UNL     1       2.853   2.702  21.283  0.00  0.00    +0.000 C 
ATOM     20  C   UNL     1       0.813   3.906  20.503  0.00  0.00    +0.000 C 
ENDBRANCH  15  17
ENDBRANCH   2  13
TORSDOF 4
ENDMDL
MODEL 3
REMARK VINA RESULT:      -7.4      0.242      1.041
REMARK  Name = 
REMARK  9 active torsions:
REMARK  status: ('A' for Active; 'I' for Inactive)
REMARK    1  A    between atoms: C_1  and  C_2
REMARK    2  A    between atoms: C_2  and  C_3
REMARK    3  A    between atoms: C_6  and  C_7
REMARK    4  A    between atoms: C_8  and  N_9
REMARK    5  A    between atoms: C_10  and  C_12
REMARK    6  A    between atoms: N_14  and  C_15
REMARK    7  A    between atoms: C_15  and  C_16
REMARK    8  A    between atoms: C_15  and  C_17
REMARK    9  A    between atoms: C_15  and  C_18
REMARK                            x       y       z     vdW  Elec       q    Type
REMARK                         _______ _______ _______ _____ _____    ______ ____
ROOT
ATOM      1  N   UNL     1       4.674   4.649  16.802  0.00  0.00    +0.000 N 
ATOM      2  C   UNL     1       3.740   5.451  17.420  0.00  0.00    +0.000 C 
ATOM      3  O   UNL     1       3.710   6.669  17.528  0.00  0.00    +0.000 OA
ATOM      4  H   UNL     1       4.491   3.648  16.854  0.00  0.00    +0.000 HD
ENDROOT
BRANCH   1  10
ATOM      5  C   UNL     1       6.194   4.757  14.801  0.00  0.00    +0.000 A 
ATOM      6  N   UNL     1       7.376   5.298  14.480  0.00  0.00    +0.000 NA
ATOM      7  O   UNL     1       7.787   5.988  15.593  0.00  0.00    +0.000 OA
ATOM      8  C   UNL     1       6.863   5.870  16.586  0.00  0.00    +0.000 A 
ATOM      9  C   UNL     1       7.203   6.614  17.814  0.00  0.00    +0.000 C 
ATOM     10  C   UNL     1       5.825   5.069  16.148  0.00  0.00    +0.000 A 
BRANCH   5  12
ATOM     11  C   UNL     1       6.344   3.605  12.578  0.00  0.00    +0.000 C 
ATOM     12  C   UNL     1       5.465   3.977  13.762  0.00  0.00    +0.000 C 
ENDBRANCH   5  12
ENDBRANCH   1  10
BRANCH   2  13
ATOM     13  C   UNL     1       2.585   4.655  18.061  0.00  0.00    +0.000 C 
ATOM     14  O   UNL     1       1.482   4.666  17.534  0.00  0.00    +0.000 OA
ATOM     15  N   UNL     1       2.966   4.002  19.213  0.00  0.00    +0.000 N 
ATOM     16  H   UNL     1       3.946   4.125  19.465  0.00  0.00    +0.000 HD
BRANCH  15  17
ATOM     17  C   UNL     1       2.114   3.167  20.062  0.00  0.00    +0.000 C 
ATOM     18  C   UNL     1       0.860   3.938  20.498  0.00  0.00    +0.000 C 
ATOM     19  C   UNL     1       1.673   1.937  19.246  0.00  0.00    +0.000 C 
ATOM     20  C   UNL     1       2.892   2.677  21.292  0.00  0.00    +0.000 C 
ENDBRANCH  15  17
ENDBRANCH   2  13
TORSDOF 4
ENDMDL
MODEL 4
REMARK VINA RESULT:      -7.3      1.609      1.609
REMARK  Name = 
REMARK  9 active torsions:
REMARK  status: ('A' for Active; 'I' for Inactive)
REMARK    1  A    between atoms: C_1  and  C_2
REMARK    2  A    between atoms: C_2  and  C_3
REMARK    3  A    between atoms: C_6  and  C_7
REMARK    4  A    between atoms: C_8  and  N_9
REMARK    5  A    between atoms: C_10  and  C_12
REMARK    6  A    between atoms: N_14  and  C_15
REMARK    7  A    between atoms: C_15  and  C_16
REMARK    8  A    between atoms: C_15  and  C_17
REMARK    9  A    between atoms: C_15  and  C_18
REMARK                            x       y       z     vdW  Elec       q    Type
REMARK                         _______ _______ _______ _____ _____    ______ ____
ROOT
ATOM      1  N   UNL     1       5.237   4.109  17.338  0.00  0.00    +0.000 N 
ATOM      2  C   UNL     1       5.303   3.937  18.703  0.00  0.00    +0.000 C 
ATOM      3  O   UNL     1       6.144   4.334  19.498  0.00  0.00    +0.000 OA
ATOM      4  H   UNL     1       4.440   3.670  16.881  0.00  0.00    +0.000 HD
ENDROOT
BRANCH   1  10
ATOM      5  C   UNL     1       6.367   4.596  15.143  0.00  0.00    +0.000 A 
ATOM      6  N   UNL     1       7.332   5.399  14.680  0.00  0.00    +0.000 NA
ATOM      7  O   UNL     1       7.744   6.148  15.754  0.00  0.00    +0.000 OA
ATOM      8  C   UNL     1       7.036   5.804  16.864  0.00  0.00    +0.000 A 
ATOM      9  C   UNL     1       7.385   6.587  18.065  0.00  0.00    +0.000 C 
ATOM     10  C   UNL     1       6.149   4.793  16.544  0.00  0.00    +0.000 A 
BRANCH   5  12
ATOM     11  C   UNL     1       6.343   3.662  12.816  0.00  0.00    +0.000 C 
ATOM     12  C   UNL     1       5.680   3.686  14.184  0.00  0.00    +0.000 C 
ENDBRANCH   5  12
ENDBRANCH   1  10
BRANCH   2  13
ATOM     13  C   UNL     1       4.128   3.113  19.268  0.00  0.00    +0.000 C 
ATOM     14  O   UNL     1       4.232   1.898  19.356  0.00  0.00    +0.000 OA
ATOM     15  N   UNL     1       3.049   3.897  19.616  0.00  0.00    +0.000 N 
ATOM     16  H   UNL     1       3.186   4.896  19.466  0.00  0.00    +0.000 HD
BRANCH  15  17
ATOM     17  C   UNL     1       1.779   3.430  20.176  0.00  0.00    +0.000 C 
ATOM     18  C   UNL     1       2.014   2.655  21.480  0.00  0.00    +0.000 C 
ATOM     19  C   UNL     1       0.906   4.661  20.488  0.00  0.00    +0.000 C 
ATOM     20  C   UNL     1       1.033   2.552  19.162  0.00  0.00    +0.000 C 
ENDBRANCH  15  17
ENDBRANCH   2  13
TORSDOF 4
ENDMDL
MODEL 5
REMARK VINA RESULT:      -7.3      1.545      1.866
REMARK  Name = 
REMARK  9 active torsions:
REMARK  status: ('A' for Active; 'I' for Inactive)
REMARK    1  A    between atoms: C_1  and  C_2
REMARK    2  A    between atoms: C_2  and  C_3
REMARK    3  A    between atoms: C_6  and  C_7
REMARK    4  A    between atoms: C_8  and  N_9
REMARK    5  A    between atoms: C_10  and  C_12
REMARK    6  A    between atoms: N_14  and  C_15
REMARK    7  A    between atoms: C_15  and  C_16
REMARK    8  A    between atoms: C_15  and  C_17
REMARK    9  A    between atoms: C_15  and  C_18
REMARK                            x       y       z     vdW  Elec       q    Type
REMARK                         _______ _______ _______ _____ _____    ______ ____
ROOT
ATOM      1  N   UNL     1       5.189   4.041  17.194  0.00  0.00    +0.000 N 
ATOM      2  C   UNL     1       5.246   3.813  18.551  0.00  0.00    +0.000 C 
ATOM      3  O   UNL     1       6.090   4.162  19.363  0.00  0.00    +0.000 OA
ATOM      4  H   UNL     1       4.385   3.636  16.716  0.00  0.00    +0.000 HD
ENDROOT
BRANCH   1  10
ATOM      5  C   UNL     1       6.368   4.563  15.033  0.00  0.00    +0.000 A 
ATOM      6  N   UNL     1       7.340   5.377  14.604  0.00  0.00    +0.000 NA
ATOM      7  O   UNL     1       7.722   6.114  15.698  0.00  0.00    +0.000 OA
ATOM      8  C   UNL     1       6.988   5.752  16.786  0.00  0.00    +0.000 A 
ATOM      9  C   UNL     1       7.304   6.521  18.005  0.00  0.00    +0.000 C 
ATOM     10  C   UNL     1       6.116   4.741  16.431  0.00  0.00    +0.000 A 
BRANCH   5  12
ATOM     11  C   UNL     1       6.373   3.700  12.678  0.00  0.00    +0.000 C 
ATOM     12  C   UNL     1       5.710   3.662  14.046  0.00  0.00    +0.000 C 
ENDBRANCH   5  12
ENDBRANCH   1  10
BRANCH   2  13
ATOM     13  C   UNL     1       4.054   2.988  19.078  0.00  0.00    +0.000 C 
ATOM     14  O   UNL     1       4.087   1.768  19.005  0.00  0.00    +0.000 OA
ATOM     15  N   UNL     1       3.046   3.777  19.588  0.00  0.00    +0.000 N 
ATOM     16  H   UNL     1       3.236   4.778  19.557  0.00  0.00    +0.000 HD
BRANCH  15  17
ATOM     17  C   UNL     1       1.782   3.312  20.161  0.00  0.00    +0.000 C 
ATOM     18  C   UNL     1       1.087   2.324  19.213  0.00  0.00    +0.000 C 
ATOM     19  C   UNL     1       2.088   2.586  21.486  0.00  0.00    +0.000 C 
ATOM     20  C   UNL     1       0.857   4.500  20.464  0.00  0.00    +0.000 C 
ENDBRANCH  15  17
ENDBRANCH   2  13
TORSDOF 4
ENDMDL
MODEL 6
REMARK VINA RESULT:      -7.2      1.587      1.847
REMARK  Name = 
REMARK  9 active torsions:
REMARK  status: ('A' for Active; 'I' for Inactive)
REMARK    1  A    between atoms: C_1  and  C_2
REMARK    2  A    between atoms: C_2  and  C_3
REMARK    3  A    between atoms: C_6  and  C_7
REMARK    4  A    between atoms: C_8  and  N_9
REMARK    5  A    between atoms: C_10  and  C_12
REMARK    6  A    between atoms: N_14  and  C_15
REMARK    7  A    between atoms: C_15  and  C_16
REMARK    8  A    between atoms: C_15  and  C_17
REMARK    9  A    between atoms: C_15  and  C_18
REMARK                            x       y       z     vdW  Elec       q    Type
REMARK                         _______ _______ _______ _____ _____    ______ ____
ROOT
ATOM      1  N   UNL     1       5.202   4.132  17.312  0.00  0.00    +0.000 N 
ATOM      2  C   UNL     1       5.278   3.920  18.671  0.00  0.00    +0.000 C 
ATOM      3  O   UNL     1       6.137   4.273  19.467  0.00  0.00    +0.000 OA
ATOM      4  H   UNL     1       4.389   3.727  16.852  0.00  0.00    +0.000 HD
ENDROOT
BRANCH   1  10
ATOM      5  C   UNL     1       6.329   4.643  15.121  0.00  0.00    +0.000 A 
ATOM      6  N   UNL     1       7.308   5.436  14.669  0.00  0.00    +0.000 NA
ATOM      7  O   UNL     1       7.742   6.153  15.757  0.00  0.00    +0.000 OA
ATOM      8  C   UNL     1       7.032   5.800  16.863  0.00  0.00    +0.000 A 
ATOM      9  C   UNL     1       7.404   6.550  18.079  0.00  0.00    +0.000 C 
ATOM     10  C   UNL     1       6.123   4.815  16.527  0.00  0.00    +0.000 A 
BRANCH   5  12
ATOM     11  C   UNL     1       6.382   3.594  12.844  0.00  0.00    +0.000 C 
ATOM     12  C   UNL     1       5.618   3.767  14.147  0.00  0.00    +0.000 C 
ENDBRANCH   5  12
ENDBRANCH   1  10
BRANCH   2  13
ATOM     13  C   UNL     1       4.087   3.112  19.226  0.00  0.00    +0.000 C 
ATOM     14  O   UNL     1       4.156   1.892  19.268  0.00  0.00    +0.000 OA
ATOM     15  N   UNL     1       3.038   3.914  19.619  0.00  0.00    +0.000 N 
ATOM     16  H   UNL     1       3.202   4.913  19.503  0.00  0.00    +0.000 HD
BRANCH  15  17
ATOM     17  C   UNL     1       1.764   3.465  20.183  0.00  0.00    +0.000 C 
ATOM     18  C   UNL     1       0.828   4.658  20.425  0.00  0.00    +0.000 C 
ATOM     19  C   UNL     1       1.094   2.514  19.173  0.00  0.00    +0.000 C 
ATOM     20  C   UNL     1       1.994   2.696  21.492  0.00  0.00    +0.000 C 
ENDBRANCH  15  17
ENDBRANCH   2  13
TORSDOF 4
ENDMDL
MODEL 7
REMARK VINA RESULT:      -7.2      1.016      1.406
REMARK  Name = 
REMARK  9 active torsions:
REMARK  status: ('A' for Active; 'I' for Inactive)
REMARK    1  A    between atoms: C_1  and  C_2
REMARK    2  A    between atoms: C_2  and  C_3
REMARK    3  A    between atoms: C_6  and  C_7
REMARK    4  A    between atoms: C_8  and  N_9
REMARK    5  A    between atoms: C_10  and  C_12
REMARK    6  A    between atoms: N_14  and  C_15
REMARK    7  A    between atoms: C_15  and  C_16
REMARK    8  A    between atoms: C_15  and  C_17
REMARK    9  A    between atoms: C_15  and  C_18
REMARK                            x       y       z     vdW  Elec       q    Type
REMARK                         _______ _______ _______ _____ _____    ______ ____
ROOT
ATOM      1  N   UNL     1       4.535   4.976  16.787  0.00  0.00    +0.000 N 
ATOM      2  C   UNL     1       4.133   3.748  17.264  0.00  0.00    +0.000 C 
ATOM      3  O   UNL     1       4.707   2.669  17.217  0.00  0.00    +0.000 OA
ATOM      4  H   UNL     1       3.875   5.738  16.932  0.00  0.00    +0.000 HD
ENDROOT
BRANCH   1  10
ATOM      5  C   UNL     1       6.091   4.807  14.817  0.00  0.00    +0.000 A 
ATOM      6  N   UNL     1       7.312   5.236  14.477  0.00  0.00    +0.000 NA
ATOM      7  O   UNL     1       7.753   5.990  15.536  0.00  0.00    +0.000 OA
ATOM      8  C   UNL     1       6.808   6.022  16.514  0.00  0.00    +0.000 A 
ATOM      9  C   UNL     1       7.179   6.845  17.681  0.00  0.00    +0.000 C 
ATOM     10  C   UNL     1       5.723   5.259  16.124  0.00  0.00    +0.000 A 
BRANCH   5  12
ATOM     11  C   UNL     1       6.169   3.554  12.646  0.00  0.00    +0.000 C 
ATOM     12  C   UNL     1       5.326   3.991  13.833  0.00  0.00    +0.000 C 
ENDBRANCH   5  12
ENDBRANCH   1  10
BRANCH   2  13
ATOM     13  C   UNL     1       2.748   3.785  17.942  0.00  0.00    +0.000 C 
ATOM     14  O   UNL     1       1.760   4.059  17.278  0.00  0.00    +0.000 OA
ATOM     15  N   UNL     1       2.808   3.492  19.287  0.00  0.00    +0.000 N 
ATOM     16  H   UNL     1       3.744   3.282  19.634  0.00  0.00    +0.000 HD
BRANCH  15  17
ATOM     17  C   UNL     1       1.680   3.445  20.219  0.00  0.00    +0.000 C 
ATOM     18  C   UNL     1       1.149   4.858  20.501  0.00  0.00    +0.000 C 
ATOM     19  C   UNL     1       0.551   2.619  19.573  0.00  0.00    +0.000 C 
ATOM     20  C   UNL     1       2.091   2.760  21.530  0.00  0.00    +0.000 C 
ENDBRANCH  15  17
ENDBRANCH   2  13
TORSDOF 4
ENDMDL
MODEL 8
REMARK VINA RESULT:      -7.2      1.132      2.770
REMARK  Name = 
REMARK  9 active torsions:
REMARK  status: ('A' for Active; 'I' for Inactive)
REMARK    1  A    between atoms: C_1  and  C_2
REMARK    2  A    between atoms: C_2  and  C_3
REMARK    3  A    between atoms: C_6  and  C_7
REMARK    4  A    between atoms: C_8  and  N_9
REMARK    5  A    between atoms: C_10  and  C_12
REMARK    6  A    between atoms: N_14  and  C_15
REMARK    7  A    between atoms: C_15  and  C_16
REMARK    8  A    between atoms: C_15  and  C_17
REMARK    9  A    between atoms: C_15  and  C_18
REMARK                            x       y       z     vdW  Elec       q    Type
REMARK                         _______ _______ _______ _____ _____    ______ ____
ROOT
ATOM      1  N   UNL     1       5.181   3.663  16.381  0.00  0.00    +0.000 N 
ATOM      2  C   UNL     1       4.166   4.256  17.098  0.00  0.00    +0.000 C 
ATOM      3  O   UNL     1       3.846   5.435  17.165  0.00  0.00    +0.000 OA
ATOM      4  H   UNL     1       5.263   2.654  16.493  0.00  0.00    +0.000 HD
ENDROOT
BRANCH   1  10
ATOM      5  C   UNL     1       7.110   5.224  15.965  0.00  0.00    +0.000 A 
ATOM      6  N   UNL     1       7.809   5.682  14.920  0.00  0.00    +0.000 NA
ATOM      7  O   UNL     1       7.286   5.056  13.815  0.00  0.00    +0.000 OA
ATOM      8  C   UNL     1       6.275   4.223  14.184  0.00  0.00    +0.000 A 
ATOM      9  C   UNL     1       5.674   3.475  13.063  0.00  0.00    +0.000 C 
ATOM     10  C   UNL     1       6.094   4.304  15.552  0.00  0.00    +0.000 A 
BRANCH   5  12
ATOM     11  C   UNL     1       7.473   7.207  17.457  0.00  0.00    +0.000 C 
ATOM     12  C   UNL     1       7.485   5.692  17.329  0.00  0.00    +0.000 C 
ENDBRANCH   5  12
ENDBRANCH   1  10
BRANCH   2  13
ATOM     13  C   UNL     1       3.341   3.250  17.927  0.00  0.00    +0.000 C 
ATOM     14  O   UNL     1       3.467   2.052  17.719  0.00  0.00    +0.000 OA
ATOM     15  N   UNL     1       2.517   3.867  18.843  0.00  0.00    +0.000 N 
ATOM     16  H   UNL     1       2.581   4.885  18.852  0.00  0.00    +0.000 HD
BRANCH  15  17
ATOM     17  C   UNL     1       1.606   3.205  19.778  0.00  0.00    +0.000 C 
ATOM     18  C   UNL     1       0.742   4.237  20.517  0.00  0.00    +0.000 C 
ATOM     19  C   UNL     1       0.677   2.275  18.975  0.00  0.00    +0.000 C 
ATOM     20  C   UNL     1       2.392   2.352  20.784  0.00  0.00    +0.000 C 
ENDBRANCH  15  17
ENDBRANCH   2  13
TORSDOF 4
ENDMDL
MODEL 9
REMARK VINA RESULT:      -7.1      0.569      2.519
REMARK  Name = 
REMARK  9 active torsions:
REMARK  status: ('A' for Active; 'I' for Inactive)
REMARK    1  A    between atoms: C_1  and  C_2
REMARK    2  A    between atoms: C_2  and  C_3
REMARK    3  A    between atoms: C_6  and  C_7
REMARK    4  A    between atoms: C_8  and  N_9
REMARK    5  A    between atoms: C_10  and  C_12
REMARK    6  A    between atoms: N_14  and  C_15
REMARK    7  A    between atoms: C_15  and  C_16
REMARK    8  A    between atoms: C_15  and  C_17
REMARK    9  A    between atoms: C_15  and  C_18
REMARK                            x       y       z     vdW  Elec       q    Type
REMARK                         _______ _______ _______ _____ _____    ______ ____
ROOT
ATOM      1  N   UNL     1       4.657   4.396  16.647  0.00  0.00    +0.000 N 
ATOM      2  C   UNL     1       3.716   5.188  17.265  0.00  0.00    +0.000 C 
ATOM      3  O   UNL     1       3.666   6.406  17.363  0.00  0.00    +0.000 OA
ATOM      4  H   UNL     1       4.492   3.393  16.708  0.00  0.00    +0.000 HD
ENDROOT
BRANCH   1  10
ATOM      5  C   UNL     1       6.837   5.647  16.525  0.00  0.00    +0.000 A 
ATOM      6  N   UNL     1       7.783   5.907  15.615  0.00  0.00    +0.000 NA
ATOM      7  O   UNL     1       7.394   5.251  14.473  0.00  0.00    +0.000 OA
ATOM      8  C   UNL     1       6.221   4.595  14.685  0.00  0.00    +0.000 A 
ATOM      9  C   UNL     1       5.743   3.827  13.519  0.00  0.00    +0.000 C 
ATOM     10  C   UNL     1       5.796   4.830  15.979  0.00  0.00    +0.000 A 
BRANCH   5  12
ATOM     11  C   UNL     1       7.774   7.504  17.926  0.00  0.00    +0.000 C 
ATOM     12  C   UNL     1       7.008   6.191  17.902  0.00  0.00    +0.000 C 
ENDBRANCH   5  12
ENDBRANCH   1  10
BRANCH   2  13
ATOM     13  C   UNL     1       2.579   4.378  17.923  0.00  0.00    +0.000 C 
ATOM     14  O   UNL     1       1.527   4.220  17.321  0.00  0.00    +0.000 OA
ATOM     15  N   UNL     1       2.914   3.916  19.177  0.00  0.00    +0.000 N 
ATOM     16  H   UNL     1       3.856   4.159  19.480  0.00  0.00    +0.000 HD
BRANCH  15  17
ATOM     17  C   UNL     1       2.065   3.122  20.067  0.00  0.00    +0.000 C 
ATOM     18  C   UNL     1       2.835   2.715  21.331  0.00  0.00    +0.000 C 
ATOM     19  C   UNL     1       0.859   3.985  20.485  0.00  0.00    +0.000 C 
ATOM     20  C   UNL     1       1.538   1.876  19.340  0.00  0.00    +0.000 C 
ENDBRANCH  15  17
ENDBRANCH   2  13
TORSDOF 4
ENDMDL
