MODEL 1
REMARK VINA RESULT:      -7.0      0.000      0.000
REMARK  Name = 
REMARK  8 active torsions:
REMARK  status: ('A' for Active; 'I' for Inactive)
REMARK    1  A    between atoms: C_1  and  O_2
REMARK    2  A    between atoms: O_2  and  C_3
REMARK    3  A    between atoms: C_6  and  C_7
REMARK    4  A    between atoms: N_11  and  C_12
REMARK    5  A    between atoms: C_12  and  C_13
REMARK    6  A    between atoms: C_22  and  C_23
REMARK    7  A    between atoms: C_26  and  O_27
REMARK    8  A    between atoms: O_27  and  C_28
REMARK                            x       y       z     vdW  Elec       q    Type
REMARK                         _______ _______ _______ _____ _____    ______ ____
ROOT
ATOM      1  C   UNL     1       0.018  11.456  20.332  0.00  0.00    +0.000 A 
ATOM      2  C   UNL     1       0.919  11.209  21.289  0.00  0.00    +0.000 A 
ATOM      3  C   UNL     1       1.227   9.841  21.721  0.00  0.00    +0.000 A 
ATOM      4  O   UNL     1       2.065   9.677  22.608  0.00  0.00    +0.000 OA
ATOM      5  N   UNL     1       0.506   8.829  21.116  0.00  0.00    +0.000 N 
ATOM      6  N   UNL     1      -0.403   9.036  20.095  0.00  0.00    +0.000 NA
ATOM      7  C   UNL     1      -0.625  10.256  19.698  0.00  0.00    +0.000 A 
ENDROOT
BRANCH   1  11
ATOM      8  C   UNL     1      -0.887  15.575  19.602  0.00  0.00    +0.000 A 
ATOM      9  C   UNL     1      -0.111  14.852  18.695  0.00  0.00    +0.000 A 
ATOM     10  C   UNL     1       0.201  13.514  18.938  0.00  0.00    +0.000 A 
ATOM     11  C   UNL     1      -0.299  12.867  20.076  0.00  0.00    +0.000 A 
ATOM     12  C   UNL     1      -1.048  13.604  21.001  0.00  0.00    +0.000 A 
ATOM     13  C   UNL     1      -1.333  14.955  20.769  0.00  0.00    +0.000 A 
BRANCH   8  15
ATOM     14  C   UNL     1      -0.438  17.339  18.089  0.00  0.00    +0.000 C 
ATOM     15  O   UNL     1      -1.108  16.880  19.257  0.00  0.00    +0.000 OA
ENDBRANCH   8  15
ENDBRANCH   1  11
BRANCH   7  16
ATOM     16  C   UNL     1      -1.589  10.443  18.562  0.00  0.00    +0.000 A 
ATOM     17  C   UNL     1      -1.327   9.825  17.331  0.00  0.00    +0.000 A 
ATOM     18  C   UNL     1      -2.196  10.006  16.246  0.00  0.00    +0.000 A 
ATOM     19  C   UNL     1      -3.349  10.780  16.378  0.00  0.00    +0.000 A 
ATOM     20  C   UNL     1      -3.593  11.429  17.584  0.00  0.00    +0.000 A 
ATOM     21  C   UNL     1      -2.702  11.284  18.652  0.00  0.00    +0.000 A 
BRANCH  19  22
ATOM     22  O   UNL     1      -4.128  10.887  15.259  0.00  0.00    +0.000 OA
ATOM     23  C   UNL     1      -3.712  10.110  14.140  0.00  0.00    +0.000 C 
ENDBRANCH  19  22
ENDBRANCH   7  16
BRANCH   5  24
ATOM     24  C   UNL     1       0.715   7.453  21.545  0.00  0.00    +0.000 C 
BRANCH  24  25
ATOM     25  C   UNL     1       1.498   6.637  20.538  0.00  0.00    +0.000 A 
ATOM     26  C   UNL     1       1.487   5.235  20.586  0.00  0.00    +0.000 A 
ATOM     27  C   UNL     1       2.211   4.488  19.654  0.00  0.00    +0.000 A 
ATOM     28  C   UNL     1       2.958   5.132  18.663  0.00  0.00    +0.000 A 
ATOM     29 CL   UNL     1       3.827   4.147  17.543  0.00  0.00    +0.000 Cl
ATOM     30  C   UNL     1       2.982   6.530  18.611  0.00  0.00    +0.000 A 
ATOM     31 CL   UNL     1       3.876   7.396  17.413  0.00  0.00    +0.000 Cl
ATOM     32  C   UNL     1       2.258   7.276  19.548  0.00  0.00    +0.000 A 
ENDBRANCH  24  25
ENDBRANCH   5  24
TORSDOF 6
ENDMDL
MODEL 2
REMARK VINA RESULT:      -7.0      0.577      1.300
REMARK  Name = 
REMARK  8 active torsions:
REMARK  status: ('A' for Active; 'I' for Inactive)
REMARK    1  A    between atoms: C_1  and  O_2
REMARK    2  A    between atoms: O_2  and  C_3
REMARK    3  A    between atoms: C_6  and  C_7
REMARK    4  A    between atoms: N_11  and  C_12
REMARK    5  A    between atoms: C_12  and  C_13
REMARK    6  A    between atoms: C_22  and  C_23
REMARK    7  A    between atoms: C_26  and  O_27
REMARK    8  A    between atoms: O_27  and  C_28
REMARK                            x       y       z     vdW  Elec       q    Type
REMARK                         _______ _______ _______ _____ _____    ______ ____
ROOT
ATOM      1  C   UNL     1       0.034  11.463  20.423  0.00  0.00    +0.000 A 
ATOM      2  C   UNL     1       0.935  11.201  21.375  0.00  0.00    +0.000 A 
ATOM      3  C   UNL     1       1.248   9.825  21.782  0.00  0.00    +0.000 A 
ATOM      4  O   UNL     1       2.086   9.647  22.665  0.00  0.00    +0.000 OA
ATOM      5  N   UNL     1       0.530   8.824  21.157  0.00  0.00    +0.000 N 
ATOM      6  N   UNL     1      -0.380   9.047  20.140  0.00  0.00    +0.000 NA
ATOM      7  C   UNL     1      -0.605  10.274  19.767  0.00  0.00    +0.000 A 
ENDROOT
BRANCH   1  11
ATOM      8  C   UNL     1      -0.886  15.593  19.774  0.00  0.00    +0.000 A 
ATOM      9  C   UNL     1       0.054  14.945  18.972  0.00  0.00    +0.000 A 
ATOM     10  C   UNL     1       0.369  13.604  19.191  0.00  0.00    +0.000 A 
ATOM     11  C   UNL     1      -0.287  12.878  20.194  0.00  0.00    +0.000 A 
ATOM     12  C   UNL     1      -1.204  13.539  21.020  0.00  0.00    +0.000 A 
ATOM     13  C   UNL     1      -1.495  14.894  20.816  0.00  0.00    +0.000 A 
BRANCH   8  15
ATOM     14  C   UNL     1      -0.805  17.292  18.129  0.00  0.00    +0.000 C 
ATOM     15  O   UNL     1      -1.094  16.909  19.468  0.00  0.00    +0.000 OA
ENDBRANCH   8  15
ENDBRANCH   1  11
BRANCH   7  16
ATOM     16  C   UNL     1      -1.570  10.479  18.634  0.00  0.00    +0.000 A 
ATOM     17  C   UNL     1      -1.328   9.850  17.404  0.00  0.00    +0.000 A 
ATOM     18  C   UNL     1      -2.197  10.048  16.322  0.00  0.00    +0.000 A 
ATOM     19  C   UNL     1      -3.331  10.850  16.456  0.00  0.00    +0.000 A 
ATOM     20  C   UNL     1      -3.554  11.510  17.660  0.00  0.00    +0.000 A 
ATOM     21  C   UNL     1      -2.662  11.347  18.725  0.00  0.00    +0.000 A 
BRANCH  19  22
ATOM     22  O   UNL     1      -4.112  10.972  15.341  0.00  0.00    +0.000 OA
ATOM     23  C   UNL     1      -3.743  10.152  14.235  0.00  0.00    +0.000 C 
ENDBRANCH  19  22
ENDBRANCH   7  16
BRANCH   5  24
ATOM     24  C   UNL     1       0.742   7.440  21.561  0.00  0.00    +0.000 C 
BRANCH  24  25
ATOM     25  C   UNL     1       1.489   6.634  20.518  0.00  0.00    +0.000 A 
ATOM     26  C   UNL     1       2.322   7.267  19.584  0.00  0.00    +0.000 A 
ATOM     27  C   UNL     1       3.008   6.518  18.624  0.00  0.00    +0.000 A 
ATOM     28  C   UNL     1       2.869   5.128  18.585  0.00  0.00    +0.000 A 
ATOM     29 CL   UNL     1       3.748   4.265  17.375  0.00  0.00    +0.000 Cl
ATOM     30  C   UNL     1       2.036   4.488  19.508  0.00  0.00    +0.000 A 
ATOM     31 CL   UNL     1       1.818   2.773  19.526  0.00  0.00    +0.000 Cl
ATOM     32  C   UNL     1       1.346   5.240  20.465  0.00  0.00    +0.000 A 
ENDBRANCH  24  25
ENDBRANCH   5  24
TORSDOF 6
ENDMDL
MODEL 3
REMARK VINA RESULT:      -7.0      4.448      7.139
REMARK  Name = 
REMARK  8 active torsions:
REMARK  status: ('A' for Active; 'I' for Inactive)
REMARK    1  A    between atoms: C_1  and  O_2
REMARK    2  A    between atoms: O_2  and  C_3
REMARK    3  A    between atoms: C_6  and  C_7
REMARK    4  A    between atoms: N_11  and  C_12
REMARK    5  A    between atoms: C_12  and  C_13
REMARK    6  A    between atoms: C_22  and  C_23
REMARK    7  A    between atoms: C_26  and  O_27
REMARK    8  A    between atoms: O_27  and  C_28
REMARK                            x       y       z     vdW  Elec       q    Type
REMARK                         _______ _______ _______ _____ _____    ______ ____
ROOT
ATOM      1  C   UNL     1       0.989  12.630  19.445  0.00  0.00    +0.000 A 
ATOM      2  C   UNL     1       2.084  13.004  18.775  0.00  0.00    +0.000 A 
ATOM      3  C   UNL     1       3.087  13.894  19.374  0.00  0.00    +0.000 A 
ATOM      4  O   UNL     1       4.074  14.204  18.707  0.00  0.00    +0.000 OA
ATOM      5  N   UNL     1       2.815  14.355  20.648  0.00  0.00    +0.000 N 
ATOM      6  N   UNL     1       1.718  13.961  21.392  0.00  0.00    +0.000 NA
ATOM      7  C   UNL     1       0.867  13.135  20.854  0.00  0.00    +0.000 A 
ENDROOT
BRANCH   1  11
ATOM      8  C   UNL     1      -1.912  10.335  17.294  0.00  0.00    +0.000 A 
ATOM      9  C   UNL     1      -2.115  11.697  17.516  0.00  0.00    +0.000 A 
ATOM     10  C   UNL     1      -1.180  12.445  18.232  0.00  0.00    +0.000 A 
ATOM     11  C   UNL     1      -0.002  11.845  18.699  0.00  0.00    +0.000 A 
ATOM     12  C   UNL     1       0.182  10.471  18.505  0.00  0.00    +0.000 A 
ATOM     13  C   UNL     1      -0.774   9.717  17.813  0.00  0.00    +0.000 A 
BRANCH   8  15
ATOM     14  C   UNL     1      -2.990  10.026  15.209  0.00  0.00    +0.000 C 
ATOM     15  O   UNL     1      -2.909   9.712  16.594  0.00  0.00    +0.000 OA
ENDBRANCH   8  15
ENDBRANCH   1  11
BRANCH   7  16
ATOM     16  C   UNL     1      -0.293  12.699  21.702  0.00  0.00    +0.000 A 
ATOM     17  C   UNL     1      -1.316  13.614  21.990  0.00  0.00    +0.000 A 
ATOM     18  C   UNL     1      -2.395  13.241  22.803  0.00  0.00    +0.000 A 
ATOM     19  C   UNL     1      -2.486  11.948  23.317  0.00  0.00    +0.000 A 
ATOM     20  C   UNL     1      -1.455  11.047  23.070  0.00  0.00    +0.000 A 
ATOM     21  C   UNL     1      -0.356  11.435  22.296  0.00  0.00    +0.000 A 
BRANCH  19  22
ATOM     22  O   UNL     1      -3.581  11.689  24.094  0.00  0.00    +0.000 OA
ATOM     23  C   UNL     1      -4.366  12.822  24.453  0.00  0.00    +0.000 C 
ENDBRANCH  19  22
ENDBRANCH   7  16
BRANCH   5  24
ATOM     24  C   UNL     1       3.736  15.294  21.275  0.00  0.00    +0.000 C 
BRANCH  24  25
ATOM     25  C   UNL     1       5.045  14.649  21.680  0.00  0.00    +0.000 A 
ATOM     26  C   UNL     1       6.260  15.089  21.135  0.00  0.00    +0.000 A 
ATOM     27  C   UNL     1       7.464  14.490  21.511  0.00  0.00    +0.000 A 
ATOM     28  C   UNL     1       7.469  13.442  22.436  0.00  0.00    +0.000 A 
ATOM     29 CL   UNL     1       8.994  12.749  22.858  0.00  0.00    +0.000 Cl
ATOM     30  C   UNL     1       6.263  12.990  22.980  0.00  0.00    +0.000 A 
ATOM     31 CL   UNL     1       6.190  11.704  24.131  0.00  0.00    +0.000 Cl
ATOM     32  C   UNL     1       5.057  13.589  22.597  0.00  0.00    +0.000 A 
ENDBRANCH  24  25
ENDBRANCH   5  24
TORSDOF 6
ENDMDL
MODEL 4
REMARK VINA RESULT:      -6.9      4.241      7.637
REMARK  Name = 
REMARK  8 active torsions:
REMARK  status: ('A' for Active; 'I' for Inactive)
REMARK    1  A    between atoms: C_1  and  O_2
REMARK    2  A    between atoms: O_2  and  C_3
REMARK    3  A    between atoms: C_6  and  C_7
REMARK    4  A    between atoms: N_11  and  C_12
REMARK    5  A    between atoms: C_12  and  C_13
REMARK    6  A    between atoms: C_22  and  C_23
REMARK    7  A    between atoms: C_26  and  O_27
REMARK    8  A    between atoms: O_27  and  C_28
REMARK                            x       y       z     vdW  Elec       q    Type
REMARK                         _______ _______ _______ _____ _____    ______ ____
ROOT
ATOM      1  C   UNL     1       0.047  11.366  20.110  0.00  0.00    +0.000 A 
ATOM      2  C   UNL     1       0.549  12.015  21.165  0.00  0.00    +0.000 A 
ATOM      3  C   UNL     1      -0.053  13.258  21.663  0.00  0.00    +0.000 A 
ATOM      4  O   UNL     1       0.455  13.811  22.637  0.00  0.00    +0.000 OA
ATOM      5  N   UNL     1      -1.139  13.738  20.957  0.00  0.00    +0.000 N 
ATOM      6  N   UNL     1      -1.717  13.078  19.888  0.00  0.00    +0.000 NA
ATOM      7  C   UNL     1      -1.190  11.954  19.494  0.00  0.00    +0.000 A 
ENDROOT
BRANCH   1  11
ATOM      8  C   UNL     1       2.247   7.980  18.692  0.00  0.00    +0.000 A 
ATOM      9  C   UNL     1       2.082   9.103  17.881  0.00  0.00    +0.000 A 
ATOM     10  C   UNL     1       1.351  10.202  18.333  0.00  0.00    +0.000 A 
ATOM     11  C   UNL     1       0.809  10.208  19.626  0.00  0.00    +0.000 A 
ATOM     12  C   UNL     1       0.946   9.066  20.423  0.00  0.00    +0.000 A 
ATOM     13  C   UNL     1       1.655   7.953  19.954  0.00  0.00    +0.000 A 
BRANCH   8  15
ATOM     14  C   UNL     1       3.616   6.079  19.034  0.00  0.00    +0.000 C 
ATOM     15  O   UNL     1       2.969   6.964  18.127  0.00  0.00    +0.000 OA
ENDBRANCH   8  15
ENDBRANCH   1  11
BRANCH   7  16
ATOM     16  C   UNL     1      -1.863  11.244  18.355  0.00  0.00    +0.000 A 
ATOM     17  C   UNL     1      -1.923  11.864  17.099  0.00  0.00    +0.000 A 
ATOM     18  C   UNL     1      -2.571  11.236  16.026  0.00  0.00    +0.000 A 
ATOM     19  C   UNL     1      -3.143   9.973  16.180  0.00  0.00    +0.000 A 
ATOM     20  C   UNL     1      -3.123   9.369  17.434  0.00  0.00    +0.000 A 
ATOM     21  C   UNL     1      -2.516  10.018  18.514  0.00  0.00    +0.000 A 
BRANCH  19  22
ATOM     22  O   UNL     1      -3.746   9.449  15.070  0.00  0.00    +0.000 OA
ATOM     23  C   UNL     1      -3.432  10.090  13.837  0.00  0.00    +0.000 C 
ENDBRANCH  19  22
ENDBRANCH   7  16
BRANCH   5  24
ATOM     24  C   UNL     1      -1.745  15.002  21.357  0.00  0.00    +0.000 C 
BRANCH  24  25
ATOM     25  C   UNL     1      -3.078  14.819  22.050  0.00  0.00    +0.000 A 
ATOM     26  C   UNL     1      -4.162  15.659  21.755  0.00  0.00    +0.000 A 
ATOM     27  C   UNL     1      -5.389  15.486  22.399  0.00  0.00    +0.000 A 
ATOM     28  C   UNL     1      -5.549  14.472  23.347  0.00  0.00    +0.000 A 
ATOM     29 CL   UNL     1      -7.095  14.313  24.102  0.00  0.00    +0.000 Cl
ATOM     30  C   UNL     1      -4.474  13.633  23.655  0.00  0.00    +0.000 A 
ATOM     31 CL   UNL     1      -4.597  12.355  24.811  0.00  0.00    +0.000 Cl
ATOM     32  C   UNL     1      -3.243  13.811  23.012  0.00  0.00    +0.000 A 
ENDBRANCH  24  25
ENDBRANCH   5  24
TORSDOF 6
ENDMDL
MODEL 5
REMARK VINA RESULT:      -6.9      4.672      7.815
REMARK  Name = 
REMARK  8 active torsions:
REMARK  status: ('A' for Active; 'I' for Inactive)
REMARK    1  A    between atoms: C_1  and  O_2
REMARK    2  A    between atoms: O_2  and  C_3
REMARK    3  A    between atoms: C_6  and  C_7
REMARK    4  A    between atoms: N_11  and  C_12
REMARK    5  A    between atoms: C_12  and  C_13
REMARK    6  A    between atoms: C_22  and  C_23
REMARK    7  A    between atoms: C_26  and  O_27
REMARK    8  A    between atoms: O_27  and  C_28
REMARK                            x       y       z     vdW  Elec       q    Type
REMARK                         _______ _______ _______ _____ _____    ______ ____
ROOT
ATOM      1  C   UNL     1      -0.368  11.219  20.524  0.00  0.00    +0.000 A 
ATOM      2  C   UNL     1      -0.001  11.760  21.690  0.00  0.00    +0.000 A 
ATOM      3  C   UNL     1      -0.685  12.935  22.243  0.00  0.00    +0.000 A 
ATOM      4  O   UNL     1      -0.302  13.389  23.321  0.00  0.00    +0.000 OA
ATOM      5  N   UNL     1      -1.698  13.474  21.473  0.00  0.00    +0.000 N 
ATOM      6  N   UNL     1      -2.137  12.922  20.283  0.00  0.00    +0.000 NA
ATOM      7  C   UNL     1      -1.543  11.853  19.837  0.00  0.00    +0.000 A 
ENDROOT
BRANCH   1  11
ATOM      8  C   UNL     1       2.102   8.055  19.037  0.00  0.00    +0.000 A 
ATOM      9  C   UNL     1       1.606   8.009  20.340  0.00  0.00    +0.000 A 
ATOM     10  C   UNL     1       0.814   9.047  20.835  0.00  0.00    +0.000 A 
ATOM     11  C   UNL     1       0.472  10.129  20.012  0.00  0.00    +0.000 A 
ATOM     12  C   UNL     1       0.999  10.189  18.717  0.00  0.00    +0.000 A 
ATOM     13  C   UNL     1       1.819   9.160  18.235  0.00  0.00    +0.000 A 
BRANCH   8  15
ATOM     14  C   UNL     1       2.178   5.836  18.219  0.00  0.00    +0.000 C 
ATOM     15  O   UNL     1       2.876   6.987  18.679  0.00  0.00    +0.000 OA
ENDBRANCH   8  15
ENDBRANCH   1  11
BRANCH   7  16
ATOM     16  C   UNL     1      -2.068  11.259  18.562  0.00  0.00    +0.000 A 
ATOM     17  C   UNL     1      -2.713  10.014  18.600  0.00  0.00    +0.000 A 
ATOM     18  C   UNL     1      -3.187   9.423  17.420  0.00  0.00    +0.000 A 
ATOM     19  C   UNL     1      -3.051  10.073  16.193  0.00  0.00    +0.000 A 
ATOM     20  C   UNL     1      -2.376  11.289  16.143  0.00  0.00    +0.000 A 
ATOM     21  C   UNL     1      -1.864  11.855  17.315  0.00  0.00    +0.000 A 
BRANCH  19  22
ATOM     22  O   UNL     1      -3.552   9.411  15.107  0.00  0.00    +0.000 OA
ATOM     23  C   UNL     1      -3.451  10.099  13.864  0.00  0.00    +0.000 C 
ENDBRANCH  19  22
ENDBRANCH   7  16
BRANCH   5  24
ATOM     24  C   UNL     1      -2.374  14.680  21.931  0.00  0.00    +0.000 C 
BRANCH  24  25
ATOM     25  C   UNL     1      -3.726  14.394  22.551  0.00  0.00    +0.000 A 
ATOM     26  C   UNL     1      -3.957  13.199  23.247  0.00  0.00    +0.000 A 
ATOM     27  C   UNL     1      -5.207  12.941  23.817  0.00  0.00    +0.000 A 
ATOM     28  C   UNL     1      -6.241  13.873  23.695  0.00  0.00    +0.000 A 
ATOM     29 CL   UNL     1      -7.759  13.490  24.426  0.00  0.00    +0.000 Cl
ATOM     30  C   UNL     1      -6.024  15.064  22.996  0.00  0.00    +0.000 A 
ATOM     31 CL   UNL     1      -7.252  16.266  22.809  0.00  0.00    +0.000 Cl
ATOM     32  C   UNL     1      -4.773  15.319  22.423  0.00  0.00    +0.000 A 
ENDBRANCH  24  25
ENDBRANCH   5  24
TORSDOF 6
ENDMDL
MODEL 6
REMARK VINA RESULT:      -6.8      4.524      7.146
REMARK  Name = 
REMARK  8 active torsions:
REMARK  status: ('A' for Active; 'I' for Inactive)
REMARK    1  A    between atoms: C_1  and  O_2
REMARK    2  A    between atoms: O_2  and  C_3
REMARK    3  A    between atoms: C_6  and  C_7
REMARK    4  A    between atoms: N_11  and  C_12
REMARK    5  A    between atoms: C_12  and  C_13
REMARK    6  A    between atoms: C_22  and  C_23
REMARK    7  A    between atoms: C_26  and  O_27
REMARK    8  A    between atoms: O_27  and  C_28
REMARK                            x       y       z     vdW  Elec       q    Type
REMARK                         _______ _______ _______ _____ _____    ______ ____
ROOT
ATOM      1  C   UNL     1       0.985  12.624  19.402  0.00  0.00    +0.000 A 
ATOM      2  C   UNL     1       2.075  13.000  18.725  0.00  0.00    +0.000 A 
ATOM      3  C   UNL     1       3.079  13.893  19.317  0.00  0.00    +0.000 A 
ATOM      4  O   UNL     1       4.061  14.205  18.645  0.00  0.00    +0.000 OA
ATOM      5  N   UNL     1       2.813  14.355  20.592  0.00  0.00    +0.000 N 
ATOM      6  N   UNL     1       1.721  13.959  21.343  0.00  0.00    +0.000 NA
ATOM      7  C   UNL     1       0.869  13.130  20.811  0.00  0.00    +0.000 A 
ENDROOT
BRANCH   1  11
ATOM      8  C   UNL     1      -1.923  10.319  17.269  0.00  0.00    +0.000 A 
ATOM      9  C   UNL     1      -2.112  11.688  17.463  0.00  0.00    +0.000 A 
ATOM     10  C   UNL     1      -1.175  12.439  18.172  0.00  0.00    +0.000 A 
ATOM     11  C   UNL     1      -0.009  11.836  18.662  0.00  0.00    +0.000 A 
ATOM     12  C   UNL     1       0.162  10.457  18.496  0.00  0.00    +0.000 A 
ATOM     13  C   UNL     1      -0.797   9.700  17.810  0.00  0.00    +0.000 A 
BRANCH   8  15
ATOM     14  C   UNL     1      -3.121  10.137  15.236  0.00  0.00    +0.000 C 
ATOM     15  O   UNL     1      -2.920   9.694  16.572  0.00  0.00    +0.000 OA
ENDBRANCH   8  15
ENDBRANCH   1  11
BRANCH   7  16
ATOM     16  C   UNL     1      -0.285  12.692  21.666  0.00  0.00    +0.000 A 
ATOM     17  C   UNL     1      -1.323  13.595  21.934  0.00  0.00    +0.000 A 
ATOM     18  C   UNL     1      -2.398  13.221  22.753  0.00  0.00    +0.000 A 
ATOM     19  C   UNL     1      -2.469  11.936  23.292  0.00  0.00    +0.000 A 
ATOM     20  C   UNL     1      -1.422  11.048  23.064  0.00  0.00    +0.000 A 
ATOM     21  C   UNL     1      -0.329  11.439  22.284  0.00  0.00    +0.000 A 
BRANCH  19  22
ATOM     22  O   UNL     1      -3.560  11.675  24.072  0.00  0.00    +0.000 OA
ATOM     23  C   UNL     1      -4.251  12.817  24.571  0.00  0.00    +0.000 C 
ENDBRANCH  19  22
ENDBRANCH   7  16
BRANCH   5  24
ATOM     24  C   UNL     1       3.734  15.297  21.213  0.00  0.00    +0.000 C 
BRANCH  24  25
ATOM     25  C   UNL     1       5.028  14.646  21.655  0.00  0.00    +0.000 A 
ATOM     26  C   UNL     1       5.028  13.646  22.639  0.00  0.00    +0.000 A 
ATOM     27  C   UNL     1       6.225  13.050  23.043  0.00  0.00    +0.000 A 
ATOM     28  C   UNL     1       7.437  13.447  22.471  0.00  0.00    +0.000 A 
ATOM     29 CL   UNL     1       8.878  12.666  23.016  0.00  0.00    +0.000 Cl
ATOM     30  C   UNL     1       7.449  14.448  21.495  0.00  0.00    +0.000 A 
ATOM     31 CL   UNL     1       8.906  14.988  20.739  0.00  0.00    +0.000 Cl
ATOM     32  C   UNL     1       6.249  15.047  21.095  0.00  0.00    +0.000 A 
ENDBRANCH  24  25
ENDBRANCH   5  24
TORSDOF 6
ENDMDL
MODEL 7
REMARK VINA RESULT:      -6.7      4.558      7.330
REMARK  Name = 
REMARK  8 active torsions:
REMARK  status: ('A' for Active; 'I' for Inactive)
REMARK    1  A    between atoms: C_1  and  O_2
REMARK    2  A    between atoms: O_2  and  C_3
REMARK    3  A    between atoms: C_6  and  C_7
REMARK    4  A    between atoms: N_11  and  C_12
REMARK    5  A    between atoms: C_12  and  C_13
REMARK    6  A    between atoms: C_22  and  C_23
REMARK    7  A    between atoms: C_26  and  O_27
REMARK    8  A    between atoms: O_27  and  C_28
REMARK                            x       y       z     vdW  Elec       q    Type
REMARK                         _______ _______ _______ _____ _____    ______ ____
ROOT
ATOM      1  C   UNL     1       1.068  12.850  19.673  0.00  0.00    +0.000 A 
ATOM      2  C   UNL     1       2.189  13.197  19.034  0.00  0.00    +0.000 A 
ATOM      3  C   UNL     1       3.163  14.119  19.633  0.00  0.00    +0.000 A 
ATOM      4  O   UNL     1       4.176  14.402  18.996  0.00  0.00    +0.000 OA
ATOM      5  N   UNL     1       2.834  14.638  20.871  0.00  0.00    +0.000 N 
ATOM      6  N   UNL     1       1.707  14.274  21.584  0.00  0.00    +0.000 NA
ATOM      7  C   UNL     1       0.882  13.420  21.050  0.00  0.00    +0.000 A 
ENDROOT
BRANCH   1  11
ATOM      8  C   UNL     1      -1.708  10.456  17.463  0.00  0.00    +0.000 A 
ATOM      9  C   UNL     1      -0.552   9.885  17.995  0.00  0.00    +0.000 A 
ATOM     10  C   UNL     1       0.364  10.665  18.702  0.00  0.00    +0.000 A 
ATOM     11  C   UNL     1       0.112  12.026  18.923  0.00  0.00    +0.000 A 
ATOM     12  C   UNL     1      -1.031  12.604  18.358  0.00  0.00    +0.000 A 
ATOM     13  C   UNL     1      -1.933  11.823  17.623  0.00  0.00    +0.000 A 
BRANCH   8  15
ATOM     14  C   UNL     1      -2.899   9.994  15.470  0.00  0.00    +0.000 C 
ATOM     15  O   UNL     1      -2.516   9.590  16.779  0.00  0.00    +0.000 OA
ENDBRANCH   8  15
ENDBRANCH   1  11
BRANCH   7  16
ATOM     16  C   UNL     1      -0.312  13.018  21.867  0.00  0.00    +0.000 A 
ATOM     17  C   UNL     1      -0.430  11.691  22.304  0.00  0.00    +0.000 A 
ATOM     18  C   UNL     1      -1.548  11.282  23.043  0.00  0.00    +0.000 A 
ATOM     19  C   UNL     1      -2.550  12.192  23.380  0.00  0.00    +0.000 A 
ATOM     20  C   UNL     1      -2.460  13.501  22.915  0.00  0.00    +0.000 A 
ATOM     21  C   UNL     1      -1.366  13.895  22.139  0.00  0.00    +0.000 A 
BRANCH  19  22
ATOM     22  O   UNL     1      -3.594  11.691  24.106  0.00  0.00    +0.000 OA
ATOM     23  C   UNL     1      -4.588  12.635  24.494  0.00  0.00    +0.000 C 
ENDBRANCH  19  22
ENDBRANCH   7  16
BRANCH   5  24
ATOM     24  C   UNL     1       3.724  15.610  21.492  0.00  0.00    +0.000 C 
BRANCH  24  25
ATOM     25  C   UNL     1       4.519  15.026  22.641  0.00  0.00    +0.000 A 
ATOM     26  C   UNL     1       4.585  15.687  23.876  0.00  0.00    +0.000 A 
ATOM     27  C   UNL     1       5.320  15.144  24.933  0.00  0.00    +0.000 A 
ATOM     28  C   UNL     1       6.001  13.934  24.767  0.00  0.00    +0.000 A 
ATOM     29 CL   UNL     1       6.888  13.319  26.115  0.00  0.00    +0.000 Cl
ATOM     30  C   UNL     1       5.947  13.271  23.537  0.00  0.00    +0.000 A 
ATOM     31 CL   UNL     1       6.757  11.770  23.259  0.00  0.00    +0.000 Cl
ATOM     32  C   UNL     1       5.213  13.819  22.479  0.00  0.00    +0.000 A 
ENDBRANCH  24  25
ENDBRANCH   5  24
TORSDOF 6
ENDMDL
MODEL 8
REMARK VINA RESULT:      -6.7      5.012      8.740
REMARK  Name = 
REMARK  8 active torsions:
REMARK  status: ('A' for Active; 'I' for Inactive)
REMARK    1  A    between atoms: C_1  and  O_2
REMARK    2  A    between atoms: O_2  and  C_3
REMARK    3  A    between atoms: C_6  and  C_7
REMARK    4  A    between atoms: N_11  and  C_12
REMARK    5  A    between atoms: C_12  and  C_13
REMARK    6  A    between atoms: C_22  and  C_23
REMARK    7  A    between atoms: C_26  and  O_27
REMARK    8  A    between atoms: O_27  and  C_28
REMARK                            x       y       z     vdW  Elec       q    Type
REMARK                         _______ _______ _______ _____ _____    ______ ____
ROOT
ATOM      1  C   UNL     1      -4.251  11.945  19.394  0.00  0.00    +0.000 A 
ATOM      2  C   UNL     1      -5.564  11.935  19.640  0.00  0.00    +0.000 A 
ATOM      3  C   UNL     1      -6.105  12.308  20.954  0.00  0.00    +0.000 A 
ATOM      4  O   UNL     1      -7.324  12.279  21.121  0.00  0.00    +0.000 OA
ATOM      5  N   UNL     1      -5.179  12.628  21.928  0.00  0.00    +0.000 N 
ATOM      6  N   UNL     1      -3.816  12.692  21.705  0.00  0.00    +0.000 NA
ATOM      7  C   UNL     1      -3.366  12.399  20.519  0.00  0.00    +0.000 A 
ENDROOT
BRANCH   1  11
ATOM      8  C   UNL     1      -3.018  10.417  15.591  0.00  0.00    +0.000 A 
ATOM      9  C   UNL     1      -4.064  11.337  15.676  0.00  0.00    +0.000 A 
ATOM     10  C   UNL     1      -4.480  11.824  16.915  0.00  0.00    +0.000 A 
ATOM     11  C   UNL     1      -3.823  11.428  18.088  0.00  0.00    +0.000 A 
ATOM     12  C   UNL     1      -2.797  10.479  18.002  0.00  0.00    +0.000 A 
ATOM     13  C   UNL     1      -2.403   9.969  16.759  0.00  0.00    +0.000 A 
BRANCH   8  15
ATOM     14  C   UNL     1      -3.800   9.976  13.401  0.00  0.00    +0.000 C 
ATOM     15  O   UNL     1      -2.717  10.005  14.322  0.00  0.00    +0.000 OA
ENDBRANCH   8  15
ENDBRANCH   1  11
BRANCH   7  16
ATOM     16  C   UNL     1      -1.885  12.515  20.300  0.00  0.00    +0.000 A 
ATOM     17  C   UNL     1      -1.381  13.601  19.572  0.00  0.00    +0.000 A 
ATOM     18  C   UNL     1      -0.006  13.718  19.328  0.00  0.00    +0.000 A 
ATOM     19  C   UNL     1       0.889  12.772  19.829  0.00  0.00    +0.000 A 
ATOM     20  C   UNL     1       0.393  11.669  20.517  0.00  0.00    +0.000 A 
ATOM     21  C   UNL     1      -0.985  11.531  20.720  0.00  0.00    +0.000 A 
BRANCH  19  22
ATOM     22  O   UNL     1       2.208  12.982  19.537  0.00  0.00    +0.000 OA
ATOM     23  C   UNL     1       2.607  12.651  18.210  0.00  0.00    +0.000 C 
ENDBRANCH  19  22
ENDBRANCH   7  16
BRANCH   5  24
ATOM     24  C   UNL     1      -5.644  12.944  23.273  0.00  0.00    +0.000 C 
BRANCH  24  25
ATOM     25  C   UNL     1      -5.050  14.229  23.811  0.00  0.00    +0.000 A 
ATOM     26  C   UNL     1      -5.691  15.458  23.602  0.00  0.00    +0.000 A 
ATOM     27  C   UNL     1      -5.138  16.641  24.100  0.00  0.00    +0.000 A 
ATOM     28  C   UNL     1      -3.936  16.609  24.813  0.00  0.00    +0.000 A 
ATOM     29 CL   UNL     1      -3.311  18.107  25.402  0.00  0.00    +0.000 Cl
ATOM     30  C   UNL     1      -3.284  15.389  25.021  0.00  0.00    +0.000 A 
ATOM     31 CL   UNL     1      -1.799  15.270  25.896  0.00  0.00    +0.000 Cl
ATOM     32  C   UNL     1      -3.838  14.207  24.516  0.00  0.00    +0.000 A 
ENDBRANCH  24  25
ENDBRANCH   5  24
TORSDOF 6
ENDMDL
MODEL 9
REMARK VINA RESULT:      -6.6      4.506      7.126
REMARK  Name = 
REMARK  8 active torsions:
REMARK  status: ('A' for Active; 'I' for Inactive)
REMARK    1  A    between atoms: C_1  and  O_2
REMARK    2  A    between atoms: O_2  and  C_3
REMARK    3  A    between atoms: C_6  and  C_7
REMARK    4  A    between atoms: N_11  and  C_12
REMARK    5  A    between atoms: C_12  and  C_13
REMARK    6  A    between atoms: C_22  and  C_23
REMARK    7  A    between atoms: C_26  and  O_27
REMARK    8  A    between atoms: O_27  and  C_28
REMARK                            x       y       z     vdW  Elec       q    Type
REMARK                         _______ _______ _______ _____ _____    ______ ____
ROOT
ATOM      1  C   UNL     1       0.949  12.787  19.607  0.00  0.00    +0.000 A 
ATOM      2  C   UNL     1       2.078  13.085  18.956  0.00  0.00    +0.000 A 
ATOM      3  C   UNL     1       3.095  13.968  19.543  0.00  0.00    +0.000 A 
ATOM      4  O   UNL     1       4.113  14.206  18.895  0.00  0.00    +0.000 OA
ATOM      5  N   UNL     1       2.800  14.504  20.782  0.00  0.00    +0.000 N 
ATOM      6  N   UNL     1       1.665  14.189  21.507  0.00  0.00    +0.000 NA
ATOM      7  C   UNL     1       0.801  13.368  20.983  0.00  0.00    +0.000 A 
ENDROOT
BRANCH   1  11
ATOM      8  C   UNL     1      -1.944  10.504  17.431  0.00  0.00    +0.000 A 
ATOM      9  C   UNL     1      -0.809   9.886  17.955  0.00  0.00    +0.000 A 
ATOM     10  C   UNL     1       0.145  10.630  18.651  0.00  0.00    +0.000 A 
ATOM     11  C   UNL     1      -0.047  12.001  18.868  0.00  0.00    +0.000 A 
ATOM     12  C   UNL     1      -1.170  12.624  18.311  0.00  0.00    +0.000 A 
ATOM     13  C   UNL     1      -2.110  11.880  17.587  0.00  0.00    +0.000 A 
BRANCH   8  15
ATOM     14  C   UNL     1      -2.998   9.964  15.381  0.00  0.00    +0.000 C 
ATOM     15  O   UNL     1      -2.794   9.670  16.758  0.00  0.00    +0.000 OA
ENDBRANCH   8  15
ENDBRANCH   1  11
BRANCH   7  16
ATOM     16  C   UNL     1      -0.402  13.019  21.812  0.00  0.00    +0.000 A 
ATOM     17  C   UNL     1      -0.527  11.721  22.327  0.00  0.00    +0.000 A 
ATOM     18  C   UNL     1      -1.653  11.360  23.080  0.00  0.00    +0.000 A 
ATOM     19  C   UNL     1      -2.655  12.291  23.354  0.00  0.00    +0.000 A 
ATOM     20  C   UNL     1      -2.557  13.569  22.812  0.00  0.00    +0.000 A 
ATOM     21  C   UNL     1      -1.455  13.914  22.023  0.00  0.00    +0.000 A 
BRANCH  19  22
ATOM     22  O   UNL     1      -3.706  11.836  24.100  0.00  0.00    +0.000 OA
ATOM     23  C   UNL     1      -4.846  12.690  24.146  0.00  0.00    +0.000 C 
ENDBRANCH  19  22
ENDBRANCH   7  16
BRANCH   5  24
ATOM     24  C   UNL     1       3.735  15.440  21.391  0.00  0.00    +0.000 C 
BRANCH  24  25
ATOM     25  C   UNL     1       5.044  14.788  21.784  0.00  0.00    +0.000 A 
ATOM     26  C   UNL     1       6.264  15.283  21.301  0.00  0.00    +0.000 A 
ATOM     27  C   UNL     1       7.469  14.677  21.666  0.00  0.00    +0.000 A 
ATOM     28  C   UNL     1       7.469  13.568  22.517  0.00  0.00    +0.000 A 
ATOM     29 CL   UNL     1       8.995  12.870  22.929  0.00  0.00    +0.000 Cl
ATOM     30  C   UNL     1       6.258  13.062  22.998  0.00  0.00    +0.000 A 
ATOM     31 CL   UNL     1       6.178  11.698  24.056  0.00  0.00    +0.000 Cl
ATOM     32  C   UNL     1       5.052  13.668  22.627  0.00  0.00    +0.000 A 
ENDBRANCH  24  25
ENDBRANCH   5  24
TORSDOF 6
ENDMDL
