MODEL 1
REMARK VINA RESULT:      -7.8      0.000      0.000
REMARK  Name = 
REMARK  7 active torsions:
REMARK  status: ('A' for Active; 'I' for Inactive)
REMARK    1  A    between atoms: N_1  and  C_2
REMARK    2  A    between atoms: C_5  and  C_6
REMARK    3  A    between atoms: C_9  and  C_10
REMARK    4  A    between atoms: C_10  and  O_12
REMARK    5  A    between atoms: C_16  and  O_17
REMARK    6  A    between atoms: O_17  and  C_18
REMARK    7  A    between atoms: C_18  and  C_19
REMARK                            x       y       z     vdW  Elec       q    Type
REMARK                         _______ _______ _______ _____ _____    ______ ____
ROOT
ATOM      1  C   UNL     1       4.265   3.310  19.627  0.00  0.00    +0.000 A 
ATOM      2  N   UNL     1       2.957   3.430  19.920  0.00  0.00    +0.000 NA
ATOM      3  C   UNL     1       2.394   4.654  19.788  0.00  0.00    +0.000 A 
ATOM      4  C   UNL     1       3.062   5.815  19.401  0.00  0.00    +0.000 A 
ATOM      5  C   UNL     1       4.426   5.651  19.120  0.00  0.00    +0.000 A 
ATOM      6  C   UNL     1       5.043   4.390  19.191  0.00  0.00    +0.000 A 
ENDROOT
BRANCH   4   7
ATOM      7  C   UNL     1       2.346   7.105  19.255  0.00  0.00    +0.000 A 
ATOM      8  C   UNL     1       2.274   7.762  18.010  0.00  0.00    +0.000 A 
ATOM      9  C   UNL     1       1.665   9.015  17.875  0.00  0.00    +0.000 A 
ATOM     10  C   UNL     1       1.094   9.647  18.982  0.00  0.00    +0.000 A 
ATOM     11  C   UNL     1       1.119   9.000  20.221  0.00  0.00    +0.000 A 
ATOM     12  C   UNL     1       1.747   7.750  20.351  0.00  0.00    +0.000 A 
BRANCH  10  13
ATOM     13  C   UNL     1       0.441  10.967  18.765  0.00  0.00    +0.000 C 
ATOM     14  O   UNL     1       0.860  11.996  19.261  0.00  0.00    +0.000 OA
BRANCH  13  15
ATOM     15  O   UNL     1      -0.675  10.920  18.008  0.00  0.00    +0.000 OA
ATOM     16  H   UNL     1      -1.474  11.303  18.409  0.00  0.00    +0.000 HD
ENDBRANCH  13  15
ENDBRANCH  10  13
ENDBRANCH   4   7
BRANCH   1  17
ATOM     17  N   UNL     1       4.742   2.016  19.816  0.00  0.00    +0.000 N 
ATOM     18  H   UNL     1       3.924   1.453  20.039  0.00  0.00    +0.000 HD
ATOM     19  H   UNL     1       5.413   1.996  20.576  0.00  0.00    +0.000 HD
ENDBRANCH   1  17
BRANCH   6  20
ATOM     20  O   UNL     1       6.364   4.389  18.802  0.00  0.00    +0.000 OA
BRANCH  20  21
ATOM     21  C   UNL     1       6.623   4.779  17.450  0.00  0.00    +0.000 C 
BRANCH  21  22
ATOM     22  C   UNL     1       7.466   6.047  17.387  0.00  0.00    +0.000 C 
ATOM     23  C   UNL     1       6.785   7.403  17.048  0.00  0.00    +0.000 C 
ATOM     24  C   UNL     1       7.942   8.067  17.830  0.00  0.00    +0.000 C 
ATOM     25  C   UNL     1       8.012   6.758  18.658  0.00  0.00    +0.000 C 
ENDBRANCH  21  22
ENDBRANCH  20  21
ENDBRANCH   6  20
TORSDOF 7
ENDMDL
MODEL 2
REMARK VINA RESULT:      -7.7      1.076      2.063
REMARK  Name = 
REMARK  7 active torsions:
REMARK  status: ('A' for Active; 'I' for Inactive)
REMARK    1  A    between atoms: N_1  and  C_2
REMARK    2  A    between atoms: C_5  and  C_6
REMARK    3  A    between atoms: C_9  and  C_10
REMARK    4  A    between atoms: C_10  and  O_12
REMARK    5  A    between atoms: C_16  and  O_17
REMARK    6  A    between atoms: O_17  and  C_18
REMARK    7  A    between atoms: C_18  and  C_19
REMARK                            x       y       z     vdW  Elec       q    Type
REMARK                         _______ _______ _______ _____ _____    ______ ____
ROOT
ATOM      1  C   UNL     1       4.410   3.267  19.536  0.00  0.00    +0.000 A 
ATOM      2  N   UNL     1       3.097   3.379  19.807  0.00  0.00    +0.000 NA
ATOM      3  C   UNL     1       2.538   4.608  19.704  0.00  0.00    +0.000 A 
ATOM      4  C   UNL     1       3.215   5.780  19.369  0.00  0.00    +0.000 A 
ATOM      5  C   UNL     1       4.584   5.622  19.110  0.00  0.00    +0.000 A 
ATOM      6  C   UNL     1       5.198   4.359  19.151  0.00  0.00    +0.000 A 
ENDROOT
BRANCH   4   7
ATOM      7  C   UNL     1       2.503   7.075  19.251  0.00  0.00    +0.000 A 
ATOM      8  C   UNL     1       1.879   7.669  20.366  0.00  0.00    +0.000 A 
ATOM      9  C   UNL     1       1.142   8.853  20.251  0.00  0.00    +0.000 A 
ATOM     10  C   UNL     1       1.018   9.492  19.016  0.00  0.00    +0.000 A 
ATOM     11  C   UNL     1       1.659   8.944  17.901  0.00  0.00    +0.000 A 
ATOM     12  C   UNL     1       2.382   7.746  18.021  0.00  0.00    +0.000 A 
BRANCH  10  13
ATOM     13  C   UNL     1       0.241  10.760  18.968  0.00  0.00    +0.000 C 
ATOM     14  O   UNL     1       0.772  11.855  18.954  0.00  0.00    +0.000 OA
BRANCH  13  15
ATOM     15  O   UNL     1      -1.099  10.596  18.982  0.00  0.00    +0.000 OA
ATOM     16  H   UNL     1      -1.466  10.186  19.784  0.00  0.00    +0.000 HD
ENDBRANCH  13  15
ENDBRANCH  10  13
ENDBRANCH   4   7
BRANCH   1  17
ATOM     17  N   UNL     1       4.882   1.966  19.692  0.00  0.00    +0.000 N 
ATOM     18  H   UNL     1       4.095   1.431  20.051  0.00  0.00    +0.000 HD
ATOM     19  H   UNL     1       5.659   1.949  20.344  0.00  0.00    +0.000 HD
ENDBRANCH   1  17
BRANCH   6  20
ATOM     20  O   UNL     1       6.526   4.368  18.789  0.00  0.00    +0.000 OA
BRANCH  20  21
ATOM     21  C   UNL     1       6.860   5.156  17.642  0.00  0.00    +0.000 C 
BRANCH  21  22
ATOM     22  C   UNL     1       6.683   4.365  16.351  0.00  0.00    +0.000 C 
ATOM     23  C   UNL     1       5.267   4.230  15.725  0.00  0.00    +0.000 C 
ATOM     24  C   UNL     1       5.991   4.042  14.371  0.00  0.00    +0.000 C 
ATOM     25  C   UNL     1       7.130   4.910  14.964  0.00  0.00    +0.000 C 
ENDBRANCH  21  22
ENDBRANCH  20  21
ENDBRANCH   6  20
TORSDOF 7
ENDMDL
MODEL 3
REMARK VINA RESULT:      -7.6      2.395      4.191
REMARK  Name = 
REMARK  7 active torsions:
REMARK  status: ('A' for Active; 'I' for Inactive)
REMARK    1  A    between atoms: N_1  and  C_2
REMARK    2  A    between atoms: C_5  and  C_6
REMARK    3  A    between atoms: C_9  and  C_10
REMARK    4  A    between atoms: C_10  and  O_12
REMARK    5  A    between atoms: C_16  and  O_17
REMARK    6  A    between atoms: O_17  and  C_18
REMARK    7  A    between atoms: C_18  and  C_19
REMARK                            x       y       z     vdW  Elec       q    Type
REMARK                         _______ _______ _______ _____ _____    ______ ____
ROOT
ATOM      1  C   UNL     1       4.972   4.467  16.791  0.00  0.00    +0.000 A 
ATOM      2  N   UNL     1       5.281   5.764  16.607  0.00  0.00    +0.000 NA
ATOM      3  C   UNL     1       4.469   6.689  17.170  0.00  0.00    +0.000 A 
ATOM      4  C   UNL     1       3.317   6.415  17.906  0.00  0.00    +0.000 A 
ATOM      5  C   UNL     1       3.021   5.053  18.062  0.00  0.00    +0.000 A 
ATOM      6  C   UNL     1       3.863   4.055  17.541  0.00  0.00    +0.000 A 
ENDROOT
BRANCH   4   7
ATOM      7  C   UNL     1       2.511   7.502  18.512  0.00  0.00    +0.000 A 
ATOM      8  C   UNL     1       2.163   8.650  17.773  0.00  0.00    +0.000 A 
ATOM      9  C   UNL     1       1.466   9.715  18.356  0.00  0.00    +0.000 A 
ATOM     10  C   UNL     1       1.082   9.659  19.697  0.00  0.00    +0.000 A 
ATOM     11  C   UNL     1       1.382   8.515  20.442  0.00  0.00    +0.000 A 
ATOM     12  C   UNL     1       2.096   7.458  19.854  0.00  0.00    +0.000 A 
BRANCH  10  13
ATOM     13  C   UNL     1       0.322  10.814  20.248  0.00  0.00    +0.000 C 
ATOM     14  O   UNL     1      -0.674  11.261  19.712  0.00  0.00    +0.000 OA
BRANCH  13  15
ATOM     15  O   UNL     1       0.854  11.349  21.368  0.00  0.00    +0.000 OA
ATOM     16  H   UNL     1       1.271  12.221  21.263  0.00  0.00    +0.000 HD
ENDBRANCH  13  15
ENDBRANCH  10  13
ENDBRANCH   4   7
BRANCH   1  17
ATOM     17  N   UNL     1       5.860   3.606  16.152  0.00  0.00    +0.000 N 
ATOM     18  H   UNL     1       6.056   4.036  15.251  0.00  0.00    +0.000 HD
ATOM     19  H   UNL     1       5.439   2.691  16.033  0.00  0.00    +0.000 HD
ENDBRANCH   1  17
BRANCH   6  20
ATOM     20  O   UNL     1       3.474   2.772  17.856  0.00  0.00    +0.000 OA
BRANCH  20  21
ATOM     21  C   UNL     1       2.073   2.573  18.066  0.00  0.00    +0.000 C 
BRANCH  21  22
ATOM     22  C   UNL     1       1.762   2.290  19.531  0.00  0.00    +0.000 C 
ATOM     23  C   UNL     1       2.865   2.514  20.604  0.00  0.00    +0.000 C 
ATOM     24  C   UNL     1       1.707   2.727  21.606  0.00  0.00    +0.000 C 
ATOM     25  C   UNL     1       0.875   3.227  20.399  0.00  0.00    +0.000 C 
ENDBRANCH  21  22
ENDBRANCH  20  21
ENDBRANCH   6  20
TORSDOF 7
ENDMDL
MODEL 4
REMARK VINA RESULT:      -7.6      2.450      4.270
REMARK  Name = 
REMARK  7 active torsions:
REMARK  status: ('A' for Active; 'I' for Inactive)
REMARK    1  A    between atoms: N_1  and  C_2
REMARK    2  A    between atoms: C_5  and  C_6
REMARK    3  A    between atoms: C_9  and  C_10
REMARK    4  A    between atoms: C_10  and  O_12
REMARK    5  A    between atoms: C_16  and  O_17
REMARK    6  A    between atoms: O_17  and  C_18
REMARK    7  A    between atoms: C_18  and  C_19
REMARK                            x       y       z     vdW  Elec       q    Type
REMARK                         _______ _______ _______ _____ _____    ______ ____
ROOT
ATOM      1  C   UNL     1       4.959   4.422  16.681  0.00  0.00    +0.000 A 
ATOM      2  N   UNL     1       5.264   5.714  16.460  0.00  0.00    +0.000 NA
ATOM      3  C   UNL     1       4.495   6.652  17.060  0.00  0.00    +0.000 A 
ATOM      4  C   UNL     1       3.389   6.396  17.869  0.00  0.00    +0.000 A 
ATOM      5  C   UNL     1       3.094   5.038  18.061  0.00  0.00    +0.000 A 
ATOM      6  C   UNL     1       3.896   4.028  17.503  0.00  0.00    +0.000 A 
ENDROOT
BRANCH   4   7
ATOM      7  C   UNL     1       2.629   7.497  18.509  0.00  0.00    +0.000 A 
ATOM      8  C   UNL     1       2.185   7.398  19.843  0.00  0.00    +0.000 A 
ATOM      9  C   UNL     1       1.404   8.398  20.433  0.00  0.00    +0.000 A 
ATOM     10  C   UNL     1       1.052   9.539  19.710  0.00  0.00    +0.000 A 
ATOM     11  C   UNL     1       1.511   9.680  18.397  0.00  0.00    +0.000 A 
ATOM     12  C   UNL     1       2.280   8.664  17.806  0.00  0.00    +0.000 A 
BRANCH  10  13
ATOM     13  C   UNL     1       0.241  10.576  20.405  0.00  0.00    +0.000 C 
ATOM     14  O   UNL     1       0.654  11.200  21.364  0.00  0.00    +0.000 OA
BRANCH  13  15
ATOM     15  O   UNL     1      -1.005  10.735  19.909  0.00  0.00    +0.000 OA
ATOM     16  H   UNL     1      -1.283  11.654  19.753  0.00  0.00    +0.000 HD
ENDBRANCH  13  15
ENDBRANCH  10  13
ENDBRANCH   4   7
BRANCH   1  17
ATOM     17  N   UNL     1       5.800   3.546  16.000  0.00  0.00    +0.000 N 
ATOM     18  H   UNL     1       5.753   2.668  16.512  0.00  0.00    +0.000 HD
ATOM     19  H   UNL     1       6.748   3.907  15.987  0.00  0.00    +0.000 HD
ENDBRANCH   1  17
BRANCH   6  20
ATOM     20  O   UNL     1       3.519   2.752  17.858  0.00  0.00    +0.000 OA
BRANCH  20  21
ATOM     21  C   UNL     1       2.115   2.536  18.031  0.00  0.00    +0.000 C 
BRANCH  21  22
ATOM     22  C   UNL     1       1.767   2.268  19.491  0.00  0.00    +0.000 C 
ATOM     23  C   UNL     1       2.847   2.488  20.588  0.00  0.00    +0.000 C 
ATOM     24  C   UNL     1       1.669   2.723  21.561  0.00  0.00    +0.000 C 
ATOM     25  C   UNL     1       0.871   3.223  20.330  0.00  0.00    +0.000 C 
ENDBRANCH  21  22
ENDBRANCH  20  21
ENDBRANCH   6  20
TORSDOF 7
ENDMDL
MODEL 5
REMARK VINA RESULT:      -7.6      1.043      1.705
REMARK  Name = 
REMARK  7 active torsions:
REMARK  status: ('A' for Active; 'I' for Inactive)
REMARK    1  A    between atoms: N_1  and  C_2
REMARK    2  A    between atoms: C_5  and  C_6
REMARK    3  A    between atoms: C_9  and  C_10
REMARK    4  A    between atoms: C_10  and  O_12
REMARK    5  A    between atoms: C_16  and  O_17
REMARK    6  A    between atoms: O_17  and  C_18
REMARK    7  A    between atoms: C_18  and  C_19
REMARK                            x       y       z     vdW  Elec       q    Type
REMARK                         _______ _______ _______ _____ _____    ______ ____
ROOT
ATOM      1  C   UNL     1       4.438   3.279  19.550  0.00  0.00    +0.000 A 
ATOM      2  N   UNL     1       3.159   3.391  19.952  0.00  0.00    +0.000 NA
ATOM      3  C   UNL     1       2.576   4.609  19.858  0.00  0.00    +0.000 A 
ATOM      4  C   UNL     1       3.198   5.771  19.404  0.00  0.00    +0.000 A 
ATOM      5  C   UNL     1       4.535   5.615  19.010  0.00  0.00    +0.000 A 
ATOM      6  C   UNL     1       5.166   4.360  19.039  0.00  0.00    +0.000 A 
ENDROOT
BRANCH   4   7
ATOM      7  C   UNL     1       2.460   7.054  19.307  0.00  0.00    +0.000 A 
ATOM      8  C   UNL     1       2.459   7.806  18.115  0.00  0.00    +0.000 A 
ATOM      9  C   UNL     1       1.828   9.053  18.035  0.00  0.00    +0.000 A 
ATOM     10  C   UNL     1       1.164   9.583  19.143  0.00  0.00    +0.000 A 
ATOM     11  C   UNL     1       1.119   8.840  20.326  0.00  0.00    +0.000 A 
ATOM     12  C   UNL     1       1.769   7.597  20.404  0.00  0.00    +0.000 A 
BRANCH  10  13
ATOM     13  C   UNL     1       0.494  10.902  18.983  0.00  0.00    +0.000 C 
ATOM     14  O   UNL     1       1.103  11.918  18.706  0.00  0.00    +0.000 OA
BRANCH  13  15
ATOM     15  O   UNL     1      -0.836  10.883  19.211  0.00  0.00    +0.000 OA
ATOM     16  H   UNL     1      -1.192  10.053  19.572  0.00  0.00    +0.000 HD
ENDBRANCH  13  15
ENDBRANCH  10  13
ENDBRANCH   4   7
BRANCH   1  17
ATOM     17  N   UNL     1       4.942   1.990  19.711  0.00  0.00    +0.000 N 
ATOM     18  H   UNL     1       5.351   1.971  20.642  0.00  0.00    +0.000 HD
ATOM     19  H   UNL     1       5.642   1.795  19.004  0.00  0.00    +0.000 HD
ENDBRANCH   1  17
BRANCH   6  20
ATOM     20  O   UNL     1       6.449   4.366  18.540  0.00  0.00    +0.000 OA
BRANCH  20  21
ATOM     21  C   UNL     1       6.839   5.539  17.820  0.00  0.00    +0.000 C 
BRANCH  21  22
ATOM     22  C   UNL     1       6.672   5.353  16.316  0.00  0.00    +0.000 C 
ATOM     23  C   UNL     1       6.363   3.938  15.750  0.00  0.00    +0.000 C 
ATOM     24  C   UNL     1       5.702   4.668  14.558  0.00  0.00    +0.000 C 
ATOM     25  C   UNL     1       5.404   5.822  15.547  0.00  0.00    +0.000 C 
ENDBRANCH  21  22
ENDBRANCH  20  21
ENDBRANCH   6  20
TORSDOF 7
ENDMDL
MODEL 6
REMARK VINA RESULT:      -7.5      0.374      1.090
REMARK  Name = 
REMARK  7 active torsions:
REMARK  status: ('A' for Active; 'I' for Inactive)
REMARK    1  A    between atoms: N_1  and  C_2
REMARK    2  A    between atoms: C_5  and  C_6
REMARK    3  A    between atoms: C_9  and  C_10
REMARK    4  A    between atoms: C_10  and  O_12
REMARK    5  A    between atoms: C_16  and  O_17
REMARK    6  A    between atoms: O_17  and  C_18
REMARK    7  A    between atoms: C_18  and  C_19
REMARK                            x       y       z     vdW  Elec       q    Type
REMARK                         _______ _______ _______ _____ _____    ______ ____
ROOT
ATOM      1  C   UNL     1       3.872   3.354  19.905  0.00  0.00    +0.000 A 
ATOM      2  N   UNL     1       2.607   3.617  20.283  0.00  0.00    +0.000 NA
ATOM      3  C   UNL     1       2.147   4.877  20.102  0.00  0.00    +0.000 A 
ATOM      4  C   UNL     1       2.883   5.941  19.582  0.00  0.00    +0.000 A 
ATOM      5  C   UNL     1       4.201   5.629  19.216  0.00  0.00    +0.000 A 
ATOM      6  C   UNL     1       4.706   4.323  19.334  0.00  0.00    +0.000 A 
ENDROOT
BRANCH   4   7
ATOM      7  C   UNL     1       2.276   7.280  19.393  0.00  0.00    +0.000 A 
ATOM      8  C   UNL     1       1.602   7.930  20.446  0.00  0.00    +0.000 A 
ATOM      9  C   UNL     1       0.961   9.161  20.259  0.00  0.00    +0.000 A 
ATOM     10  C   UNL     1       0.987   9.789  19.012  0.00  0.00    +0.000 A 
ATOM     11  C   UNL     1       1.681   9.183  17.961  0.00  0.00    +0.000 A 
ATOM     12  C   UNL     1       2.306   7.940  18.152  0.00  0.00    +0.000 A 
BRANCH  10  13
ATOM     13  C   UNL     1       0.307  11.107  18.887  0.00  0.00    +0.000 C 
ATOM     14  O   UNL     1       0.520  12.030  19.650  0.00  0.00    +0.000 OA
BRANCH  13  15
ATOM     15  O   UNL     1      -0.593  11.178  17.884  0.00  0.00    +0.000 OA
ATOM     16  H   UNL     1      -1.516  10.994  18.129  0.00  0.00    +0.000 HD
ENDBRANCH  13  15
ENDBRANCH  10  13
ENDBRANCH   4   7
BRANCH   1  17
ATOM     17  N   UNL     1       4.245   2.036  20.155  0.00  0.00    +0.000 N 
ATOM     18  H   UNL     1       3.789   1.784  21.029  0.00  0.00    +0.000 HD
ATOM     19  H   UNL     1       5.253   1.965  20.239  0.00  0.00    +0.000 HD
ENDBRANCH   1  17
BRANCH   6  20
ATOM     20  O   UNL     1       5.986   4.171  18.852  0.00  0.00    +0.000 OA
BRANCH  20  21
ATOM     21  C   UNL     1       6.221   4.657  17.527  0.00  0.00    +0.000 C 
BRANCH  21  22
ATOM     22  C   UNL     1       7.267   5.766  17.516  0.00  0.00    +0.000 C 
ATOM     23  C   UNL     1       6.830   7.227  17.215  0.00  0.00    +0.000 C 
ATOM     24  C   UNL     1       8.069   7.661  18.033  0.00  0.00    +0.000 C 
ATOM     25  C   UNL     1       7.903   6.334  18.816  0.00  0.00    +0.000 C 
ENDBRANCH  21  22
ENDBRANCH  20  21
ENDBRANCH   6  20
TORSDOF 7
ENDMDL
MODEL 7
REMARK VINA RESULT:      -7.3      0.950      1.506
REMARK  Name = 
REMARK  7 active torsions:
REMARK  status: ('A' for Active; 'I' for Inactive)
REMARK    1  A    between atoms: N_1  and  C_2
REMARK    2  A    between atoms: C_5  and  C_6
REMARK    3  A    between atoms: C_9  and  C_10
REMARK    4  A    between atoms: C_10  and  O_12
REMARK    5  A    between atoms: C_16  and  O_17
REMARK    6  A    between atoms: O_17  and  C_18
REMARK    7  A    between atoms: C_18  and  C_19
REMARK                            x       y       z     vdW  Elec       q    Type
REMARK                         _______ _______ _______ _____ _____    ______ ____
ROOT
ATOM      1  C   UNL     1       3.757   3.338  18.203  0.00  0.00    +0.000 A 
ATOM      2  N   UNL     1       2.442   3.591  18.068  0.00  0.00    +0.000 NA
ATOM      3  C   UNL     1       2.017   4.851  18.319  0.00  0.00    +0.000 A 
ATOM      4  C   UNL     1       2.822   5.910  18.736  0.00  0.00    +0.000 A 
ATOM      5  C   UNL     1       4.183   5.601  18.880  0.00  0.00    +0.000 A 
ATOM      6  C   UNL     1       4.680   4.322  18.579  0.00  0.00    +0.000 A 
ENDROOT
BRANCH   4   7
ATOM      7  C   UNL     1       2.264   7.266  18.953  0.00  0.00    +0.000 A 
ATOM      8  C   UNL     1       1.764   7.656  20.212  0.00  0.00    +0.000 A 
ATOM      9  C   UNL     1       1.168   8.907  20.410  0.00  0.00    +0.000 A 
ATOM     10  C   UNL     1       1.065   9.816  19.355  0.00  0.00    +0.000 A 
ATOM     11  C   UNL     1       1.586   9.469  18.106  0.00  0.00    +0.000 A 
ATOM     12  C   UNL     1       2.168   8.205  17.911  0.00  0.00    +0.000 A 
BRANCH  10  13
ATOM     13  C   UNL     1       0.441  11.137  19.639  0.00  0.00    +0.000 C 
ATOM     14  O   UNL     1      -0.748  11.269  19.858  0.00  0.00    +0.000 OA
BRANCH  13  15
ATOM     15  O   UNL     1       1.297  12.180  19.592  0.00  0.00    +0.000 OA
ATOM     16  H   UNL     1       2.178  12.021  19.972  0.00  0.00    +0.000 HD
ENDBRANCH  13  15
ENDBRANCH  10  13
ENDBRANCH   4   7
BRANCH   1  17
ATOM     17  N   UNL     1       4.079   2.009  17.941  0.00  0.00    +0.000 N 
ATOM     18  H   UNL     1       3.405   1.697  17.245  0.00  0.00    +0.000 HD
ATOM     19  H   UNL     1       4.007   1.455  18.787  0.00  0.00    +0.000 HD
ENDBRANCH   1  17
BRANCH   6  20
ATOM     20  O   UNL     1       6.048   4.210  18.693  0.00  0.00    +0.000 OA
BRANCH  20  21
ATOM     21  C   UNL     1       6.796   4.396  17.487  0.00  0.00    +0.000 C 
BRANCH  21  22
ATOM     22  C   UNL     1       7.577   5.705  17.511  0.00  0.00    +0.000 C 
ATOM     23  C   UNL     1       6.875   7.022  17.076  0.00  0.00    +0.000 C 
ATOM     24  C   UNL     1       7.895   7.749  17.985  0.00  0.00    +0.000 C 
ATOM     25  C   UNL     1       7.928   6.450  18.830  0.00  0.00    +0.000 C 
ENDBRANCH  21  22
ENDBRANCH  20  21
ENDBRANCH   6  20
TORSDOF 7
ENDMDL
MODEL 8
REMARK VINA RESULT:      -7.2      4.731      6.693
REMARK  Name = 
REMARK  7 active torsions:
REMARK  status: ('A' for Active; 'I' for Inactive)
REMARK    1  A    between atoms: N_1  and  C_2
REMARK    2  A    between atoms: C_5  and  C_6
REMARK    3  A    between atoms: C_9  and  C_10
REMARK    4  A    between atoms: C_10  and  O_12
REMARK    5  A    between atoms: C_16  and  O_17
REMARK    6  A    between atoms: O_17  and  C_18
REMARK    7  A    between atoms: C_18  and  C_19
REMARK                            x       y       z     vdW  Elec       q    Type
REMARK                         _______ _______ _______ _____ _____    ______ ____
ROOT
ATOM      1  C   UNL     1       7.260   5.174  14.674  0.00  0.00    +0.000 A 
ATOM      2  N   UNL     1       7.233   5.885  15.817  0.00  0.00    +0.000 NA
ATOM      3  C   UNL     1       6.303   5.551  16.742  0.00  0.00    +0.000 A 
ATOM      4  C   UNL     1       5.346   4.546  16.603  0.00  0.00    +0.000 A 
ATOM      5  C   UNL     1       5.398   3.839  15.392  0.00  0.00    +0.000 A 
ATOM      6  C   UNL     1       6.379   4.114  14.424  0.00  0.00    +0.000 A 
ENDROOT
BRANCH   4   7
ATOM      7  C   UNL     1       4.390   4.235  17.692  0.00  0.00    +0.000 A 
ATOM      8  C   UNL     1       4.273   5.070  18.821  0.00  0.00    +0.000 A 
ATOM      9  C   UNL     1       3.427   4.747  19.888  0.00  0.00    +0.000 A 
ATOM     10  C   UNL     1       2.658   3.583  19.854  0.00  0.00    +0.000 A 
ATOM     11  C   UNL     1       2.727   2.756  18.729  0.00  0.00    +0.000 A 
ATOM     12  C   UNL     1       3.591   3.078  17.670  0.00  0.00    +0.000 A 
BRANCH  10  13
ATOM     13  C   UNL     1       1.762   3.311  21.011  0.00  0.00    +0.000 C 
ATOM     14  O   UNL     1       2.167   3.257  22.157  0.00  0.00    +0.000 OA
BRANCH  13  15
ATOM     15  O   UNL     1       0.472   3.090  20.678  0.00  0.00    +0.000 OA
ATOM     16  H   UNL     1       0.205   2.157  20.618  0.00  0.00    +0.000 HD
ENDBRANCH  13  15
ENDBRANCH  10  13
ENDBRANCH   4   7
BRANCH   1  17
ATOM     17  N   UNL     1       8.240   5.615  13.789  0.00  0.00    +0.000 N 
ATOM     18  H   UNL     1       8.899   6.146  14.354  0.00  0.00    +0.000 HD
ATOM     19  H   UNL     1       7.827   6.199  13.070  0.00  0.00    +0.000 HD
ENDBRANCH   1  17
BRANCH   6  20
ATOM     20  O   UNL     1       6.342   3.274  13.334  0.00  0.00    +0.000 OA
BRANCH  20  21
ATOM     21  C   UNL     1       5.926   3.865  12.099  0.00  0.00    +0.000 C 
BRANCH  21  22
ATOM     22  C   UNL     1       4.518   3.426  11.716  0.00  0.00    +0.000 C 
ATOM     23  C   UNL     1       3.763   4.178  10.584  0.00  0.00    +0.000 C 
ATOM     24  C   UNL     1       2.975   2.864  10.372  0.00  0.00    +0.000 C 
ATOM     25  C   UNL     1       4.233   2.131  10.902  0.00  0.00    +0.000 C 
ENDBRANCH  21  22
ENDBRANCH  20  21
ENDBRANCH   6  20
TORSDOF 7
ENDMDL
MODEL 9
REMARK VINA RESULT:      -7.1      2.050      2.753
REMARK  Name = 
REMARK  7 active torsions:
REMARK  status: ('A' for Active; 'I' for Inactive)
REMARK    1  A    between atoms: N_1  and  C_2
REMARK    2  A    between atoms: C_5  and  C_6
REMARK    3  A    between atoms: C_9  and  C_10
REMARK    4  A    between atoms: C_10  and  O_12
REMARK    5  A    between atoms: C_16  and  O_17
REMARK    6  A    between atoms: O_17  and  C_18
REMARK    7  A    between atoms: C_18  and  C_19
REMARK                            x       y       z     vdW  Elec       q    Type
REMARK                         _______ _______ _______ _____ _____    ______ ____
ROOT
ATOM      1  C   UNL     1       3.987   3.441  18.901  0.00  0.00    +0.000 A 
ATOM      2  N   UNL     1       3.458   3.932  20.037  0.00  0.00    +0.000 NA
ATOM      3  C   UNL     1       2.960   5.190  20.005  0.00  0.00    +0.000 A 
ATOM      4  C   UNL     1       2.973   6.038  18.898  0.00  0.00    +0.000 A 
ATOM      5  C   UNL     1       3.546   5.495  17.739  0.00  0.00    +0.000 A 
ATOM      6  C   UNL     1       4.028   4.175  17.709  0.00  0.00    +0.000 A 
ENDROOT
BRANCH   4   7
ATOM      7  C   UNL     1       2.370   7.392  18.956  0.00  0.00    +0.000 A 
ATOM      8  C   UNL     1       1.745   7.862  20.128  0.00  0.00    +0.000 A 
ATOM      9  C   UNL     1       1.108   9.108  20.170  0.00  0.00    +0.000 A 
ATOM     10  C   UNL     1       1.089   9.932  19.043  0.00  0.00    +0.000 A 
ATOM     11  C   UNL     1       1.735   9.505  17.879  0.00  0.00    +0.000 A 
ATOM     12  C   UNL     1       2.357   8.246  17.839  0.00  0.00    +0.000 A 
BRANCH  10  13
ATOM     13  C   UNL     1       0.417  11.254  19.163  0.00  0.00    +0.000 C 
ATOM     14  O   UNL     1       0.479  11.933  20.171  0.00  0.00    +0.000 OA
BRANCH  13  15
ATOM     15  O   UNL     1      -0.300  11.617  18.078  0.00  0.00    +0.000 OA
ATOM     16  H   UNL     1      -0.886  10.933  17.710  0.00  0.00    +0.000 HD
ENDBRANCH  13  15
ENDBRANCH  10  13
ENDBRANCH   4   7
BRANCH   1  17
ATOM     17  N   UNL     1       4.486   2.150  19.054  0.00  0.00    +0.000 N 
ATOM     18  H   UNL     1       3.673   1.538  19.028  0.00  0.00    +0.000 HD
ATOM     19  H   UNL     1       4.975   2.064  19.938  0.00  0.00    +0.000 HD
ENDBRANCH   1  17
BRANCH   6  20
ATOM     20  O   UNL     1       4.480   3.770  16.473  0.00  0.00    +0.000 OA
BRANCH  20  21
ATOM     21  C   UNL     1       5.311   4.701  15.772  0.00  0.00    +0.000 C 
BRANCH  21  22
ATOM     22  C   UNL     1       6.051   4.031  14.620  0.00  0.00    +0.000 C 
ATOM     23  C   UNL     1       5.310   3.781  13.277  0.00  0.00    +0.000 C 
ATOM     24  C   UNL     1       6.706   3.827  12.613  0.00  0.00    +0.000 C 
ATOM     25  C   UNL     1       7.125   4.768  13.770  0.00  0.00    +0.000 C 
ENDBRANCH  21  22
ENDBRANCH  20  21
ENDBRANCH   6  20
TORSDOF 7
ENDMDL
