MODEL 1
REMARK VINA RESULT:      -6.5      0.000      0.000
REMARK  Name = 
REMARK  3 active torsions:
REMARK  status: ('A' for Active; 'I' for Inactive)
REMARK    1  A    between atoms: C_1  and  C_2
REMARK    2  A    between atoms: C_5  and  C_6
REMARK    3  A    between atoms: C_12  and  N_13
REMARK                            x       y       z     vdW  Elec       q    Type
REMARK                         _______ _______ _______ _____ _____    ______ ____
ROOT
ATOM      1  C   UNL     1      10.330  13.742  18.014  0.00  0.00    +0.000 A 
ATOM      2  C   UNL     1      11.619  13.692  17.448  0.00  0.00    +0.000 A 
ATOM      3  N   UNL     1      12.333  14.745  17.002  0.00  0.00    +0.000 NA
ATOM      4  C   UNL     1      11.724  15.936  17.106  0.00  0.00    +0.000 A 
ATOM      5  C   UNL     1      10.443  16.130  17.626  0.00  0.00    +0.000 A 
ATOM      6 CL   UNL     1       9.879  17.771  17.498  0.00  0.00    +0.000 Cl
ATOM      7  C   UNL     1       9.691  15.026  18.138  0.00  0.00    +0.000 A 
ENDROOT
BRANCH   7   8
ATOM      8  N   UNL     1       8.447  15.177  18.790  0.00  0.00    +0.000 N 
ATOM      9  C   UNL     1       7.197  14.755  18.144  0.00  0.00    +0.000 C 
ATOM     10  C   UNL     1       6.092  15.755  18.466  0.00  0.00    +0.000 C 
ATOM     11  C   UNL     1       5.925  15.984  19.977  0.00  0.00    +0.000 C 
ATOM     12  C   UNL     1       5.175  14.845  20.686  0.00  0.00    +0.000 C 
ATOM     13  C   UNL     1       3.713  15.219  20.559  0.00  0.00    +0.000 C 
ATOM     14  N   UNL     1       3.729  16.642  20.512  0.00  0.00    +0.000 N 
ATOM     15  C   UNL     1       4.972  17.153  20.172  0.00  0.00    +0.000 C 
ATOM     16  O   UNL     1       5.213  18.345  20.001  0.00  0.00    +0.000 OA
ATOM     17  C   UNL     1       7.266  16.263  20.651  0.00  0.00    +0.000 C 
ATOM     18  C   UNL     1       8.355  15.253  20.258  0.00  0.00    +0.000 C 
ATOM     19  H   UNL     1       2.933  17.263  20.596  0.00  0.00    +0.000 HD
ENDBRANCH   7   8
BRANCH   1  24
ATOM     20  C   UNL     1       8.206   9.079  17.982  0.00  0.00    +0.000 C 
ATOM     21  C   UNL     1       8.811  10.308  18.575  0.00  0.00    +0.000 A 
ATOM     22  C   UNL     1       9.320  10.412  19.852  0.00  0.00    +0.000 A 
ATOM     23  S   UNL     1      10.144  11.887  20.105  0.00  0.00    +0.000 S 
ATOM     24  C   UNL     1       9.784  12.457  18.518  0.00  0.00    +0.000 A 
ATOM     25  C   UNL     1       8.939  11.563  17.891  0.00  0.00    +0.000 A 
ENDBRANCH   1  24
TORSDOF 2
ENDMDL
MODEL 2
REMARK VINA RESULT:      -6.0      6.887      9.919
REMARK  Name = 
REMARK  3 active torsions:
REMARK  status: ('A' for Active; 'I' for Inactive)
REMARK    1  A    between atoms: C_1  and  C_2
REMARK    2  A    between atoms: C_5  and  C_6
REMARK    3  A    between atoms: C_12  and  N_13
REMARK                            x       y       z     vdW  Elec       q    Type
REMARK                         _______ _______ _______ _____ _____    ______ ____
ROOT
ATOM      1  C   UNL     1      -1.458  12.350  22.381  0.00  0.00    +0.000 A 
ATOM      2  C   UNL     1      -2.561  12.031  23.198  0.00  0.00    +0.000 A 
ATOM      3  N   UNL     1      -3.367  12.912  23.825  0.00  0.00    +0.000 NA
ATOM      4  C   UNL     1      -3.052  14.204  23.647  0.00  0.00    +0.000 A 
ATOM      5  C   UNL     1      -1.977  14.662  22.882  0.00  0.00    +0.000 A 
ATOM      6 CL   UNL     1      -1.750  16.385  22.959  0.00  0.00    +0.000 Cl
ATOM      7  C   UNL     1      -1.139  13.740  22.181  0.00  0.00    +0.000 A 
ENDROOT
BRANCH   7   8
ATOM      8  N   UNL     1      -0.118  14.147  21.293  0.00  0.00    +0.000 N 
ATOM      9  C   UNL     1      -0.434  14.858  20.048  0.00  0.00    +0.000 C 
ATOM     10  C   UNL     1       0.491  14.376  18.936  0.00  0.00    +0.000 C 
ATOM     11  C   UNL     1       1.976  14.487  19.314  0.00  0.00    +0.000 C 
ATOM     12  C   UNL     1       2.522  15.921  19.221  0.00  0.00    +0.000 C 
ATOM     13  C   UNL     1       2.971  16.063  17.782  0.00  0.00    +0.000 C 
ATOM     14  N   UNL     1       3.335  14.737  17.408  0.00  0.00    +0.000 N 
ATOM     15  C   UNL     1       2.788  13.775  18.243  0.00  0.00    +0.000 C 
ATOM     16  O   UNL     1       2.902  12.564  18.079  0.00  0.00    +0.000 OA
ATOM     17  C   UNL     1       2.249  13.881  20.688  0.00  0.00    +0.000 C 
ATOM     18  C   UNL     1       1.262  14.365  21.762  0.00  0.00    +0.000 C 
ATOM     19  H   UNL     1       3.839  14.457  16.575  0.00  0.00    +0.000 HD
ENDBRANCH   7   8
BRANCH   1  24
ATOM     20  C   UNL     1       1.032   9.646  18.811  0.00  0.00    +0.000 C 
ATOM     21  C   UNL     1       0.370   9.905  20.123  0.00  0.00    +0.000 A 
ATOM     22  C   UNL     1       0.516   9.135  21.257  0.00  0.00    +0.000 A 
ATOM     23  S   UNL     1      -0.196   9.861  22.631  0.00  0.00    +0.000 S 
ATOM     24  C   UNL     1      -0.777  11.207  21.722  0.00  0.00    +0.000 A 
ATOM     25  C   UNL     1      -0.524  10.998  20.381  0.00  0.00    +0.000 A 
ENDBRANCH   1  24
TORSDOF 2
ENDMDL
MODEL 3
REMARK VINA RESULT:      -6.0      9.848     11.989
REMARK  Name = 
REMARK  3 active torsions:
REMARK  status: ('A' for Active; 'I' for Inactive)
REMARK    1  A    between atoms: C_1  and  C_2
REMARK    2  A    between atoms: C_5  and  C_6
REMARK    3  A    between atoms: C_12  and  N_13
REMARK                            x       y       z     vdW  Elec       q    Type
REMARK                         _______ _______ _______ _____ _____    ______ ____
ROOT
ATOM      1  C   UNL     1      -2.101  10.930  18.293  0.00  0.00    +0.000 A 
ATOM      2  C   UNL     1      -1.804  10.342  17.047  0.00  0.00    +0.000 A 
ATOM      3  N   UNL     1      -2.590  10.361  15.952  0.00  0.00    +0.000 NA
ATOM      4  C   UNL     1      -3.765  10.992  16.101  0.00  0.00    +0.000 A 
ATOM      5  C   UNL     1      -4.196  11.600  17.281  0.00  0.00    +0.000 A 
ATOM      6 CL   UNL     1      -5.823  12.211  17.197  0.00  0.00    +0.000 Cl
ATOM      7  C   UNL     1      -3.356  11.620  18.438  0.00  0.00    +0.000 A 
ENDROOT
BRANCH   7   8
ATOM      8  N   UNL     1      -3.683  12.325  19.617  0.00  0.00    +0.000 N 
ATOM      9  C   UNL     1      -2.752  13.298  20.202  0.00  0.00    +0.000 C 
ATOM     10  C   UNL     1      -2.795  13.196  21.723  0.00  0.00    +0.000 C 
ATOM     11  C   UNL     1      -4.219  13.335  22.284  0.00  0.00    +0.000 C 
ATOM     12  C   UNL     1      -4.723  14.787  22.313  0.00  0.00    +0.000 C 
ATOM     13  C   UNL     1      -4.243  15.327  23.644  0.00  0.00    +0.000 C 
ATOM     14  N   UNL     1      -4.201  14.177  24.482  0.00  0.00    +0.000 N 
ATOM     15  C   UNL     1      -4.176  12.991  23.765  0.00  0.00    +0.000 C 
ATOM     16  O   UNL     1      -4.069  11.875  24.266  0.00  0.00    +0.000 OA
ATOM     17  C   UNL     1      -5.200  12.426  21.548  0.00  0.00    +0.000 C 
ATOM     18  C   UNL     1      -5.085  12.535  20.020  0.00  0.00    +0.000 C 
ATOM     19  H   UNL     1      -4.089  14.161  25.490  0.00  0.00    +0.000 HD
ENDBRANCH   7   8
BRANCH   1  24
ATOM     20  C   UNL     1       0.793   9.073  22.092  0.00  0.00    +0.000 C 
ATOM     21  C   UNL     1       0.337  10.062  21.072  0.00  0.00    +0.000 A 
ATOM     22  C   UNL     1       1.073  11.133  20.613  0.00  0.00    +0.000 A 
ATOM     23  S   UNL     1       0.333  11.907  19.280  0.00  0.00    +0.000 S 
ATOM     24  C   UNL     1      -1.034  10.856  19.324  0.00  0.00    +0.000 A 
ATOM     25  C   UNL     1      -0.946  10.034  20.430  0.00  0.00    +0.000 A 
ENDBRANCH   1  24
TORSDOF 2
ENDMDL
MODEL 4
REMARK VINA RESULT:      -5.9      8.126     10.426
REMARK  Name = 
REMARK  3 active torsions:
REMARK  status: ('A' for Active; 'I' for Inactive)
REMARK    1  A    between atoms: C_1  and  C_2
REMARK    2  A    between atoms: C_5  and  C_6
REMARK    3  A    between atoms: C_12  and  N_13
REMARK                            x       y       z     vdW  Elec       q    Type
REMARK                         _______ _______ _______ _____ _____    ______ ____
ROOT
ATOM      1  C   UNL     1       0.919  12.545  19.277  0.00  0.00    +0.000 A 
ATOM      2  C   UNL     1       1.751  11.803  18.416  0.00  0.00    +0.000 A 
ATOM      3  N   UNL     1       1.848  10.459  18.368  0.00  0.00    +0.000 NA
ATOM      4  C   UNL     1       1.080   9.798  19.247  0.00  0.00    +0.000 A 
ATOM      5  C   UNL     1       0.226  10.404  20.170  0.00  0.00    +0.000 A 
ATOM      6 CL   UNL     1      -0.528   9.281  21.264  0.00  0.00    +0.000 Cl
ATOM      7  C   UNL     1       0.085  11.826  20.205  0.00  0.00    +0.000 A 
ENDROOT
BRANCH   7   8
ATOM      8  N   UNL     1      -0.853  12.488  21.027  0.00  0.00    +0.000 N 
ATOM      9  C   UNL     1      -0.421  13.269  22.193  0.00  0.00    +0.000 C 
ATOM     10  C   UNL     1      -1.409  13.069  23.337  0.00  0.00    +0.000 C 
ATOM     11  C   UNL     1      -2.857  13.377  22.927  0.00  0.00    +0.000 C 
ATOM     12  C   UNL     1      -3.162  14.883  22.856  0.00  0.00    +0.000 C 
ATOM     13  C   UNL     1      -3.578  15.251  24.265  0.00  0.00    +0.000 C 
ATOM     14  N   UNL     1      -4.152  14.052  24.774  0.00  0.00    +0.000 N 
ATOM     15  C   UNL     1      -3.771  12.928  24.057  0.00  0.00    +0.000 C 
ATOM     16  O   UNL     1      -4.081  11.777  24.349  0.00  0.00    +0.000 OA
ATOM     17  C   UNL     1      -3.229  12.678  21.622  0.00  0.00    +0.000 C 
ATOM     18  C   UNL     1      -2.180  12.876  20.518  0.00  0.00    +0.000 C 
ATOM     19  H   UNL     1      -4.692  13.949  25.626  0.00  0.00    +0.000 HD
ENDBRANCH   7   8
BRANCH   1  24
ATOM     20  C   UNL     1      -0.835  17.266  18.333  0.00  0.00    +0.000 C 
ATOM     21  C   UNL     1       0.176  16.216  18.653  0.00  0.00    +0.000 A 
ATOM     22  C   UNL     1       1.427  16.447  19.182  0.00  0.00    +0.000 A 
ATOM     23  S   UNL     1       2.217  15.003  19.640  0.00  0.00    +0.000 S 
ATOM     24  C   UNL     1       0.917  14.017  19.080  0.00  0.00    +0.000 A 
ATOM     25  C   UNL     1      -0.018  14.810  18.445  0.00  0.00    +0.000 A 
ENDBRANCH   1  24
TORSDOF 2
ENDMDL
MODEL 5
REMARK VINA RESULT:      -5.9     13.728     14.998
REMARK  Name = 
REMARK  3 active torsions:
REMARK  status: ('A' for Active; 'I' for Inactive)
REMARK    1  A    between atoms: C_1  and  C_2
REMARK    2  A    between atoms: C_5  and  C_6
REMARK    3  A    between atoms: C_12  and  N_13
REMARK                            x       y       z     vdW  Elec       q    Type
REMARK                         _______ _______ _______ _____ _____    ______ ____
ROOT
ATOM      1  C   UNL     1      -6.823  14.302  17.795  0.00  0.00    +0.000 A 
ATOM      2  C   UNL     1      -7.131  14.448  16.428  0.00  0.00    +0.000 A 
ATOM      3  N   UNL     1      -7.338  15.612  15.780  0.00  0.00    +0.000 NA
ATOM      4  C   UNL     1      -7.252  16.714  16.541  0.00  0.00    +0.000 A 
ATOM      5  C   UNL     1      -6.974  16.716  17.909  0.00  0.00    +0.000 A 
ATOM      6 CL   UNL     1      -7.068  18.293  18.638  0.00  0.00    +0.000 Cl
ATOM      7  C   UNL     1      -6.714  15.491  18.600  0.00  0.00    +0.000 A 
ENDROOT
BRANCH   7   8
ATOM      8  N   UNL     1      -6.306  15.439  19.951  0.00  0.00    +0.000 N 
ATOM      9  C   UNL     1      -4.938  15.804  20.344  0.00  0.00    +0.000 C 
ATOM     10  C   UNL     1      -4.457  14.867  21.446  0.00  0.00    +0.000 C 
ATOM     11  C   UNL     1      -5.419  14.820  22.643  0.00  0.00    +0.000 C 
ATOM     12  C   UNL     1      -5.308  16.048  23.563  0.00  0.00    +0.000 C 
ATOM     13  C   UNL     1      -4.213  15.686  24.544  0.00  0.00    +0.000 C 
ATOM     14  N   UNL     1      -4.293  14.267  24.635  0.00  0.00    +0.000 N 
ATOM     15  C   UNL     1      -4.968  13.699  23.566  0.00  0.00    +0.000 C 
ATOM     16  O   UNL     1      -5.102  12.491  23.389  0.00  0.00    +0.000 OA
ATOM     17  C   UNL     1      -6.861  14.600  22.192  0.00  0.00    +0.000 C 
ATOM     18  C   UNL     1      -7.281  15.538  21.051  0.00  0.00    +0.000 C 
ATOM     19  H   UNL     1      -3.834  13.674  25.317  0.00  0.00    +0.000 HD
ENDBRANCH   7   8
BRANCH   1  24
ATOM     20  C   UNL     1      -7.451   9.827  20.210  0.00  0.00    +0.000 C 
ATOM     21  C   UNL     1      -6.773  10.836  19.346  0.00  0.00    +0.000 A 
ATOM     22  C   UNL     1      -5.759  10.569  18.451  0.00  0.00    +0.000 A 
ATOM     23  S   UNL     1      -5.390  11.916  17.466  0.00  0.00    +0.000 S 
ATOM     24  C   UNL     1      -6.546  12.919  18.261  0.00  0.00    +0.000 A 
ATOM     25  C   UNL     1      -7.083  12.237  19.334  0.00  0.00    +0.000 A 
ENDBRANCH   1  24
TORSDOF 2
ENDMDL
MODEL 6
REMARK VINA RESULT:      -5.9      7.192     10.113
REMARK  Name = 
REMARK  3 active torsions:
REMARK  status: ('A' for Active; 'I' for Inactive)
REMARK    1  A    between atoms: C_1  and  C_2
REMARK    2  A    between atoms: C_5  and  C_6
REMARK    3  A    between atoms: C_12  and  N_13
REMARK                            x       y       z     vdW  Elec       q    Type
REMARK                         _______ _______ _______ _____ _____    ______ ____
ROOT
ATOM      1  C   UNL     1       0.667  12.912  19.154  0.00  0.00    +0.000 A 
ATOM      2  C   UNL     1       1.869  12.960  18.419  0.00  0.00    +0.000 A 
ATOM      3  N   UNL     1       2.970  13.667  18.742  0.00  0.00    +0.000 NA
ATOM      4  C   UNL     1       2.874  14.395  19.865  0.00  0.00    +0.000 A 
ATOM      5  C   UNL     1       1.740  14.457  20.678  0.00  0.00    +0.000 A 
ATOM      6 CL   UNL     1       1.880  15.597  21.985  0.00  0.00    +0.000 Cl
ATOM      7  C   UNL     1       0.579  13.682  20.367  0.00  0.00    +0.000 A 
ENDROOT
BRANCH   7   8
ATOM      8  N   UNL     1      -0.547  13.606  21.215  0.00  0.00    +0.000 N 
ATOM      9  C   UNL     1      -0.631  12.595  22.276  0.00  0.00    +0.000 C 
ATOM     10  C   UNL     1      -2.060  12.074  22.376  0.00  0.00    +0.000 C 
ATOM     11  C   UNL     1      -3.088  13.203  22.558  0.00  0.00    +0.000 C 
ATOM     12  C   UNL     1      -3.133  13.760  23.990  0.00  0.00    +0.000 C 
ATOM     13  C   UNL     1      -4.120  12.867  24.712  0.00  0.00    +0.000 C 
ATOM     14  N   UNL     1      -5.011  12.445  23.684  0.00  0.00    +0.000 N 
ATOM     15  C   UNL     1      -4.477  12.601  22.414  0.00  0.00    +0.000 C 
ATOM     16  O   UNL     1      -5.028  12.244  21.378  0.00  0.00    +0.000 OA
ATOM     17  C   UNL     1      -2.876  14.320  21.540  0.00  0.00    +0.000 C 
ATOM     18  C   UNL     1      -1.412  14.776  21.447  0.00  0.00    +0.000 C 
ATOM     19  H   UNL     1      -5.900  11.973  23.804  0.00  0.00    +0.000 HD
ENDBRANCH   7   8
BRANCH   1  24
ATOM     20  C   UNL     1      -3.556  11.279  16.753  0.00  0.00    +0.000 C 
ATOM     21  C   UNL     1      -2.305  11.167  17.560  0.00  0.00    +0.000 A 
ATOM     22  C   UNL     1      -1.607  10.001  17.793  0.00  0.00    +0.000 A 
ATOM     23  S   UNL     1      -0.102  10.285  18.552  0.00  0.00    +0.000 S 
ATOM     24  C   UNL     1      -0.376  11.986  18.644  0.00  0.00    +0.000 A 
ATOM     25  C   UNL     1      -1.657  12.267  18.214  0.00  0.00    +0.000 A 
ENDBRANCH   1  24
TORSDOF 2
ENDMDL
MODEL 7
REMARK VINA RESULT:      -5.9     11.030     12.982
REMARK  Name = 
REMARK  3 active torsions:
REMARK  status: ('A' for Active; 'I' for Inactive)
REMARK    1  A    between atoms: C_1  and  C_2
REMARK    2  A    between atoms: C_5  and  C_6
REMARK    3  A    between atoms: C_12  and  N_13
REMARK                            x       y       z     vdW  Elec       q    Type
REMARK                         _______ _______ _______ _____ _____    ______ ____
ROOT
ATOM      1  C   UNL     1      -3.687  11.650  18.665  0.00  0.00    +0.000 A 
ATOM      2  C   UNL     1      -3.495  10.764  17.587  0.00  0.00    +0.000 A 
ATOM      3  N   UNL     1      -2.327  10.199  17.221  0.00  0.00    +0.000 NA
ATOM      4  C   UNL     1      -1.265  10.546  17.963  0.00  0.00    +0.000 A 
ATOM      5  C   UNL     1      -1.306  11.427  19.046  0.00  0.00    +0.000 A 
ATOM      6 CL   UNL     1       0.260  11.782  19.716  0.00  0.00    +0.000 Cl
ATOM      7  C   UNL     1      -2.545  12.003  19.468  0.00  0.00    +0.000 A 
ENDROOT
BRANCH   7   8
ATOM      8  N   UNL     1      -2.670  12.799  20.628  0.00  0.00    +0.000 N 
ATOM      9  C   UNL     1      -2.458  12.229  21.965  0.00  0.00    +0.000 C 
ATOM     10  C   UNL     1      -3.464  12.828  22.941  0.00  0.00    +0.000 C 
ATOM     11  C   UNL     1      -3.439  14.364  22.947  0.00  0.00    +0.000 C 
ATOM     12  C   UNL     1      -2.251  14.950  23.728  0.00  0.00    +0.000 C 
ATOM     13  C   UNL     1      -2.746  15.043  25.156  0.00  0.00    +0.000 C 
ATOM     14  N   UNL     1      -4.150  15.231  25.016  0.00  0.00    +0.000 N 
ATOM     15  C   UNL     1      -4.621  14.851  23.769  0.00  0.00    +0.000 C 
ATOM     16  O   UNL     1      -5.804  14.856  23.440  0.00  0.00    +0.000 OA
ATOM     17  C   UNL     1      -3.498  14.929  21.530  0.00  0.00    +0.000 C 
ATOM     18  C   UNL     1      -2.495  14.261  20.577  0.00  0.00    +0.000 C 
ATOM     19  H   UNL     1      -4.803  15.502  25.743  0.00  0.00    +0.000 HD
ENDBRANCH   7   8
BRANCH   1  24
ATOM     20  C   UNL     1      -7.838  13.198  21.239  0.00  0.00    +0.000 C 
ATOM     21  C   UNL     1      -7.035  12.781  20.052  0.00  0.00    +0.000 A 
ATOM     22  C   UNL     1      -7.385  12.996  18.736  0.00  0.00    +0.000 A 
ATOM     23  S   UNL     1      -6.122  12.601  17.656  0.00  0.00    +0.000 S 
ATOM     24  C   UNL     1      -5.087  12.069  18.929  0.00  0.00    +0.000 A 
ATOM     25  C   UNL     1      -5.782  12.087  20.122  0.00  0.00    +0.000 A 
ENDBRANCH   1  24
TORSDOF 2
ENDMDL
MODEL 8
REMARK VINA RESULT:      -5.9      7.180     10.936
REMARK  Name = 
REMARK  3 active torsions:
REMARK  status: ('A' for Active; 'I' for Inactive)
REMARK    1  A    between atoms: C_1  and  C_2
REMARK    2  A    between atoms: C_5  and  C_6
REMARK    3  A    between atoms: C_12  and  N_13
REMARK                            x       y       z     vdW  Elec       q    Type
REMARK                         _______ _______ _______ _____ _____    ______ ____
ROOT
ATOM      1  C   UNL     1      -3.158  12.565  20.032  0.00  0.00    +0.000 A 
ATOM      2  C   UNL     1      -4.516  12.526  20.409  0.00  0.00    +0.000 A 
ATOM      3  N   UNL     1      -5.105  13.306  21.337  0.00  0.00    +0.000 NA
ATOM      4  C   UNL     1      -4.292  14.178  21.953  0.00  0.00    +0.000 A 
ATOM      5  C   UNL     1      -2.926  14.310  21.695  0.00  0.00    +0.000 A 
ATOM      6 CL   UNL     1      -2.120  15.429  22.754  0.00  0.00    +0.000 Cl
ATOM      7  C   UNL     1      -2.297  13.515  20.685  0.00  0.00    +0.000 A 
ENDROOT
BRANCH   7   8
ATOM      8  N   UNL     1      -0.952  13.691  20.292  0.00  0.00    +0.000 N 
ATOM      9  C   UNL     1      -0.590  14.642  19.233  0.00  0.00    +0.000 C 
ATOM     10  C   UNL     1       0.528  14.053  18.379  0.00  0.00    +0.000 C 
ATOM     11  C   UNL     1       1.741  13.614  19.215  0.00  0.00    +0.000 C 
ATOM     12  C   UNL     1       2.628  14.787  19.663  0.00  0.00    +0.000 C 
ATOM     13  C   UNL     1       3.601  14.984  18.519  0.00  0.00    +0.000 C 
ATOM     14  N   UNL     1       3.727  13.683  17.954  0.00  0.00    +0.000 N 
ATOM     15  C   UNL     1       2.683  12.841  18.305  0.00  0.00    +0.000 C 
ATOM     16  O   UNL     1       2.538  11.697  17.884  0.00  0.00    +0.000 OA
ATOM     17  C   UNL     1       1.318  12.757  20.405  0.00  0.00    +0.000 C 
ATOM     18  C   UNL     1       0.160  13.374  21.205  0.00  0.00    +0.000 C 
ATOM     19  H   UNL     1       4.417  13.378  17.276  0.00  0.00    +0.000 HD
ENDBRANCH   7   8
BRANCH   1  24
ATOM     20  C   UNL     1      -2.852  10.628  15.298  0.00  0.00    +0.000 C 
ATOM     21  C   UNL     1      -2.577  10.726  16.761  0.00  0.00    +0.000 A 
ATOM     22  C   UNL     1      -1.542  10.101  17.423  0.00  0.00    +0.000 A 
ATOM     23  S   UNL     1      -1.393  10.627  19.042  0.00  0.00    +0.000 S 
ATOM     24  C   UNL     1      -2.762  11.669  18.916  0.00  0.00    +0.000 A 
ATOM     25  C   UNL     1      -3.366  11.486  17.688  0.00  0.00    +0.000 A 
ENDBRANCH   1  24
TORSDOF 2
ENDMDL
MODEL 9
REMARK VINA RESULT:      -5.8      2.462      2.962
REMARK  Name = 
REMARK  3 active torsions:
REMARK  status: ('A' for Active; 'I' for Inactive)
REMARK    1  A    between atoms: C_1  and  C_2
REMARK    2  A    between atoms: C_5  and  C_6
REMARK    3  A    between atoms: C_12  and  N_13
REMARK                            x       y       z     vdW  Elec       q    Type
REMARK                         _______ _______ _______ _____ _____    ______ ____
ROOT
ATOM      1  C   UNL     1      10.109  14.520  18.294  0.00  0.00    +0.000 A 
ATOM      2  C   UNL     1      10.965  14.736  17.196  0.00  0.00    +0.000 A 
ATOM      3  N   UNL     1      11.332  15.935  16.698  0.00  0.00    +0.000 NA
ATOM      4  C   UNL     1      10.801  16.999  17.319  0.00  0.00    +0.000 A 
ATOM      5  C   UNL     1       9.925  16.932  18.404  0.00  0.00    +0.000 A 
ATOM      6 CL   UNL     1       9.303  18.480  18.897  0.00  0.00    +0.000 Cl
ATOM      7  C   UNL     1       9.559  15.668  18.966  0.00  0.00    +0.000 A 
ENDROOT
BRANCH   7   8
ATOM      8  N   UNL     1       8.780  15.541  20.137  0.00  0.00    +0.000 N 
ATOM      9  C   UNL     1       9.375  15.728  21.467  0.00  0.00    +0.000 C 
ATOM     10  C   UNL     1       8.776  14.720  22.441  0.00  0.00    +0.000 C 
ATOM     11  C   UNL     1       7.240  14.768  22.471  0.00  0.00    +0.000 C 
ATOM     12  C   UNL     1       6.685  15.956  23.275  0.00  0.00    +0.000 C 
ATOM     13  C   UNL     1       6.607  15.445  24.699  0.00  0.00    +0.000 C 
ATOM     14  N   UNL     1       6.396  14.045  24.546  0.00  0.00    +0.000 N 
ATOM     15  C   UNL     1       6.748  13.583  23.287  0.00  0.00    +0.000 C 
ATOM     16  O   UNL     1       6.721  12.405  22.944  0.00  0.00    +0.000 OA
ATOM     17  C   UNL     1       6.652  14.734  21.063  0.00  0.00    +0.000 C 
ATOM     18  C   UNL     1       7.320  15.738  20.111  0.00  0.00    +0.000 C 
ATOM     19  H   UNL     1       6.127  13.387  25.269  0.00  0.00    +0.000 HD
ENDBRANCH   7   8
BRANCH   1  24
ATOM     20  C   UNL     1       8.555   9.638  18.204  0.00  0.00    +0.000 C 
ATOM     21  C   UNL     1       9.246  10.849  18.736  0.00  0.00    +0.000 A 
ATOM     22  C   UNL     1      10.225  10.847  19.707  0.00  0.00    +0.000 A 
ATOM     23  S   UNL     1      10.955  12.381  19.895  0.00  0.00    +0.000 S 
ATOM     24  C   UNL     1       9.928  13.107  18.715  0.00  0.00    +0.000 A 
ATOM     25  C   UNL     1       8.977  12.192  18.310  0.00  0.00    +0.000 A 
ENDBRANCH   1  24
TORSDOF 2
ENDMDL
