MODEL 1
REMARK VINA RESULT:      -7.6      0.000      0.000
REMARK  Name = 
REMARK  5 active torsions:
REMARK  status: ('A' for Active; 'I' for Inactive)
REMARK    1  A    between atoms: C_1  and  C_2
REMARK    2  A    between atoms: C_2  and  O_3
REMARK    3  A    between atoms: O_3  and  C_4
REMARK    4  A    between atoms: C_4  and  C_6
REMARK    5  A    between atoms: C_9  and  C_10
REMARK                            x       y       z     vdW  Elec       q    Type
REMARK                         _______ _______ _______ _____ _____    ______ ____
ROOT
ATOM      1  C   UNL     1       2.488   7.548  18.648  0.00  0.00    +0.000 A 
ATOM      2  C   UNL     1       1.792   8.627  18.127  0.00  0.00    +0.000 A 
ATOM      3  C   UNL     1       1.102   9.470  18.988  0.00  0.00    +0.000 A 
ATOM      4  C   UNL     1       1.085   9.220  20.353  0.00  0.00    +0.000 A 
ATOM      5  N   UNL     1       0.354  10.091  21.157  0.00  0.00    +0.000 N 
ATOM      6  C   UNL     1      -0.123   9.581  22.448  0.00  0.00    +0.000 C 
ATOM      7  C   UNL     1      -1.210  10.560  22.938  0.00  0.00    +0.000 C 
ATOM      8  O   UNL     1      -0.700  11.904  23.064  0.00  0.00    +0.000 OA
ATOM      9  C   UNL     1      -0.162  12.371  21.812  0.00  0.00    +0.000 C 
ATOM     10  C   UNL     1       0.942  11.435  21.296  0.00  0.00    +0.000 C 
ATOM     11  N   UNL     1       1.714   8.128  20.829  0.00  0.00    +0.000 NA
ATOM     12  N   UNL     1       2.432   7.294  19.974  0.00  0.00    +0.000 NA
ENDROOT
BRANCH   1  16
ATOM     13  C   UNL     1       4.939   4.978  16.207  0.00  0.00    +0.000 A 
ATOM     14  C   UNL     1       5.162   6.354  16.230  0.00  0.00    +0.000 A 
ATOM     15  C   UNL     1       4.367   7.179  17.026  0.00  0.00    +0.000 A 
ATOM     16  C   UNL     1       3.322   6.660  17.817  0.00  0.00    +0.000 A 
ATOM     17  C   UNL     1       3.119   5.270  17.785  0.00  0.00    +0.000 A 
ATOM     18  C   UNL     1       3.915   4.434  16.989  0.00  0.00    +0.000 A 
BRANCH  13  19
ATOM     19  C   UNL     1       5.772   4.172  15.284  0.00  0.00    +0.000 C 
ATOM     20  O   UNL     1       6.867   3.721  15.580  0.00  0.00    +0.000 OA
BRANCH  19  21
ATOM     21  O   UNL     1       5.199   4.126  14.056  0.00  0.00    +0.000 OA
BRANCH  21  23
ATOM     22  C   UNL     1       5.151   3.167  11.871  0.00  0.00    +0.000 C 
ATOM     23  C   UNL     1       6.045   3.624  13.010  0.00  0.00    +0.000 C 
ENDBRANCH  21  23
ENDBRANCH  19  21
ENDBRANCH  13  19
ENDBRANCH   1  16
TORSDOF 4
ENDMDL
MODEL 2
REMARK VINA RESULT:      -7.4      0.567      1.154
REMARK  Name = 
REMARK  5 active torsions:
REMARK  status: ('A' for Active; 'I' for Inactive)
REMARK    1  A    between atoms: C_1  and  C_2
REMARK    2  A    between atoms: C_2  and  O_3
REMARK    3  A    between atoms: O_3  and  C_4
REMARK    4  A    between atoms: C_4  and  C_6
REMARK    5  A    between atoms: C_9  and  C_10
REMARK                            x       y       z     vdW  Elec       q    Type
REMARK                         _______ _______ _______ _____ _____    ______ ____
ROOT
ATOM      1  C   UNL     1       2.190   7.881  18.864  0.00  0.00    +0.000 A 
ATOM      2  C   UNL     1       1.494   8.947  18.318  0.00  0.00    +0.000 A 
ATOM      3  C   UNL     1       0.803   9.809  19.160  0.00  0.00    +0.000 A 
ATOM      4  C   UNL     1       0.785   9.591  20.530  0.00  0.00    +0.000 A 
ATOM      5  N   UNL     1       0.053  10.479  21.314  0.00  0.00    +0.000 N 
ATOM      6  C   UNL     1      -0.424   9.999  22.616  0.00  0.00    +0.000 C 
ATOM      7  C   UNL     1      -1.512  10.989  23.082  0.00  0.00    +0.000 C 
ATOM      8  O   UNL     1      -1.002  12.335  23.178  0.00  0.00    +0.000 OA
ATOM      9  C   UNL     1      -0.464  12.774  21.916  0.00  0.00    +0.000 C 
ATOM     10  C   UNL     1       0.640  11.827  21.422  0.00  0.00    +0.000 C 
ATOM     11  N   UNL     1       1.415   8.511  21.031  0.00  0.00    +0.000 NA
ATOM     12  N   UNL     1       2.133   7.657  20.195  0.00  0.00    +0.000 NA
ENDROOT
BRANCH   1  16
ATOM     13  C   UNL     1       4.614   5.209  16.508  0.00  0.00    +0.000 A 
ATOM     14  C   UNL     1       3.575   4.713  17.294  0.00  0.00    +0.000 A 
ATOM     15  C   UNL     1       2.792   5.585  18.051  0.00  0.00    +0.000 A 
ATOM     16  C   UNL     1       3.025   6.975  18.054  0.00  0.00    +0.000 A 
ATOM     17  C   UNL     1       4.071   7.455  17.249  0.00  0.00    +0.000 A 
ATOM     18  C   UNL     1       4.862   6.584  16.484  0.00  0.00    +0.000 A 
BRANCH  13  19
ATOM     19  C   UNL     1       5.451   4.220  15.788  0.00  0.00    +0.000 C 
ATOM     20  O   UNL     1       6.309   3.540  16.327  0.00  0.00    +0.000 OA
BRANCH  19  21
ATOM     21  O   UNL     1       5.208   4.283  14.456  0.00  0.00    +0.000 OA
BRANCH  21  23
ATOM     22  C   UNL     1       5.826   3.328  12.357  0.00  0.00    +0.000 C 
ATOM     23  C   UNL     1       6.339   4.000  13.619  0.00  0.00    +0.000 C 
ENDBRANCH  21  23
ENDBRANCH  19  21
ENDBRANCH  13  19
ENDBRANCH   1  16
TORSDOF 4
ENDMDL
MODEL 3
REMARK VINA RESULT:      -7.3      2.016      2.903
REMARK  Name = 
REMARK  5 active torsions:
REMARK  status: ('A' for Active; 'I' for Inactive)
REMARK    1  A    between atoms: C_1  and  C_2
REMARK    2  A    between atoms: C_2  and  O_3
REMARK    3  A    between atoms: O_3  and  C_4
REMARK    4  A    between atoms: C_4  and  C_6
REMARK    5  A    between atoms: C_9  and  C_10
REMARK                            x       y       z     vdW  Elec       q    Type
REMARK                         _______ _______ _______ _____ _____    ______ ____
ROOT
ATOM      1  C   UNL     1       1.689   8.359  19.744  0.00  0.00    +0.000 A 
ATOM      2  C   UNL     1       1.062   9.359  19.018  0.00  0.00    +0.000 A 
ATOM      3  C   UNL     1       0.313  10.317  19.689  0.00  0.00    +0.000 A 
ATOM      4  C   UNL     1       0.168  10.258  21.068  0.00  0.00    +0.000 A 
ATOM      5  N   UNL     1      -0.617  11.235  21.675  0.00  0.00    +0.000 N 
ATOM      6  C   UNL     1      -1.217  10.911  22.974  0.00  0.00    +0.000 C 
ATOM      7  C   UNL     1      -2.327  11.955  23.223  0.00  0.00    +0.000 C 
ATOM      8  O   UNL     1      -1.806  13.300  23.210  0.00  0.00    +0.000 OA
ATOM      9  C   UNL     1      -1.149  13.587  21.961  0.00  0.00    +0.000 C 
ATOM     10  C   UNL     1      -0.020  12.583  21.681  0.00  0.00    +0.000 C 
ATOM     11  N   UNL     1       0.732   9.239  21.744  0.00  0.00    +0.000 NA
ATOM     12  N   UNL     1       1.508   8.291  21.082  0.00  0.00    +0.000 NA
ENDROOT
BRANCH   1  16
ATOM     13  C   UNL     1       4.283   5.422  17.952  0.00  0.00    +0.000 A 
ATOM     14  C   UNL     1       3.631   5.150  19.154  0.00  0.00    +0.000 A 
ATOM     15  C   UNL     1       2.790   6.104  19.726  0.00  0.00    +0.000 A 
ATOM     16  C   UNL     1       2.578   7.360  19.122  0.00  0.00    +0.000 A 
ATOM     17  C   UNL     1       3.238   7.612  17.908  0.00  0.00    +0.000 A 
ATOM     18  C   UNL     1       4.085   6.657  17.326  0.00  0.00    +0.000 A 
BRANCH  13  19
ATOM     19  C   UNL     1       5.219   4.393  17.440  0.00  0.00    +0.000 C 
ATOM     20  O   UNL     1       5.000   3.713  16.450  0.00  0.00    +0.000 OA
BRANCH  19  21
ATOM     21  O   UNL     1       6.262   4.243  18.293  0.00  0.00    +0.000 OA
BRANCH  21  23
ATOM     22  C   UNL     1       7.793   5.926  19.016  0.00  0.00    +0.000 C 
ATOM     23  C   UNL     1       7.461   4.935  17.914  0.00  0.00    +0.000 C 
ENDBRANCH  21  23
ENDBRANCH  19  21
ENDBRANCH  13  19
ENDBRANCH   1  16
TORSDOF 4
ENDMDL
MODEL 4
REMARK VINA RESULT:      -7.2      2.773      4.132
REMARK  Name = 
REMARK  5 active torsions:
REMARK  status: ('A' for Active; 'I' for Inactive)
REMARK    1  A    between atoms: C_1  and  C_2
REMARK    2  A    between atoms: C_2  and  O_3
REMARK    3  A    between atoms: O_3  and  C_4
REMARK    4  A    between atoms: C_4  and  C_6
REMARK    5  A    between atoms: C_9  and  C_10
REMARK                            x       y       z     vdW  Elec       q    Type
REMARK                         _______ _______ _______ _____ _____    ______ ____
ROOT
ATOM      1  C   UNL     1       0.755   9.198  21.058  0.00  0.00    +0.000 A 
ATOM      2  C   UNL     1       0.104   8.965  22.260  0.00  0.00    +0.000 A 
ATOM      3  C   UNL     1      -0.569  10.009  22.880  0.00  0.00    +0.000 A 
ATOM      4  C   UNL     1      -0.567  11.278  22.321  0.00  0.00    +0.000 A 
ATOM      5  N   UNL     1      -1.242  12.285  23.007  0.00  0.00    +0.000 N 
ATOM      6  C   UNL     1      -0.824  13.670  22.760  0.00  0.00    +0.000 C 
ATOM      7  C   UNL     1      -1.416  14.523  23.902  0.00  0.00    +0.000 C 
ATOM      8  O   UNL     1      -2.854  14.414  23.958  0.00  0.00    +0.000 OA
ATOM      9  C   UNL     1      -3.261  13.042  24.123  0.00  0.00    +0.000 C 
ATOM     10  C   UNL     1      -2.710  12.158  22.994  0.00  0.00    +0.000 C 
ATOM     11  N   UNL     1       0.127  11.495  21.187  0.00  0.00    +0.000 NA
ATOM     12  N   UNL     1       0.781  10.447  20.544  0.00  0.00    +0.000 NA
ENDROOT
BRANCH   1  16
ATOM     13  C   UNL     1       2.681   6.087  18.782  0.00  0.00    +0.000 A 
ATOM     14  C   UNL     1       2.620   7.390  18.288  0.00  0.00    +0.000 A 
ATOM     15  C   UNL     1       1.998   8.393  19.033  0.00  0.00    +0.000 A 
ATOM     16  C   UNL     1       1.413   8.126  20.287  0.00  0.00    +0.000 A 
ATOM     17  C   UNL     1       1.491   6.809  20.769  0.00  0.00    +0.000 A 
ATOM     18  C   UNL     1       2.116   5.796  20.027  0.00  0.00    +0.000 A 
BRANCH  13  19
ATOM     19  C   UNL     1       3.291   5.059  17.906  0.00  0.00    +0.000 C 
ATOM     20  O   UNL     1       4.462   5.071  17.562  0.00  0.00    +0.000 OA
BRANCH  19  21
ATOM     21  O   UNL     1       2.339   4.203  17.457  0.00  0.00    +0.000 OA
BRANCH  21  23
ATOM     22  C   UNL     1       1.451   2.332  18.645  0.00  0.00    +0.000 C 
ATOM     23  C   UNL     1       2.580   2.819  17.753  0.00  0.00    +0.000 C 
ENDBRANCH  21  23
ENDBRANCH  19  21
ENDBRANCH  13  19
ENDBRANCH   1  16
TORSDOF 4
ENDMDL
MODEL 5
REMARK VINA RESULT:      -7.1      1.980      2.783
REMARK  Name = 
REMARK  5 active torsions:
REMARK  status: ('A' for Active; 'I' for Inactive)
REMARK    1  A    between atoms: C_1  and  C_2
REMARK    2  A    between atoms: C_2  and  O_3
REMARK    3  A    between atoms: O_3  and  C_4
REMARK    4  A    between atoms: C_4  and  C_6
REMARK    5  A    between atoms: C_9  and  C_10
REMARK                            x       y       z     vdW  Elec       q    Type
REMARK                         _______ _______ _______ _____ _____    ______ ____
ROOT
ATOM      1  C   UNL     1       1.509   8.572  19.788  0.00  0.00    +0.000 A 
ATOM      2  C   UNL     1       0.892   9.585  19.071  0.00  0.00    +0.000 A 
ATOM      3  C   UNL     1       0.139  10.534  19.750  0.00  0.00    +0.000 A 
ATOM      4  C   UNL     1      -0.019  10.455  21.126  0.00  0.00    +0.000 A 
ATOM      5  N   UNL     1      -0.807  11.425  21.741  0.00  0.00    +0.000 N 
ATOM      6  C   UNL     1      -1.420  11.082  23.029  0.00  0.00    +0.000 C 
ATOM      7  C   UNL     1      -2.529  12.125  23.284  0.00  0.00    +0.000 C 
ATOM      8  O   UNL     1      -2.004  13.469  23.297  0.00  0.00    +0.000 OA
ATOM      9  C   UNL     1      -1.334  13.774  22.059  0.00  0.00    +0.000 C 
ATOM     10  C   UNL     1      -0.206  12.770  21.774  0.00  0.00    +0.000 C 
ATOM     11  N   UNL     1       0.536   9.424  21.792  0.00  0.00    +0.000 NA
ATOM     12  N   UNL     1       1.315   8.484  21.122  0.00  0.00    +0.000 NA
ENDROOT
BRANCH   1  16
ATOM     13  C   UNL     1       4.119   5.693  17.926  0.00  0.00    +0.000 A 
ATOM     14  C   UNL     1       3.898   6.935  17.332  0.00  0.00    +0.000 A 
ATOM     15  C   UNL     1       3.055   7.863  17.943  0.00  0.00    +0.000 A 
ATOM     16  C   UNL     1       2.401   7.580  19.159  0.00  0.00    +0.000 A 
ATOM     17  C   UNL     1       2.643   6.327  19.745  0.00  0.00    +0.000 A 
ATOM     18  C   UNL     1       3.491   5.388  19.138  0.00  0.00    +0.000 A 
BRANCH  13  19
ATOM     19  C   UNL     1       4.967   4.729  17.186  0.00  0.00    +0.000 C 
ATOM     20  O   UNL     1       4.702   4.313  16.069  0.00  0.00    +0.000 OA
BRANCH  19  21
ATOM     21  O   UNL     1       5.982   4.297  17.975  0.00  0.00    +0.000 OA
BRANCH  21  23
ATOM     22  C   UNL     1       7.671   5.807  18.725  0.00  0.00    +0.000 C 
ATOM     23  C   UNL     1       7.276   4.820  17.641  0.00  0.00    +0.000 C 
ENDBRANCH  21  23
ENDBRANCH  19  21
ENDBRANCH  13  19
ENDBRANCH   1  16
TORSDOF 4
ENDMDL
MODEL 6
REMARK VINA RESULT:      -7.1      2.644      4.235
REMARK  Name = 
REMARK  5 active torsions:
REMARK  status: ('A' for Active; 'I' for Inactive)
REMARK    1  A    between atoms: C_1  and  C_2
REMARK    2  A    between atoms: C_2  and  O_3
REMARK    3  A    between atoms: O_3  and  C_4
REMARK    4  A    between atoms: C_4  and  C_6
REMARK    5  A    between atoms: C_9  and  C_10
REMARK                            x       y       z     vdW  Elec       q    Type
REMARK                         _______ _______ _______ _____ _____    ______ ____
ROOT
ATOM      1  C   UNL     1       0.746   9.509  20.916  0.00  0.00    +0.000 A 
ATOM      2  C   UNL     1       0.063   9.154  22.068  0.00  0.00    +0.000 A 
ATOM      3  C   UNL     1      -0.650  10.124  22.761  0.00  0.00    +0.000 A 
ATOM      4  C   UNL     1      -0.655  11.441  22.323  0.00  0.00    +0.000 A 
ATOM      5  N   UNL     1      -1.370  12.367  23.077  0.00  0.00    +0.000 N 
ATOM      6  C   UNL     1      -0.971  13.776  22.974  0.00  0.00    +0.000 C 
ATOM      7  C   UNL     1      -1.616  14.508  24.170  0.00  0.00    +0.000 C 
ATOM      8  O   UNL     1      -3.052  14.371  24.168  0.00  0.00    +0.000 OA
ATOM      9  C   UNL     1      -3.438  12.983  24.190  0.00  0.00    +0.000 C 
ATOM     10  C   UNL     1      -2.834  12.218  23.003  0.00  0.00    +0.000 C 
ATOM     11  N   UNL     1       0.071  11.774  21.238  0.00  0.00    +0.000 NA
ATOM     12  N   UNL     1       0.765  10.801  20.522  0.00  0.00    +0.000 NA
ENDROOT
BRANCH   1  16
ATOM     13  C   UNL     1       2.801   6.617  18.470  0.00  0.00    +0.000 A 
ATOM     14  C   UNL     1       2.449   6.309  19.784  0.00  0.00    +0.000 A 
ATOM     15  C   UNL     1       1.780   7.250  20.568  0.00  0.00    +0.000 A 
ATOM     16  C   UNL     1       1.449   8.526  20.071  0.00  0.00    +0.000 A 
ATOM     17  C   UNL     1       1.806   8.813  18.743  0.00  0.00    +0.000 A 
ATOM     18  C   UNL     1       2.477   7.873  17.948  0.00  0.00    +0.000 A 
BRANCH  13  19
ATOM     19  C   UNL     1       3.574   5.600  17.720  0.00  0.00    +0.000 C 
ATOM     20  O   UNL     1       3.159   4.478  17.476  0.00  0.00    +0.000 OA
BRANCH  19  21
ATOM     21  O   UNL     1       4.827   6.055  17.469  0.00  0.00    +0.000 OA
BRANCH  21  23
ATOM     22  C   UNL     1       6.256   5.352  19.247  0.00  0.00    +0.000 C 
ATOM     23  C   UNL     1       5.882   5.137  17.791  0.00  0.00    +0.000 C 
ENDBRANCH  21  23
ENDBRANCH  19  21
ENDBRANCH  13  19
ENDBRANCH   1  16
TORSDOF 4
ENDMDL
MODEL 7
REMARK VINA RESULT:      -7.1      2.859      4.438
REMARK  Name = 
REMARK  5 active torsions:
REMARK  status: ('A' for Active; 'I' for Inactive)
REMARK    1  A    between atoms: C_1  and  C_2
REMARK    2  A    between atoms: C_2  and  O_3
REMARK    3  A    between atoms: O_3  and  C_4
REMARK    4  A    between atoms: C_4  and  C_6
REMARK    5  A    between atoms: C_9  and  C_10
REMARK                            x       y       z     vdW  Elec       q    Type
REMARK                         _______ _______ _______ _____ _____    ______ ____
ROOT
ATOM      1  C   UNL     1       0.648   9.480  21.097  0.00  0.00    +0.000 A 
ATOM      2  C   UNL     1      -0.023   9.152  22.264  0.00  0.00    +0.000 A 
ATOM      3  C   UNL     1      -0.737  10.135  22.936  0.00  0.00    +0.000 A 
ATOM      4  C   UNL     1      -0.756  11.439  22.462  0.00  0.00    +0.000 A 
ATOM      5  N   UNL     1      -1.472  12.381  23.196  0.00  0.00    +0.000 N 
ATOM      6  C   UNL     1      -1.085  13.789  23.051  0.00  0.00    +0.000 C 
ATOM      7  C   UNL     1      -1.724  14.549  24.233  0.00  0.00    +0.000 C 
ATOM      8  O   UNL     1      -3.160  14.401  24.247  0.00  0.00    +0.000 OA
ATOM      9  C   UNL     1      -3.534  13.012  24.311  0.00  0.00    +0.000 C 
ATOM     10  C   UNL     1      -2.935  12.219  23.140  0.00  0.00    +0.000 C 
ATOM     11  N   UNL     1      -0.043  11.748  21.362  0.00  0.00    +0.000 NA
ATOM     12  N   UNL     1       0.653  10.761  20.667  0.00  0.00    +0.000 NA
ENDROOT
BRANCH   1  16
ATOM     13  C   UNL     1       2.702   6.536  18.713  0.00  0.00    +0.000 A 
ATOM     14  C   UNL     1       2.293   6.234  20.011  0.00  0.00    +0.000 A 
ATOM     15  C   UNL     1       1.625   7.192  20.776  0.00  0.00    +0.000 A 
ATOM     16  C   UNL     1       1.351   8.479  20.273  0.00  0.00    +0.000 A 
ATOM     17  C   UNL     1       1.764   8.761  18.960  0.00  0.00    +0.000 A 
ATOM     18  C   UNL     1       2.435   7.803  18.185  0.00  0.00    +0.000 A 
BRANCH  13  19
ATOM     19  C   UNL     1       3.470   5.499  17.986  0.00  0.00    +0.000 C 
ATOM     20  O   UNL     1       4.120   5.721  16.976  0.00  0.00    +0.000 OA
BRANCH  19  21
ATOM     21  O   UNL     1       3.238   4.278  18.528  0.00  0.00    +0.000 OA
BRANCH  21  23
ATOM     22  C   UNL     1       4.169   2.581  19.925  0.00  0.00    +0.000 C 
ATOM     23  C   UNL     1       4.405   3.462  18.711  0.00  0.00    +0.000 C 
ENDBRANCH  21  23
ENDBRANCH  19  21
ENDBRANCH  13  19
ENDBRANCH   1  16
TORSDOF 4
ENDMDL
MODEL 8
REMARK VINA RESULT:      -7.0      1.209      1.643
REMARK  Name = 
REMARK  5 active torsions:
REMARK  status: ('A' for Active; 'I' for Inactive)
REMARK    1  A    between atoms: C_1  and  C_2
REMARK    2  A    between atoms: C_2  and  O_3
REMARK    3  A    between atoms: O_3  and  C_4
REMARK    4  A    between atoms: C_4  and  C_6
REMARK    5  A    between atoms: C_9  and  C_10
REMARK                            x       y       z     vdW  Elec       q    Type
REMARK                         _______ _______ _______ _____ _____    ______ ____
ROOT
ATOM      1  C   UNL     1       1.676   8.412  19.421  0.00  0.00    +0.000 A 
ATOM      2  C   UNL     1       1.081   9.477  18.764  0.00  0.00    +0.000 A 
ATOM      3  C   UNL     1       0.411  10.442  19.505  0.00  0.00    +0.000 A 
ATOM      4  C   UNL     1       0.314  10.329  20.884  0.00  0.00    +0.000 A 
ATOM      5  N   UNL     1      -0.391  11.320  21.563  0.00  0.00    +0.000 N 
ATOM      6  C   UNL     1      -0.961  10.970  22.870  0.00  0.00    +0.000 C 
ATOM      7  C   UNL     1      -2.000  12.060  23.207  0.00  0.00    +0.000 C 
ATOM      8  O   UNL     1      -1.405  13.375  23.231  0.00  0.00    +0.000 OA
ATOM      9  C   UNL     1      -0.779  13.681  21.971  0.00  0.00    +0.000 C 
ATOM     10  C   UNL     1       0.280  12.631  21.605  0.00  0.00    +0.000 C 
ATOM     11  N   UNL     1       0.844   9.251  21.493  0.00  0.00    +0.000 NA
ATOM     12  N   UNL     1       1.541   8.293  20.760  0.00  0.00    +0.000 NA
ENDROOT
BRANCH   1  16
ATOM     13  C   UNL     1       4.048   5.463  17.361  0.00  0.00    +0.000 A 
ATOM     14  C   UNL     1       4.150   6.813  17.025  0.00  0.00    +0.000 A 
ATOM     15  C   UNL     1       3.382   7.762  17.700  0.00  0.00    +0.000 A 
ATOM     16  C   UNL     1       2.484   7.395  18.722  0.00  0.00    +0.000 A 
ATOM     17  C   UNL     1       2.402   6.032  19.050  0.00  0.00    +0.000 A 
ATOM     18  C   UNL     1       3.172   5.071  18.377  0.00  0.00    +0.000 A 
BRANCH  13  19
ATOM     19  C   UNL     1       4.838   4.503  16.554  0.00  0.00    +0.000 C 
ATOM     20  O   UNL     1       4.946   3.318  16.827  0.00  0.00    +0.000 OA
BRANCH  19  21
ATOM     21  O   UNL     1       5.505   5.155  15.571  0.00  0.00    +0.000 OA
BRANCH  21  23
ATOM     22  C   UNL     1       6.208   3.908  13.660  0.00  0.00    +0.000 C 
ATOM     23  C   UNL     1       6.623   4.443  15.020  0.00  0.00    +0.000 C 
ENDBRANCH  21  23
ENDBRANCH  19  21
ENDBRANCH  13  19
ENDBRANCH   1  16
TORSDOF 4
ENDMDL
MODEL 9
REMARK VINA RESULT:      -7.0      2.451      4.163
REMARK  Name = 
REMARK  5 active torsions:
REMARK  status: ('A' for Active; 'I' for Inactive)
REMARK    1  A    between atoms: C_1  and  C_2
REMARK    2  A    between atoms: C_2  and  O_3
REMARK    3  A    between atoms: O_3  and  C_4
REMARK    4  A    between atoms: C_4  and  C_6
REMARK    5  A    between atoms: C_9  and  C_10
REMARK                            x       y       z     vdW  Elec       q    Type
REMARK                         _______ _______ _______ _____ _____    ______ ____
ROOT
ATOM      1  C   UNL     1       0.606   9.599  21.105  0.00  0.00    +0.000 A 
ATOM      2  C   UNL     1      -0.068   9.231  22.258  0.00  0.00    +0.000 A 
ATOM      3  C   UNL     1      -0.807  10.185  22.946  0.00  0.00    +0.000 A 
ATOM      4  C   UNL     1      -0.848  11.498  22.501  0.00  0.00    +0.000 A 
ATOM      5  N   UNL     1      -1.589  12.409  23.251  0.00  0.00    +0.000 N 
ATOM      6  C   UNL     1      -1.228  13.827  23.141  0.00  0.00    +0.000 C 
ATOM      7  C   UNL     1      -1.893  14.547  24.334  0.00  0.00    +0.000 C 
ATOM      8  O   UNL     1      -3.325  14.370  24.333  0.00  0.00    +0.000 OA
ATOM      9  C   UNL     1      -3.673  12.973  24.361  0.00  0.00    +0.000 C 
ATOM     10  C   UNL     1      -3.048  12.219  23.177  0.00  0.00    +0.000 C 
ATOM     11  N   UNL     1      -0.132  11.846  21.415  0.00  0.00    +0.000 NA
ATOM     12  N   UNL     1       0.589  10.889  20.704  0.00  0.00    +0.000 NA
ENDROOT
BRANCH   1  16
ATOM     13  C   UNL     1       2.736   6.791  18.625  0.00  0.00    +0.000 A 
ATOM     14  C   UNL     1       2.414   8.059  18.142  0.00  0.00    +0.000 A 
ATOM     15  C   UNL     1       1.727   8.964  18.952  0.00  0.00    +0.000 A 
ATOM     16  C   UNL     1       1.336   8.631  20.264  0.00  0.00    +0.000 A 
ATOM     17  C   UNL     1       1.676   7.352  20.735  0.00  0.00    +0.000 A 
ATOM     18  C   UNL     1       2.367   6.437  19.927  0.00  0.00    +0.000 A 
BRANCH  13  19
ATOM     19  C   UNL     1       3.399   5.856  17.686  0.00  0.00    +0.000 C 
ATOM     20  O   UNL     1       3.245   4.646  17.715  0.00  0.00    +0.000 OA
BRANCH  19  21
ATOM     21  O   UNL     1       4.277   6.527  16.900  0.00  0.00    +0.000 OA
BRANCH  21  23
ATOM     22  C   UNL     1       6.657   6.445  17.076  0.00  0.00    +0.000 C 
ATOM     23  C   UNL     1       5.427   5.771  16.492  0.00  0.00    +0.000 C 
ENDBRANCH  21  23
ENDBRANCH  19  21
ENDBRANCH  13  19
ENDBRANCH   1  16
TORSDOF 4
ENDMDL
