MODEL 1
REMARK VINA RESULT:      -8.2      0.000      0.000
REMARK  Name = 
REMARK  6 active torsions:
REMARK  status: ('A' for Active; 'I' for Inactive)
REMARK    1  A    between atoms: C_2  and  C_3
REMARK    2  A    between atoms: C_3  and  N_4
REMARK    3  A    between atoms: C_5  and  C_6
REMARK    4  A    between atoms: C_9  and  C_10
REMARK    5  A    between atoms: N_12  and  N_13
REMARK    6  A    between atoms: C_14  and  C_15
REMARK                            x       y       z     vdW  Elec       q    Type
REMARK                         _______ _______ _______ _____ _____    ______ ____
ROOT
ATOM      1  C   UNL     1       2.391   7.891  18.628  0.00  0.00    +0.000 A 
ATOM      2  C   UNL     1       2.024   7.857  19.975  0.00  0.00    +0.000 A 
ATOM      3  C   UNL     1       1.063   8.727  20.496  0.00  0.00    +0.000 A 
ATOM      4  C   UNL     1       0.489   9.723  19.700  0.00  0.00    +0.000 A 
ATOM      5  C   UNL     1       0.922   9.841  18.375  0.00  0.00    +0.000 A 
ATOM      6  C   UNL     1       1.857   8.928  17.847  0.00  0.00    +0.000 A 
ENDROOT
BRANCH   1   8
ATOM      7  N   UNL     1       3.030   5.557  17.769  0.00  0.00    +0.000 N 
ATOM      8  C   UNL     1       3.300   6.901  18.013  0.00  0.00    +0.000 A 
ATOM      9  N   UNL     1       4.496   7.203  17.526  0.00  0.00    +0.000 NA
ATOM     10  C   UNL     1       5.017   6.048  17.000  0.00  0.00    +0.000 A 
ATOM     11  C   UNL     1       6.250   5.825  16.367  0.00  0.00    +0.000 A 
ATOM     12  C   UNL     1       6.551   4.539  15.899  0.00  0.00    +0.000 A 
ATOM     13  C   UNL     1       5.642   3.493  16.058  0.00  0.00    +0.000 A 
ATOM     14  C   UNL     1       4.408   3.697  16.686  0.00  0.00    +0.000 A 
ATOM     15  C   UNL     1       4.127   4.993  17.144  0.00  0.00    +0.000 A 
BRANCH   7  16
ATOM     16  C   UNL     1       1.775   4.849  17.980  0.00  0.00    +0.000 C 
BRANCH  16  18
ATOM     17  C   UNL     1       1.514   4.038  20.511  0.00  0.00    +0.000 C 
ATOM     18  C   UNL     1       1.628   4.354  19.360  0.00  0.00    +0.000 C 
ENDBRANCH  16  18
ENDBRANCH   7  16
ENDBRANCH   1   8
BRANCH   4  19
ATOM     19  C   UNL     1      -0.554  10.580  20.349  0.00  0.00    +0.000 C 
ATOM     20  O   UNL     1      -1.375  11.152  19.634  0.00  0.00    +0.000 OA
ATOM     21  N   UNL     1      -0.523  10.692  21.732  0.00  0.00    +0.000 N 
ATOM     22  H   UNL     1       0.171  10.230  22.299  0.00  0.00    +0.000 HD
BRANCH  21  23
ATOM     23  N   UNL     1      -1.434  11.507  22.339  0.00  0.00    +0.000 NA
ATOM     24  C   UNL     1      -0.992  12.632  22.795  0.00  0.00    +0.000 C 
BRANCH  24  25
ATOM     25  C   UNL     1      -1.905  13.607  23.431  0.00  0.00    +0.000 A 
ATOM     26  C   UNL     1      -3.292  13.466  23.306  0.00  0.00    +0.000 A 
ATOM     27  C   UNL     1      -4.144  14.437  23.839  0.00  0.00    +0.000 A 
ATOM     28  C   UNL     1      -3.605  15.540  24.502  0.00  0.00    +0.000 A 
ATOM     29 CL   UNL     1      -4.650  16.760  25.115  0.00  0.00    +0.000 Cl
ATOM     30  C   UNL     1      -2.224  15.667  24.657  0.00  0.00    +0.000 A 
ATOM     31  C   UNL     1      -1.369  14.700  24.118  0.00  0.00    +0.000 A 
ENDBRANCH  24  25
ENDBRANCH  21  23
ENDBRANCH   4  19
TORSDOF 6
ENDMDL
MODEL 2
REMARK VINA RESULT:      -7.9      0.493      1.324
REMARK  Name = 
REMARK  6 active torsions:
REMARK  status: ('A' for Active; 'I' for Inactive)
REMARK    1  A    between atoms: C_2  and  C_3
REMARK    2  A    between atoms: C_3  and  N_4
REMARK    3  A    between atoms: C_5  and  C_6
REMARK    4  A    between atoms: C_9  and  C_10
REMARK    5  A    between atoms: N_12  and  N_13
REMARK    6  A    between atoms: C_14  and  C_15
REMARK                            x       y       z     vdW  Elec       q    Type
REMARK                         _______ _______ _______ _____ _____    ______ ____
ROOT
ATOM      1  C   UNL     1       2.365   7.799  18.492  0.00  0.00    +0.000 A 
ATOM      2  C   UNL     1       1.734   8.776  17.719  0.00  0.00    +0.000 A 
ATOM      3  C   UNL     1       0.930   9.763  18.296  0.00  0.00    +0.000 A 
ATOM      4  C   UNL     1       0.663   9.760  19.668  0.00  0.00    +0.000 A 
ATOM      5  C   UNL     1       1.201   8.727  20.443  0.00  0.00    +0.000 A 
ATOM      6  C   UNL     1       2.047   7.765  19.859  0.00  0.00    +0.000 A 
ENDROOT
BRANCH   1   8
ATOM      7  N   UNL     1       3.101   5.474  17.691  0.00  0.00    +0.000 N 
ATOM      8  C   UNL     1       3.327   6.825  17.935  0.00  0.00    +0.000 A 
ATOM      9  N   UNL     1       4.539   7.151  17.507  0.00  0.00    +0.000 NA
ATOM     10  C   UNL     1       5.113   6.004  17.022  0.00  0.00    +0.000 A 
ATOM     11  C   UNL     1       6.382   5.804  16.456  0.00  0.00    +0.000 A 
ATOM     12  C   UNL     1       6.736   4.521  16.017  0.00  0.00    +0.000 A 
ATOM     13  C   UNL     1       5.845   3.455  16.139  0.00  0.00    +0.000 A 
ATOM     14  C   UNL     1       4.575   3.637  16.700  0.00  0.00    +0.000 A 
ATOM     15  C   UNL     1       4.241   4.929  17.130  0.00  0.00    +0.000 A 
BRANCH   7  16
ATOM     16  C   UNL     1       1.853   4.738  17.843  0.00  0.00    +0.000 C 
BRANCH  16  18
ATOM     17  C   UNL     1       1.500   3.966  20.375  0.00  0.00    +0.000 C 
ATOM     18  C   UNL     1       1.635   4.271  19.223  0.00  0.00    +0.000 C 
ENDBRANCH  16  18
ENDBRANCH   7  16
ENDBRANCH   1   8
BRANCH   4  19
ATOM     19  C   UNL     1      -0.183  10.882  20.189  0.00  0.00    +0.000 C 
ATOM     20  O   UNL     1      -1.311  11.035  19.723  0.00  0.00    +0.000 OA
ATOM     21  N   UNL     1       0.368  11.701  21.165  0.00  0.00    +0.000 N 
ATOM     22  H   UNL     1       1.303  11.570  21.519  0.00  0.00    +0.000 HD
BRANCH  21  23
ATOM     23  N   UNL     1      -0.367  12.758  21.617  0.00  0.00    +0.000 NA
ATOM     24  C   UNL     1      -1.039  12.573  22.705  0.00  0.00    +0.000 C 
BRANCH  24  25
ATOM     25  C   UNL     1      -1.832  13.669  23.305  0.00  0.00    +0.000 A 
ATOM     26  C   UNL     1      -1.219  14.875  23.663  0.00  0.00    +0.000 A 
ATOM     27  C   UNL     1      -1.960  15.871  24.305  0.00  0.00    +0.000 A 
ATOM     28  C   UNL     1      -3.311  15.660  24.576  0.00  0.00    +0.000 A 
ATOM     29 CL   UNL     1      -4.212  16.865  25.409  0.00  0.00    +0.000 Cl
ATOM     30  C   UNL     1      -3.934  14.472  24.190  0.00  0.00    +0.000 A 
ATOM     31  C   UNL     1      -3.193  13.470  23.555  0.00  0.00    +0.000 A 
ENDBRANCH  24  25
ENDBRANCH  21  23
ENDBRANCH   4  19
TORSDOF 6
ENDMDL
MODEL 3
REMARK VINA RESULT:      -7.8      2.086      2.474
REMARK  Name = 
REMARK  6 active torsions:
REMARK  status: ('A' for Active; 'I' for Inactive)
REMARK    1  A    between atoms: C_2  and  C_3
REMARK    2  A    between atoms: C_3  and  N_4
REMARK    3  A    between atoms: C_5  and  C_6
REMARK    4  A    between atoms: C_9  and  C_10
REMARK    5  A    between atoms: N_12  and  N_13
REMARK    6  A    between atoms: C_14  and  C_15
REMARK                            x       y       z     vdW  Elec       q    Type
REMARK                         _______ _______ _______ _____ _____    ______ ____
ROOT
ATOM      1  C   UNL     1       2.359   7.892  18.652  0.00  0.00    +0.000 A 
ATOM      2  C   UNL     1       2.012   7.834  20.003  0.00  0.00    +0.000 A 
ATOM      3  C   UNL     1       1.063   8.698  20.555  0.00  0.00    +0.000 A 
ATOM      4  C   UNL     1       0.481   9.711  19.787  0.00  0.00    +0.000 A 
ATOM      5  C   UNL     1       0.895   9.852  18.458  0.00  0.00    +0.000 A 
ATOM      6  C   UNL     1       1.817   8.946  17.899  0.00  0.00    +0.000 A 
ENDROOT
BRANCH   1   8
ATOM      7  N   UNL     1       2.996   5.560  17.787  0.00  0.00    +0.000 N 
ATOM      8  C   UNL     1       3.255   6.910  18.005  0.00  0.00    +0.000 A 
ATOM      9  N   UNL     1       4.421   7.226  17.459  0.00  0.00    +0.000 NA
ATOM     10  C   UNL     1       4.936   6.074  16.922  0.00  0.00    +0.000 A 
ATOM     11  C   UNL     1       6.141   5.864  16.234  0.00  0.00    +0.000 A 
ATOM     12  C   UNL     1       6.441   4.578  15.764  0.00  0.00    +0.000 A 
ATOM     13  C   UNL     1       5.559   3.519  15.977  0.00  0.00    +0.000 A 
ATOM     14  C   UNL     1       4.351   3.710  16.659  0.00  0.00    +0.000 A 
ATOM     15  C   UNL     1       4.071   5.006  17.118  0.00  0.00    +0.000 A 
BRANCH   7  16
ATOM     16  C   UNL     1       1.763   4.834  18.063  0.00  0.00    +0.000 C 
BRANCH  16  18
ATOM     17  C   UNL     1       1.596   3.987  20.590  0.00  0.00    +0.000 C 
ATOM     18  C   UNL     1       1.701   4.328  19.445  0.00  0.00    +0.000 C 
ENDBRANCH  16  18
ENDBRANCH   7  16
ENDBRANCH   1   8
BRANCH   4  19
ATOM     19  C   UNL     1      -0.549  10.560  20.467  0.00  0.00    +0.000 C 
ATOM     20  O   UNL     1      -0.761  10.383  21.665  0.00  0.00    +0.000 OA
ATOM     21  N   UNL     1      -1.222  11.496  19.693  0.00  0.00    +0.000 N 
ATOM     22  H   UNL     1      -1.046  11.612  18.707  0.00  0.00    +0.000 HD
BRANCH  21  23
ATOM     23  N   UNL     1      -2.198  12.246  20.282  0.00  0.00    +0.000 NA
ATOM     24  C   UNL     1      -3.367  12.210  19.733  0.00  0.00    +0.000 C 
BRANCH  24  25
ATOM     25  C   UNL     1      -4.506  12.951  20.318  0.00  0.00    +0.000 A 
ATOM     26  C   UNL     1      -4.337  14.261  20.781  0.00  0.00    +0.000 A 
ATOM     27  C   UNL     1      -5.397  14.922  21.408  0.00  0.00    +0.000 A 
ATOM     28  C   UNL     1      -6.622  14.274  21.559  0.00  0.00    +0.000 A 
ATOM     29 CL   UNL     1      -7.912  15.068  22.373  0.00  0.00    +0.000 Cl
ATOM     30  C   UNL     1      -6.804  12.980  21.068  0.00  0.00    +0.000 A 
ATOM     31  C   UNL     1      -5.743  12.313  20.447  0.00  0.00    +0.000 A 
ENDBRANCH  24  25
ENDBRANCH  21  23
ENDBRANCH   4  19
TORSDOF 6
ENDMDL
MODEL 4
REMARK VINA RESULT:      -7.7      1.741      2.322
REMARK  Name = 
REMARK  6 active torsions:
REMARK  status: ('A' for Active; 'I' for Inactive)
REMARK    1  A    between atoms: C_2  and  C_3
REMARK    2  A    between atoms: C_3  and  N_4
REMARK    3  A    between atoms: C_5  and  C_6
REMARK    4  A    between atoms: C_9  and  C_10
REMARK    5  A    between atoms: N_12  and  N_13
REMARK    6  A    between atoms: C_14  and  C_15
REMARK                            x       y       z     vdW  Elec       q    Type
REMARK                         _______ _______ _______ _____ _____    ______ ____
ROOT
ATOM      1  C   UNL     1       2.315   7.787  18.639  0.00  0.00    +0.000 A 
ATOM      2  C   UNL     1       1.681   8.821  17.948  0.00  0.00    +0.000 A 
ATOM      3  C   UNL     1       0.877   9.758  18.602  0.00  0.00    +0.000 A 
ATOM      4  C   UNL     1       0.613   9.647  19.970  0.00  0.00    +0.000 A 
ATOM      5  C   UNL     1       1.154   8.557  20.661  0.00  0.00    +0.000 A 
ATOM      6  C   UNL     1       2.001   7.645  20.000  0.00  0.00    +0.000 A 
ENDROOT
BRANCH   1   8
ATOM      7  N   UNL     1       3.069   5.518  17.704  0.00  0.00    +0.000 N 
ATOM      8  C   UNL     1       3.277   6.861  18.006  0.00  0.00    +0.000 A 
ATOM      9  N   UNL     1       4.468   7.232  17.556  0.00  0.00    +0.000 NA
ATOM     10  C   UNL     1       5.047   6.122  16.997  0.00  0.00    +0.000 A 
ATOM     11  C   UNL     1       6.301   5.976  16.382  0.00  0.00    +0.000 A 
ATOM     12  C   UNL     1       6.665   4.723  15.870  0.00  0.00    +0.000 A 
ATOM     13  C   UNL     1       5.799   3.634  15.969  0.00  0.00    +0.000 A 
ATOM     14  C   UNL     1       4.545   3.762  16.578  0.00  0.00    +0.000 A 
ATOM     15  C   UNL     1       4.200   5.025  17.081  0.00  0.00    +0.000 A 
BRANCH   7  16
ATOM     16  C   UNL     1       1.841   4.750  17.860  0.00  0.00    +0.000 C 
BRANCH  16  18
ATOM     17  C   UNL     1       1.449   3.800  20.324  0.00  0.00    +0.000 C 
ATOM     18  C   UNL     1       1.674   4.219  19.224  0.00  0.00    +0.000 C 
ENDBRANCH  16  18
ENDBRANCH   7  16
ENDBRANCH   1   8
BRANCH   4  19
ATOM     19  C   UNL     1      -0.233  10.724  20.579  0.00  0.00    +0.000 C 
ATOM     20  O   UNL     1      -0.312  10.789  21.804  0.00  0.00    +0.000 OA
ATOM     21  N   UNL     1      -0.896  11.583  19.715  0.00  0.00    +0.000 N 
ATOM     22  H   UNL     1      -0.833  11.500  18.711  0.00  0.00    +0.000 HD
BRANCH  21  23
ATOM     23  N   UNL     1      -1.710  12.540  20.247  0.00  0.00    +0.000 NA
ATOM     24  C   UNL     1      -2.976  12.417  20.018  0.00  0.00    +0.000 C 
BRANCH  24  25
ATOM     25  C   UNL     1      -3.949  13.375  20.587  0.00  0.00    +0.000 A 
ATOM     26  C   UNL     1      -3.507  14.537  21.230  0.00  0.00    +0.000 A 
ATOM     27  C   UNL     1      -4.430  15.393  21.837  0.00  0.00    +0.000 A 
ATOM     28  C   UNL     1      -5.790  15.088  21.789  0.00  0.00    +0.000 A 
ATOM     29 CL   UNL     1      -6.923  16.115  22.577  0.00  0.00    +0.000 Cl
ATOM     30  C   UNL     1      -6.237  13.948  21.120  0.00  0.00    +0.000 A 
ATOM     31  C   UNL     1      -5.315  13.085  20.518  0.00  0.00    +0.000 A 
ENDBRANCH  24  25
ENDBRANCH  21  23
ENDBRANCH   4  19
TORSDOF 6
ENDMDL
MODEL 5
REMARK VINA RESULT:      -7.6      1.207      1.656
REMARK  Name = 
REMARK  6 active torsions:
REMARK  status: ('A' for Active; 'I' for Inactive)
REMARK    1  A    between atoms: C_2  and  C_3
REMARK    2  A    between atoms: C_3  and  N_4
REMARK    3  A    between atoms: C_5  and  C_6
REMARK    4  A    between atoms: C_9  and  C_10
REMARK    5  A    between atoms: N_12  and  N_13
REMARK    6  A    between atoms: C_14  and  C_15
REMARK                            x       y       z     vdW  Elec       q    Type
REMARK                         _______ _______ _______ _____ _____    ______ ____
ROOT
ATOM      1  C   UNL     1       2.362   7.714  18.865  0.00  0.00    +0.000 A 
ATOM      2  C   UNL     1       1.814   8.868  18.301  0.00  0.00    +0.000 A 
ATOM      3  C   UNL     1       1.093   9.788  19.066  0.00  0.00    +0.000 A 
ATOM      4  C   UNL     1       0.824   9.545  20.416  0.00  0.00    +0.000 A 
ATOM      5  C   UNL     1       1.274   8.343  20.973  0.00  0.00    +0.000 A 
ATOM      6  C   UNL     1       2.041   7.445  20.205  0.00  0.00    +0.000 A 
ENDROOT
BRANCH   1   8
ATOM      7  N   UNL     1       3.000   5.448  17.841  0.00  0.00    +0.000 N 
ATOM      8  C   UNL     1       3.242   6.789  18.119  0.00  0.00    +0.000 A 
ATOM      9  N   UNL     1       4.372   7.162  17.533  0.00  0.00    +0.000 NA
ATOM     10  C   UNL     1       4.882   6.053  16.907  0.00  0.00    +0.000 A 
ATOM     11  C   UNL     1       6.053   5.909  16.148  0.00  0.00    +0.000 A 
ATOM     12  C   UNL     1       6.355   4.657  15.593  0.00  0.00    +0.000 A 
ATOM     13  C   UNL     1       5.506   3.568  15.791  0.00  0.00    +0.000 A 
ATOM     14  C   UNL     1       4.333   3.694  16.545  0.00  0.00    +0.000 A 
ATOM     15  C   UNL     1       4.050   4.956  17.088  0.00  0.00    +0.000 A 
BRANCH   7  16
ATOM     16  C   UNL     1       1.799   4.679  18.139  0.00  0.00    +0.000 C 
BRANCH  16  18
ATOM     17  C   UNL     1       1.880   3.451  20.509  0.00  0.00    +0.000 C 
ATOM     18  C   UNL     1       1.883   3.975  19.430  0.00  0.00    +0.000 C 
ENDBRANCH  16  18
ENDBRANCH   7  16
ENDBRANCH   1   8
BRANCH   4  19
ATOM     19  C   UNL     1       0.072  10.611  21.152  0.00  0.00    +0.000 C 
ATOM     20  O   UNL     1       0.175  10.667  22.376  0.00  0.00    +0.000 OA
ATOM     21  N   UNL     1      -0.717  11.473  20.403  0.00  0.00    +0.000 N 
ATOM     22  H   UNL     1      -0.802  11.398  19.401  0.00  0.00    +0.000 HD
BRANCH  21  23
ATOM     23  N   UNL     1      -1.448  12.421  21.058  0.00  0.00    +0.000 NA
ATOM     24  C   UNL     1      -2.711  12.185  21.196  0.00  0.00    +0.000 C 
BRANCH  24  25
ATOM     25  C   UNL     1      -3.585  13.126  21.930  0.00  0.00    +0.000 A 
ATOM     26  C   UNL     1      -4.772  13.590  21.351  0.00  0.00    +0.000 A 
ATOM     27  C   UNL     1      -5.548  14.543  22.017  0.00  0.00    +0.000 A 
ATOM     28  C   UNL     1      -5.139  15.019  23.262  0.00  0.00    +0.000 A 
ATOM     29 CL   UNL     1      -6.067  16.226  24.061  0.00  0.00    +0.000 Cl
ATOM     30  C   UNL     1      -3.974  14.533  23.858  0.00  0.00    +0.000 A 
ATOM     31  C   UNL     1      -3.191  13.585  23.190  0.00  0.00    +0.000 A 
ENDBRANCH  24  25
ENDBRANCH  21  23
ENDBRANCH   4  19
TORSDOF 6
ENDMDL
MODEL 6
REMARK VINA RESULT:      -7.6      1.146      1.659
REMARK  Name = 
REMARK  6 active torsions:
REMARK  status: ('A' for Active; 'I' for Inactive)
REMARK    1  A    between atoms: C_2  and  C_3
REMARK    2  A    between atoms: C_3  and  N_4
REMARK    3  A    between atoms: C_5  and  C_6
REMARK    4  A    between atoms: C_9  and  C_10
REMARK    5  A    between atoms: N_12  and  N_13
REMARK    6  A    between atoms: C_14  and  C_15
REMARK                            x       y       z     vdW  Elec       q    Type
REMARK                         _______ _______ _______ _____ _____    ______ ____
ROOT
ATOM      1  C   UNL     1       2.032   7.790  19.345  0.00  0.00    +0.000 A 
ATOM      2  C   UNL     1       1.420   8.957  18.885  0.00  0.00    +0.000 A 
ATOM      3  C   UNL     1       0.711   9.803  19.743  0.00  0.00    +0.000 A 
ATOM      4  C   UNL     1       0.521   9.466  21.087  0.00  0.00    +0.000 A 
ATOM      5  C   UNL     1       1.037   8.247  21.542  0.00  0.00    +0.000 A 
ATOM      6  C   UNL     1       1.789   7.426  20.679  0.00  0.00    +0.000 A 
ENDROOT
BRANCH   1   8
ATOM      7  N   UNL     1       2.792   5.572  18.299  0.00  0.00    +0.000 N 
ATOM      8  C   UNL     1       2.900   6.945  18.498  0.00  0.00    +0.000 A 
ATOM      9  N   UNL     1       3.872   7.424  17.733  0.00  0.00    +0.000 NA
ATOM     10  C   UNL     1       4.418   6.356  17.067  0.00  0.00    +0.000 A 
ATOM     11  C   UNL     1       5.470   6.320  16.138  0.00  0.00    +0.000 A 
ATOM     12  C   UNL     1       5.842   5.089  15.580  0.00  0.00    +0.000 A 
ATOM     13  C   UNL     1       5.179   3.916  15.939  0.00  0.00    +0.000 A 
ATOM     14  C   UNL     1       4.127   3.934  16.862  0.00  0.00    +0.000 A 
ATOM     15  C   UNL     1       3.771   5.176  17.406  0.00  0.00    +0.000 A 
BRANCH   7  16
ATOM     16  C   UNL     1       1.758   4.678  18.803  0.00  0.00    +0.000 C 
BRANCH  16  18
ATOM     17  C   UNL     1       2.430   3.578  21.142  0.00  0.00    +0.000 C 
ATOM     18  C   UNL     1       2.138   4.028  20.070  0.00  0.00    +0.000 C 
ENDBRANCH  16  18
ENDBRANCH   7  16
ENDBRANCH   1   8
BRANCH   4  19
ATOM     19  C   UNL     1      -0.224  10.458  21.927  0.00  0.00    +0.000 C 
ATOM     20  O   UNL     1      -0.092  10.413  23.149  0.00  0.00    +0.000 OA
ATOM     21  N   UNL     1      -1.041  11.368  21.271  0.00  0.00    +0.000 N 
ATOM     22  H   UNL     1      -1.150  11.375  20.268  0.00  0.00    +0.000 HD
BRANCH  21  23
ATOM     23  N   UNL     1      -1.766  12.248  22.020  0.00  0.00    +0.000 NA
ATOM     24  C   UNL     1      -1.243  13.415  22.212  0.00  0.00    +0.000 C 
BRANCH  24  25
ATOM     25  C   UNL     1      -1.967  14.457  22.972  0.00  0.00    +0.000 A 
ATOM     26  C   UNL     1      -1.558  14.805  24.265  0.00  0.00    +0.000 A 
ATOM     27  C   UNL     1      -2.298  15.730  25.005  0.00  0.00    +0.000 A 
ATOM     28  C   UNL     1      -3.436  16.311  24.446  0.00  0.00    +0.000 A 
ATOM     29 CL   UNL     1      -4.375  17.414  25.374  0.00  0.00    +0.000 Cl
ATOM     30  C   UNL     1      -3.827  15.992  23.145  0.00  0.00    +0.000 A 
ATOM     31  C   UNL     1      -3.093  15.060  22.404  0.00  0.00    +0.000 A 
ENDBRANCH  24  25
ENDBRANCH  21  23
ENDBRANCH   4  19
TORSDOF 6
ENDMDL
MODEL 7
REMARK VINA RESULT:      -7.5      1.507      1.703
REMARK  Name = 
REMARK  6 active torsions:
REMARK  status: ('A' for Active; 'I' for Inactive)
REMARK    1  A    between atoms: C_2  and  C_3
REMARK    2  A    between atoms: C_3  and  N_4
REMARK    3  A    between atoms: C_5  and  C_6
REMARK    4  A    between atoms: C_9  and  C_10
REMARK    5  A    between atoms: N_12  and  N_13
REMARK    6  A    between atoms: C_14  and  C_15
REMARK                            x       y       z     vdW  Elec       q    Type
REMARK                         _______ _______ _______ _____ _____    ______ ____
ROOT
ATOM      1  C   UNL     1       2.460   7.595  18.991  0.00  0.00    +0.000 A 
ATOM      2  C   UNL     1       2.182   7.375  20.341  0.00  0.00    +0.000 A 
ATOM      3  C   UNL     1       1.265   8.162  21.041  0.00  0.00    +0.000 A 
ATOM      4  C   UNL     1       0.646   9.258  20.431  0.00  0.00    +0.000 A 
ATOM      5  C   UNL     1       0.991   9.559  19.109  0.00  0.00    +0.000 A 
ATOM      6  C   UNL     1       1.882   8.730  18.399  0.00  0.00    +0.000 A 
ENDROOT
BRANCH   1   8
ATOM      7  N   UNL     1       3.056   5.380  17.839  0.00  0.00    +0.000 N 
ATOM      8  C   UNL     1       3.319   6.702  18.185  0.00  0.00    +0.000 A 
ATOM      9  N   UNL     1       4.445   7.092  17.604  0.00  0.00    +0.000 NA
ATOM     10  C   UNL     1       4.933   6.012  16.913  0.00  0.00    +0.000 A 
ATOM     11  C   UNL     1       6.092   5.895  16.131  0.00  0.00    +0.000 A 
ATOM     12  C   UNL     1       6.371   4.671  15.507  0.00  0.00    +0.000 A 
ATOM     13  C   UNL     1       5.512   3.583  15.659  0.00  0.00    +0.000 A 
ATOM     14  C   UNL     1       4.350   3.682  16.434  0.00  0.00    +0.000 A 
ATOM     15  C   UNL     1       4.090   4.917  17.047  0.00  0.00    +0.000 A 
BRANCH   7  16
ATOM     16  C   UNL     1       1.850   4.610  18.113  0.00  0.00    +0.000 C 
BRANCH  16  18
ATOM     17  C   UNL     1       1.877   3.534  20.556  0.00  0.00    +0.000 C 
ATOM     18  C   UNL     1       1.874   3.972  19.440  0.00  0.00    +0.000 C 
ENDBRANCH  16  18
ENDBRANCH   7  16
ENDBRANCH   1   8
BRANCH   4  19
ATOM     19  C   UNL     1      -0.346  10.015  21.260  0.00  0.00    +0.000 C 
ATOM     20  O   UNL     1      -0.783   9.489  22.282  0.00  0.00    +0.000 OA
ATOM     21  N   UNL     1      -0.728  11.272  20.813  0.00  0.00    +0.000 N 
ATOM     22  H   UNL     1      -0.372  11.677  19.961  0.00  0.00    +0.000 HD
BRANCH  21  23
ATOM     23  N   UNL     1      -1.667  11.958  21.527  0.00  0.00    +0.000 NA
ATOM     24  C   UNL     1      -2.678  12.417  20.865  0.00  0.00    +0.000 C 
BRANCH  24  25
ATOM     25  C   UNL     1      -3.774  13.136  21.552  0.00  0.00    +0.000 A 
ATOM     26  C   UNL     1      -4.618  13.992  20.835  0.00  0.00    +0.000 A 
ATOM     27  C   UNL     1      -5.596  14.730  21.507  0.00  0.00    +0.000 A 
ATOM     28  C   UNL     1      -5.733  14.600  22.889  0.00  0.00    +0.000 A 
ATOM     29 CL   UNL     1      -6.904  15.544  23.722  0.00  0.00    +0.000 Cl
ATOM     30  C   UNL     1      -4.916  13.721  23.601  0.00  0.00    +0.000 A 
ATOM     31  C   UNL     1      -3.930  12.987  22.933  0.00  0.00    +0.000 A 
ENDBRANCH  24  25
ENDBRANCH  21  23
ENDBRANCH   4  19
TORSDOF 6
ENDMDL
MODEL 8
REMARK VINA RESULT:      -7.4      1.050      1.194
REMARK  Name = 
REMARK  6 active torsions:
REMARK  status: ('A' for Active; 'I' for Inactive)
REMARK    1  A    between atoms: C_2  and  C_3
REMARK    2  A    between atoms: C_3  and  N_4
REMARK    3  A    between atoms: C_5  and  C_6
REMARK    4  A    between atoms: C_9  and  C_10
REMARK    5  A    between atoms: N_12  and  N_13
REMARK    6  A    between atoms: C_14  and  C_15
REMARK                            x       y       z     vdW  Elec       q    Type
REMARK                         _______ _______ _______ _____ _____    ______ ____
ROOT
ATOM      1  C   UNL     1       2.440   7.753  18.738  0.00  0.00    +0.000 A 
ATOM      2  C   UNL     1       2.150   7.673  20.101  0.00  0.00    +0.000 A 
ATOM      3  C   UNL     1       1.205   8.508  20.702  0.00  0.00    +0.000 A 
ATOM      4  C   UNL     1       0.570   9.516  19.971  0.00  0.00    +0.000 A 
ATOM      5  C   UNL     1       0.926   9.682  18.628  0.00  0.00    +0.000 A 
ATOM      6  C   UNL     1       1.845   8.803  18.021  0.00  0.00    +0.000 A 
ENDROOT
BRANCH   1   8
ATOM      7  N   UNL     1       3.068   5.460  17.769  0.00  0.00    +0.000 N 
ATOM      8  C   UNL     1       3.330   6.799  18.043  0.00  0.00    +0.000 A 
ATOM      9  N   UNL     1       4.493   7.138  17.503  0.00  0.00    +0.000 NA
ATOM     10  C   UNL     1       5.003   6.010  16.912  0.00  0.00    +0.000 A 
ATOM     11  C   UNL     1       6.203   5.829  16.207  0.00  0.00    +0.000 A 
ATOM     12  C   UNL     1       6.498   4.564  15.681  0.00  0.00    +0.000 A 
ATOM     13  C   UNL     1       5.616   3.497  15.855  0.00  0.00    +0.000 A 
ATOM     14  C   UNL     1       4.414   3.660  16.554  0.00  0.00    +0.000 A 
ATOM     15  C   UNL     1       4.138   4.935  17.069  0.00  0.00    +0.000 A 
BRANCH   7  16
ATOM     16  C   UNL     1       1.837   4.724  18.023  0.00  0.00    +0.000 C 
BRANCH  16  18
ATOM     17  C   UNL     1       1.652   3.706  20.485  0.00  0.00    +0.000 C 
ATOM     18  C   UNL     1       1.764   4.199  19.398  0.00  0.00    +0.000 C 
ENDBRANCH  16  18
ENDBRANCH   7  16
ENDBRANCH   1   8
BRANCH   4  19
ATOM     19  C   UNL     1      -0.450  10.334  20.703  0.00  0.00    +0.000 C 
ATOM     20  O   UNL     1      -0.791   9.980  21.830  0.00  0.00    +0.000 OA
ATOM     21  N   UNL     1      -0.966  11.447  20.053  0.00  0.00    +0.000 N 
ATOM     22  H   UNL     1      -0.687  11.709  19.120  0.00  0.00    +0.000 HD
BRANCH  21  23
ATOM     23  N   UNL     1      -1.932  12.177  20.682  0.00  0.00    +0.000 NA
ATOM     24  C   UNL     1      -1.526  13.087  21.505  0.00  0.00    +0.000 C 
BRANCH  24  25
ATOM     25  C   UNL     1      -2.490  13.964  22.205  0.00  0.00    +0.000 A 
ATOM     26  C   UNL     1      -2.818  13.730  23.546  0.00  0.00    +0.000 A 
ATOM     27  C   UNL     1      -3.792  14.512  24.173  0.00  0.00    +0.000 A 
ATOM     28  C   UNL     1      -4.423  15.531  23.461  0.00  0.00    +0.000 A 
ATOM     29 CL   UNL     1      -5.655  16.463  24.217  0.00  0.00    +0.000 Cl
ATOM     30  C   UNL     1      -4.074  15.790  22.134  0.00  0.00    +0.000 A 
ATOM     31  C   UNL     1      -3.106  15.003  21.501  0.00  0.00    +0.000 A 
ENDBRANCH  24  25
ENDBRANCH  21  23
ENDBRANCH   4  19
TORSDOF 6
ENDMDL
MODEL 9
REMARK VINA RESULT:      -7.4      1.602      1.673
REMARK  Name = 
REMARK  6 active torsions:
REMARK  status: ('A' for Active; 'I' for Inactive)
REMARK    1  A    between atoms: C_2  and  C_3
REMARK    2  A    between atoms: C_3  and  N_4
REMARK    3  A    between atoms: C_5  and  C_6
REMARK    4  A    between atoms: C_9  and  C_10
REMARK    5  A    between atoms: N_12  and  N_13
REMARK    6  A    between atoms: C_14  and  C_15
REMARK                            x       y       z     vdW  Elec       q    Type
REMARK                         _______ _______ _______ _____ _____    ______ ____
ROOT
ATOM      1  C   UNL     1       2.389   7.900  18.610  0.00  0.00    +0.000 A 
ATOM      2  C   UNL     1       2.011   7.844  19.953  0.00  0.00    +0.000 A 
ATOM      3  C   UNL     1       1.041   8.700  20.480  0.00  0.00    +0.000 A 
ATOM      4  C   UNL     1       0.467   9.704  19.694  0.00  0.00    +0.000 A 
ATOM      5  C   UNL     1       0.910   9.844  18.374  0.00  0.00    +0.000 A 
ATOM      6  C   UNL     1       1.854   8.946  17.841  0.00  0.00    +0.000 A 
ENDROOT
BRANCH   1   8
ATOM      7  N   UNL     1       3.052   5.583  17.725  0.00  0.00    +0.000 N 
ATOM      8  C   UNL     1       3.310   6.925  17.988  0.00  0.00    +0.000 A 
ATOM      9  N   UNL     1       4.506   7.244  17.511  0.00  0.00    +0.000 NA
ATOM     10  C   UNL     1       5.039   6.100  16.974  0.00  0.00    +0.000 A 
ATOM     11  C   UNL     1       6.277   5.895  16.344  0.00  0.00    +0.000 A 
ATOM     12  C   UNL     1       6.591   4.617  15.862  0.00  0.00    +0.000 A 
ATOM     13  C   UNL     1       5.690   3.561  16.003  0.00  0.00    +0.000 A 
ATOM     14  C   UNL     1       4.450   3.748  16.627  0.00  0.00    +0.000 A 
ATOM     15  C   UNL     1       4.157   5.035  17.100  0.00  0.00    +0.000 A 
BRANCH   7  16
ATOM     16  C   UNL     1       1.802   4.862  17.920  0.00  0.00    +0.000 C 
BRANCH  16  18
ATOM     17  C   UNL     1       1.530   3.979  20.426  0.00  0.00    +0.000 C 
ATOM     18  C   UNL     1       1.662   4.328  19.286  0.00  0.00    +0.000 C 
ENDBRANCH  16  18
ENDBRANCH   7  16
ENDBRANCH   1   8
BRANCH   4  19
ATOM     19  C   UNL     1      -0.588  10.545  20.347  0.00  0.00    +0.000 C 
ATOM     20  O   UNL     1      -0.736  10.463  21.565  0.00  0.00    +0.000 OA
ATOM     21  N   UNL     1      -1.353  11.363  19.528  0.00  0.00    +0.000 N 
ATOM     22  H   UNL     1      -1.228  11.400  18.528  0.00  0.00    +0.000 HD
BRANCH  21  23
ATOM     23  N   UNL     1      -2.351  12.100  20.096  0.00  0.00    +0.000 NA
ATOM     24  C   UNL     1      -2.071  13.328  20.387  0.00  0.00    +0.000 C 
BRANCH  24  25
ATOM     25  C   UNL     1      -3.095  14.226  20.965  0.00  0.00    +0.000 A 
ATOM     26  C   UNL     1      -4.457  13.946  20.801  0.00  0.00    +0.000 A 
ATOM     27  C   UNL     1      -5.416  14.844  21.278  0.00  0.00    +0.000 A 
ATOM     28  C   UNL     1      -5.009  16.011  21.925  0.00  0.00    +0.000 A 
ATOM     29 CL   UNL     1      -6.187  17.139  22.469  0.00  0.00    +0.000 Cl
ATOM     30  C   UNL     1      -3.653  16.276  22.119  0.00  0.00    +0.000 A 
ATOM     31  C   UNL     1      -2.690  15.383  21.636  0.00  0.00    +0.000 A 
ENDBRANCH  24  25
ENDBRANCH  21  23
ENDBRANCH   4  19
TORSDOF 6
ENDMDL
