MODEL 1
REMARK VINA RESULT:      -8.7      0.000      0.000
REMARK  Name = 
REMARK  8 active torsions:
REMARK  status: ('A' for Active; 'I' for Inactive)
REMARK    1  A    between atoms: C_4  and  O_5
REMARK    2  A    between atoms: O_5  and  C_6
REMARK    3  A    between atoms: C_6  and  C_7
REMARK    4  A    between atoms: C_7  and  C_8
REMARK    5  A    between atoms: C_8  and  N_9
REMARK    6  A    between atoms: N_9  and  C_10
REMARK    7  A    between atoms: C_20  and  N_21
REMARK    8  A    between atoms: N_21  and  C_22
REMARK                            x       y       z     vdW  Elec       q    Type
REMARK                         _______ _______ _______ _____ _____    ______ ____
ROOT
ATOM      1  C   UNL     1       2.609   9.275  17.414  0.00  0.00    +0.000 A 
ATOM      2  C   UNL     1       3.110   8.005  17.561  0.00  0.00    +0.000 A 
ATOM      3  C   UNL     1       2.753   7.214  18.701  0.00  0.00    +0.000 A 
ATOM      4  C   UNL     1       1.855   7.662  19.674  0.00  0.00    +0.000 A 
ATOM      5  C   UNL     1       1.262   8.961  19.444  0.00  0.00    +0.000 A 
ATOM      6  C   UNL     1       1.700   9.764  18.344  0.00  0.00    +0.000 A 
ENDROOT
BRANCH   5   7
ATOM      7  N   UNL     1       0.143   9.529  20.136  0.00  0.00    +0.000 N 
ATOM      8  H   UNL     1       0.307   9.538  21.143  0.00  0.00    +0.000 HD
BRANCH   7   9
ATOM      9  C   UNL     1      -0.594  10.703  19.829  0.00  0.00    +0.000 A 
ATOM     10  C   UNL     1      -1.687  10.720  18.903  0.00  0.00    +0.000 A 
ATOM     11  C   UNL     1      -1.943   9.881  17.794  0.00  0.00    +0.000 A 
ATOM     12  C   UNL     1      -3.219   9.827  17.212  0.00  0.00    +0.000 A 
ATOM     13  C   UNL     1      -4.207  10.674  17.720  0.00  0.00    +0.000 A 
ATOM     14  C   UNL     1      -3.843  11.694  18.587  0.00  0.00    +0.000 A 
ATOM     15  C   UNL     1      -2.526  11.805  19.010  0.00  0.00    +0.000 A 
ATOM     16  N   UNL     1      -2.028  12.991  19.395  0.00  0.00    +0.000 NA
ATOM     17  C   UNL     1      -0.732  12.983  19.699  0.00  0.00    +0.000 A 
ATOM     18  C   UNL     1       0.222  13.671  18.956  0.00  0.00    +0.000 A 
ATOM     19  C   UNL     1       1.580  13.604  19.280  0.00  0.00    +0.000 A 
ATOM     20  C   UNL     1       1.931  13.030  20.494  0.00  0.00    +0.000 A 
ATOM     21  C   UNL     1       0.987  12.231  21.125  0.00  0.00    +0.000 A 
ATOM     22  C   UNL     1      -0.190  11.942  20.410  0.00  0.00    +0.000 A 
ENDBRANCH   7   9
ENDBRANCH   5   7
BRANCH   4  23
ATOM     23  O   UNL     1       1.406   6.835  20.704  0.00  0.00    +0.000 OA
BRANCH  23  24
ATOM     24  C   UNL     1       1.949   5.497  20.999  0.00  0.00    +0.000 C 
BRANCH  24  25
ATOM     25  C   UNL     1       1.163   4.256  20.385  0.00  0.00    +0.000 C 
BRANCH  25  26
ATOM     26  C   UNL     1       1.171   4.038  18.812  0.00  0.00    +0.000 C 
BRANCH  26  27
ATOM     27  N   UNL     1       1.837   2.756  18.474  0.00  0.00    +0.000 N 
ATOM     28  H   UNL     1       1.229   1.937  18.469  0.00  0.00    +0.000 HD
BRANCH  27  29
ATOM     29  C   UNL     1       3.109   2.437  17.822  0.00  0.00    +0.000 A 
ATOM     30  C   UNL     1       3.687   1.330  18.451  0.00  0.00    +0.000 A 
ATOM     31  C   UNL     1       4.459   1.604  19.577  0.00  0.00    +0.000 A 
ATOM     32  N   UNL     1       4.830   2.857  19.938  0.00  0.00    +0.000 NA
ATOM     33  C   UNL     1       4.734   3.787  18.980  0.00  0.00    +0.000 A 
ATOM     34  C   UNL     1       5.519   4.928  19.089  0.00  0.00    +0.000 A 
ATOM     35  C   UNL     1       5.918   5.629  17.953  0.00  0.00    +0.000 A 
ATOM     36  C   UNL     1       5.523   5.164  16.705  0.00  0.00    +0.000 A 
ATOM     37  C   UNL     1       4.571   4.135  16.617  0.00  0.00    +0.000 A 
ATOM     38  C   UNL     1       4.053   3.510  17.786  0.00  0.00    +0.000 A 
ENDBRANCH  27  29
ENDBRANCH  26  27
ENDBRANCH  25  26
ENDBRANCH  24  25
ENDBRANCH  23  24
ENDBRANCH   4  23
TORSDOF 8
ENDMDL
MODEL 2
REMARK VINA RESULT:      -8.4      2.065      9.120
REMARK  Name = 
REMARK  8 active torsions:
REMARK  status: ('A' for Active; 'I' for Inactive)
REMARK    1  A    between atoms: C_4  and  O_5
REMARK    2  A    between atoms: O_5  and  C_6
REMARK    3  A    between atoms: C_6  and  C_7
REMARK    4  A    between atoms: C_7  and  C_8
REMARK    5  A    between atoms: C_8  and  N_9
REMARK    6  A    between atoms: N_9  and  C_10
REMARK    7  A    between atoms: C_20  and  N_21
REMARK    8  A    between atoms: N_21  and  C_22
REMARK                            x       y       z     vdW  Elec       q    Type
REMARK                         _______ _______ _______ _____ _____    ______ ____
ROOT
ATOM      1  C   UNL     1       1.583   8.858  17.564  0.00  0.00    +0.000 A 
ATOM      2  C   UNL     1       0.843   9.750  18.300  0.00  0.00    +0.000 A 
ATOM      3  C   UNL     1       0.677   9.560  19.711  0.00  0.00    +0.000 A 
ATOM      4  C   UNL     1       1.288   8.512  20.404  0.00  0.00    +0.000 A 
ATOM      5  C   UNL     1       2.145   7.646  19.625  0.00  0.00    +0.000 A 
ATOM      6  C   UNL     1       2.226   7.806  18.206  0.00  0.00    +0.000 A 
ENDROOT
BRANCH   5   7
ATOM      7  N   UNL     1       3.072   6.676  20.128  0.00  0.00    +0.000 N 
ATOM      8  H   UNL     1       2.809   6.377  21.068  0.00  0.00    +0.000 HD
BRANCH   7   9
ATOM      9  C   UNL     1       3.619   5.541  19.474  0.00  0.00    +0.000 A 
ATOM     10  C   UNL     1       4.645   5.631  18.479  0.00  0.00    +0.000 A 
ATOM     11  C   UNL     1       4.953   6.691  17.595  0.00  0.00    +0.000 A 
ATOM     12  C   UNL     1       6.189   6.739  16.931  0.00  0.00    +0.000 A 
ATOM     13  C   UNL     1       7.076   5.677  17.122  0.00  0.00    +0.000 A 
ATOM     14  C   UNL     1       6.623   4.519  17.738  0.00  0.00    +0.000 A 
ATOM     15  C   UNL     1       5.329   4.462  18.236  0.00  0.00    +0.000 A 
ATOM     16  N   UNL     1       4.692   3.286  18.358  0.00  0.00    +0.000 NA
ATOM     17  C   UNL     1       3.429   3.372  18.770  0.00  0.00    +0.000 A 
ATOM     18  C   UNL     1       2.349   3.020  17.969  0.00  0.00    +0.000 A 
ATOM     19  C   UNL     1       1.033   3.165  18.421  0.00  0.00    +0.000 A 
ATOM     20  C   UNL     1       0.835   3.444  19.766  0.00  0.00    +0.000 A 
ATOM     21  C   UNL     1       1.916   3.933  20.488  0.00  0.00    +0.000 A 
ATOM     22  C   UNL     1       3.080   4.252  19.764  0.00  0.00    +0.000 A 
ENDBRANCH   7   9
ENDBRANCH   5   7
BRANCH   4  23
ATOM     23  O   UNL     1       1.236   8.415  21.795  0.00  0.00    +0.000 OA
BRANCH  23  24
ATOM     24  C   UNL     1       0.936   9.539  22.701  0.00  0.00    +0.000 C 
BRANCH  24  25
ATOM     25  C   UNL     1      -0.536   9.596  23.304  0.00  0.00    +0.000 C 
BRANCH  25  26
ATOM     26  C   UNL     1      -1.362  10.948  23.201  0.00  0.00    +0.000 C 
BRANCH  26  27
ATOM     27  N   UNL     1      -0.890  11.752  22.047  0.00  0.00    +0.000 N 
ATOM     28  H   UNL     1      -1.384  11.587  21.170  0.00  0.00    +0.000 HD
BRANCH  27  29
ATOM     29  C   UNL     1      -0.089  12.975  21.945  0.00  0.00    +0.000 A 
ATOM     30  C   UNL     1      -0.916  14.087  22.127  0.00  0.00    +0.000 A 
ATOM     31  C   UNL     1      -1.570  14.552  20.989  0.00  0.00    +0.000 A 
ATOM     32  N   UNL     1      -1.279  14.123  19.736  0.00  0.00    +0.000 NA
ATOM     33  C   UNL     1      -0.100  13.506  19.596  0.00  0.00    +0.000 A 
ATOM     34  C   UNL     1       0.483  13.480  18.334  0.00  0.00    +0.000 A 
ATOM     35  C   UNL     1       1.867  13.399  18.191  0.00  0.00    +0.000 A 
ATOM     36  C   UNL     1       2.658  13.352  19.332  0.00  0.00    +0.000 A 
ATOM     37  C   UNL     1       2.054  13.178  20.588  0.00  0.00    +0.000 A 
ATOM     38  C   UNL     1       0.638  13.117  20.723  0.00  0.00    +0.000 A 
ENDBRANCH  27  29
ENDBRANCH  26  27
ENDBRANCH  25  26
ENDBRANCH  24  25
ENDBRANCH  23  24
ENDBRANCH   4  23
TORSDOF 8
ENDMDL
MODEL 3
REMARK VINA RESULT:      -8.2      2.292      4.603
REMARK  Name = 
REMARK  8 active torsions:
REMARK  status: ('A' for Active; 'I' for Inactive)
REMARK    1  A    between atoms: C_4  and  O_5
REMARK    2  A    between atoms: O_5  and  C_6
REMARK    3  A    between atoms: C_6  and  C_7
REMARK    4  A    between atoms: C_7  and  C_8
REMARK    5  A    between atoms: C_8  and  N_9
REMARK    6  A    between atoms: N_9  and  C_10
REMARK    7  A    between atoms: C_20  and  N_21
REMARK    8  A    between atoms: N_21  and  C_22
REMARK                            x       y       z     vdW  Elec       q    Type
REMARK                         _______ _______ _______ _____ _____    ______ ____
ROOT
ATOM      1  C   UNL     1      -0.184   9.864  23.077  0.00  0.00    +0.000 A 
ATOM      2  C   UNL     1       0.842   9.213  22.437  0.00  0.00    +0.000 A 
ATOM      3  C   UNL     1       1.094   9.451  21.047  0.00  0.00    +0.000 A 
ATOM      4  C   UNL     1       0.360  10.376  20.299  0.00  0.00    +0.000 A 
ATOM      5  C   UNL     1      -0.647  11.123  21.019  0.00  0.00    +0.000 A 
ATOM      6  C   UNL     1      -0.935  10.806  22.384  0.00  0.00    +0.000 A 
ENDROOT
BRANCH   5   7
ATOM      7  N   UNL     1      -1.345  12.287  20.560  0.00  0.00    +0.000 N 
ATOM      8  H   UNL     1      -0.746  12.856  19.961  0.00  0.00    +0.000 HD
BRANCH   7   9
ATOM      9  C   UNL     1      -2.663  12.392  20.042  0.00  0.00    +0.000 A 
ATOM     10  C   UNL     1      -3.800  12.709  20.855  0.00  0.00    +0.000 A 
ATOM     11  C   UNL     1      -4.013  12.483  22.234  0.00  0.00    +0.000 A 
ATOM     12  C   UNL     1      -5.033  13.157  22.924  0.00  0.00    +0.000 A 
ATOM     13  C   UNL     1      -5.867  14.006  22.194  0.00  0.00    +0.000 A 
ATOM     14  C   UNL     1      -5.829  13.964  20.807  0.00  0.00    +0.000 A 
ATOM     15  C   UNL     1      -4.905  13.151  20.166  0.00  0.00    +0.000 A 
ATOM     16  N   UNL     1      -5.144  12.687  18.929  0.00  0.00    +0.000 NA
ATOM     17  C   UNL     1      -4.220  11.852  18.455  0.00  0.00    +0.000 A 
ATOM     18  C   UNL     1      -4.478  10.510  18.197  0.00  0.00    +0.000 A 
ATOM     19  C   UNL     1      -3.471   9.654  17.741  0.00  0.00    +0.000 A 
ATOM     20  C   UNL     1      -2.273  10.221  17.328  0.00  0.00    +0.000 A 
ATOM     21  C   UNL     1      -2.000  11.519  17.737  0.00  0.00    +0.000 A 
ATOM     22  C   UNL     1      -2.887  12.099  18.664  0.00  0.00    +0.000 A 
ENDBRANCH   7   9
ENDBRANCH   5   7
BRANCH   4  23
ATOM     23  O   UNL     1       0.701  10.703  18.986  0.00  0.00    +0.000 OA
BRANCH  23  24
ATOM     24  C   UNL     1       1.912  10.227  18.293  0.00  0.00    +0.000 C 
BRANCH  24  25
ATOM     25  C   UNL     1       1.843   8.771  17.655  0.00  0.00    +0.000 C 
BRANCH  25  26
ATOM     26  C   UNL     1       3.099   7.809  17.784  0.00  0.00    +0.000 C 
BRANCH  26  27
ATOM     27  N   UNL     1       2.663   6.440  18.154  0.00  0.00    +0.000 N 
ATOM     28  H   UNL     1       1.745   6.165  17.805  0.00  0.00    +0.000 HD
BRANCH  27  29
ATOM     29  C   UNL     1       3.387   5.261  18.637  0.00  0.00    +0.000 A 
ATOM     30  C   UNL     1       3.812   4.499  17.545  0.00  0.00    +0.000 A 
ATOM     31  C   UNL     1       2.886   3.589  17.040  0.00  0.00    +0.000 A 
ATOM     32  N   UNL     1       1.729   3.277  17.673  0.00  0.00    +0.000 NA
ATOM     33  C   UNL     1       1.674   3.600  18.971  0.00  0.00    +0.000 A 
ATOM     34  C   UNL     1       0.784   2.910  19.784  0.00  0.00    +0.000 A 
ATOM     35  C   UNL     1       1.037   2.754  21.145  0.00  0.00    +0.000 A 
ATOM     36  C   UNL     1       2.200   3.295  21.677  0.00  0.00    +0.000 A 
ATOM     37  C   UNL     1       2.986   4.156  20.894  0.00  0.00    +0.000 A 
ATOM     38  C   UNL     1       2.650   4.431  19.538  0.00  0.00    +0.000 A 
ENDBRANCH  27  29
ENDBRANCH  26  27
ENDBRANCH  25  26
ENDBRANCH  24  25
ENDBRANCH  23  24
ENDBRANCH   4  23
TORSDOF 8
ENDMDL
MODEL 4
REMARK VINA RESULT:      -8.2      2.370      9.339
REMARK  Name = 
REMARK  8 active torsions:
REMARK  status: ('A' for Active; 'I' for Inactive)
REMARK    1  A    between atoms: C_4  and  O_5
REMARK    2  A    between atoms: O_5  and  C_6
REMARK    3  A    between atoms: C_6  and  C_7
REMARK    4  A    between atoms: C_7  and  C_8
REMARK    5  A    between atoms: C_8  and  N_9
REMARK    6  A    between atoms: N_9  and  C_10
REMARK    7  A    between atoms: C_20  and  N_21
REMARK    8  A    between atoms: N_21  and  C_22
REMARK                            x       y       z     vdW  Elec       q    Type
REMARK                         _______ _______ _______ _____ _____    ______ ____
ROOT
ATOM      1  C   UNL     1       0.886   9.876  17.616  0.00  0.00    +0.000 A 
ATOM      2  C   UNL     1       0.178  10.429  18.655  0.00  0.00    +0.000 A 
ATOM      3  C   UNL     1       0.239   9.847  19.963  0.00  0.00    +0.000 A 
ATOM      4  C   UNL     1       1.044   8.742  20.255  0.00  0.00    +0.000 A 
ATOM      5  C   UNL     1       1.858   8.241  19.170  0.00  0.00    +0.000 A 
ATOM      6  C   UNL     1       1.715   8.786  17.855  0.00  0.00    +0.000 A 
ENDROOT
BRANCH   5   7
ATOM      7  N   UNL     1       2.938   7.304  19.268  0.00  0.00    +0.000 N 
ATOM      8  H   UNL     1       3.240   7.200  20.238  0.00  0.00    +0.000 HD
BRANCH   7   9
ATOM      9  C   UNL     1       3.074   6.031  18.655  0.00  0.00    +0.000 A 
ATOM     10  C   UNL     1       2.451   4.846  19.166  0.00  0.00    +0.000 A 
ATOM     11  C   UNL     1       2.071   4.527  20.490  0.00  0.00    +0.000 A 
ATOM     12  C   UNL     1       1.175   3.477  20.748  0.00  0.00    +0.000 A 
ATOM     13  C   UNL     1       0.724   2.720  19.665  0.00  0.00    +0.000 A 
ATOM     14  C   UNL     1       1.351   2.859  18.435  0.00  0.00    +0.000 A 
ATOM     15  C   UNL     1       2.352   3.806  18.272  0.00  0.00    +0.000 A 
ATOM     16  N   UNL     1       3.301   3.646  17.335  0.00  0.00    +0.000 NA
ATOM     17  C   UNL     1       4.250   4.580  17.333  0.00  0.00    +0.000 A 
ATOM     18  C   UNL     1       5.576   4.308  17.650  0.00  0.00    +0.000 A 
ATOM     19  C   UNL     1       6.537   5.324  17.680  0.00  0.00    +0.000 A 
ATOM     20  C   UNL     1       6.190   6.562  17.159  0.00  0.00    +0.000 A 
ATOM     21  C   UNL     1       4.839   6.837  16.997  0.00  0.00    +0.000 A 
ATOM     22  C   UNL     1       3.927   5.901  17.519  0.00  0.00    +0.000 A 
ENDBRANCH   7   9
ENDBRANCH   5   7
BRANCH   4  23
ATOM     23  O   UNL     1       1.205   8.268  21.558  0.00  0.00    +0.000 OA
BRANCH  23  24
ATOM     24  C   UNL     1       1.452   9.122  22.734  0.00  0.00    +0.000 C 
BRANCH  24  25
ATOM     25  C   UNL     1       0.194   9.453  23.652  0.00  0.00    +0.000 C 
BRANCH  25  26
ATOM     26  C   UNL     1      -1.064  10.176  23.009  0.00  0.00    +0.000 C 
BRANCH  26  27
ATOM     27  N   UNL     1      -0.915  11.649  23.103  0.00  0.00    +0.000 N 
ATOM     28  H   UNL     1      -0.267  11.977  23.820  0.00  0.00    +0.000 HD
BRANCH  27  29
ATOM     29  C   UNL     1      -1.236  12.743  22.183  0.00  0.00    +0.000 A 
ATOM     30  C   UNL     1      -1.082  13.965  22.844  0.00  0.00    +0.000 A 
ATOM     31  C   UNL     1      -2.181  14.405  23.577  0.00  0.00    +0.000 A 
ATOM     32  N   UNL     1      -3.406  13.829  23.498  0.00  0.00    +0.000 NA
ATOM     33  C   UNL     1      -3.613  13.054  22.427  0.00  0.00    +0.000 A 
ATOM     34  C   UNL     1      -4.922  12.838  22.014  0.00  0.00    +0.000 A 
ATOM     35  C   UNL     1      -5.212  12.565  20.679  0.00  0.00    +0.000 A 
ATOM     36  C   UNL     1      -4.170  12.522  19.762  0.00  0.00    +0.000 A 
ATOM     37  C   UNL     1      -2.842  12.543  20.219  0.00  0.00    +0.000 A 
ATOM     38  C   UNL     1      -2.542  12.678  21.604  0.00  0.00    +0.000 A 
ENDBRANCH  27  29
ENDBRANCH  26  27
ENDBRANCH  25  26
ENDBRANCH  24  25
ENDBRANCH  23  24
ENDBRANCH   4  23
TORSDOF 8
ENDMDL
MODEL 5
REMARK VINA RESULT:      -8.1      2.961      9.904
REMARK  Name = 
REMARK  8 active torsions:
REMARK  status: ('A' for Active; 'I' for Inactive)
REMARK    1  A    between atoms: C_4  and  O_5
REMARK    2  A    between atoms: O_5  and  C_6
REMARK    3  A    between atoms: C_6  and  C_7
REMARK    4  A    between atoms: C_7  and  C_8
REMARK    5  A    between atoms: C_8  and  N_9
REMARK    6  A    between atoms: N_9  and  C_10
REMARK    7  A    between atoms: C_20  and  N_21
REMARK    8  A    between atoms: N_21  and  C_22
REMARK                            x       y       z     vdW  Elec       q    Type
REMARK                         _______ _______ _______ _____ _____    ______ ____
ROOT
ATOM      1  C   UNL     1       1.575  10.026  17.698  0.00  0.00    +0.000 A 
ATOM      2  C   UNL     1       0.773  10.699  18.586  0.00  0.00    +0.000 A 
ATOM      3  C   UNL     1       0.459  10.121  19.859  0.00  0.00    +0.000 A 
ATOM      4  C   UNL     1       0.984   8.895  20.276  0.00  0.00    +0.000 A 
ATOM      5  C   UNL     1       1.908   8.254  19.366  0.00  0.00    +0.000 A 
ATOM      6  C   UNL     1       2.137   8.810  18.067  0.00  0.00    +0.000 A 
ENDROOT
BRANCH   5   7
ATOM      7  N   UNL     1       2.767   7.144  19.654  0.00  0.00    +0.000 N 
ATOM      8  H   UNL     1       2.732   6.908  20.646  0.00  0.00    +0.000 HD
BRANCH   7   9
ATOM      9  C   UNL     1       2.917   5.923  18.944  0.00  0.00    +0.000 A 
ATOM     10  C   UNL     1       2.317   4.694  19.368  0.00  0.00    +0.000 A 
ATOM     11  C   UNL     1       1.952   4.269  20.667  0.00  0.00    +0.000 A 
ATOM     12  C   UNL     1       1.075   3.188  20.850  0.00  0.00    +0.000 A 
ATOM     13  C   UNL     1       0.626   2.509  19.715  0.00  0.00    +0.000 A 
ATOM     14  C   UNL     1       1.241   2.750  18.495  0.00  0.00    +0.000 A 
ATOM     15  C   UNL     1       2.226   3.723  18.398  0.00  0.00    +0.000 A 
ATOM     16  N   UNL     1       3.169   3.651  17.444  0.00  0.00    +0.000 NA
ATOM     17  C   UNL     1       4.104   4.597  17.507  0.00  0.00    +0.000 A 
ATOM     18  C   UNL     1       5.437   4.323  17.793  0.00  0.00    +0.000 A 
ATOM     19  C   UNL     1       6.383   5.348  17.893  0.00  0.00    +0.000 A 
ATOM     20  C   UNL     1       6.012   6.617  17.470  0.00  0.00    +0.000 A 
ATOM     21  C   UNL     1       4.655   6.882  17.340  0.00  0.00    +0.000 A 
ATOM     22  C   UNL     1       3.762   5.894  17.795  0.00  0.00    +0.000 A 
ENDBRANCH   7   9
ENDBRANCH   5   7
BRANCH   4  23
ATOM     23  O   UNL     1       0.787   8.406  21.568  0.00  0.00    +0.000 OA
BRANCH  23  24
ATOM     24  C   UNL     1       0.823   9.232  22.789  0.00  0.00    +0.000 C 
BRANCH  24  25
ATOM     25  C   UNL     1      -0.550   9.898  23.240  0.00  0.00    +0.000 C 
BRANCH  25  26
ATOM     26  C   UNL     1      -0.816  11.426  22.902  0.00  0.00    +0.000 C 
BRANCH  26  27
ATOM     27  N   UNL     1      -2.266  11.662  22.695  0.00  0.00    +0.000 N 
ATOM     28  H   UNL     1      -2.887  11.052  23.227  0.00  0.00    +0.000 HD
BRANCH  27  29
ATOM     29  C   UNL     1      -3.024  12.791  22.149  0.00  0.00    +0.000 A 
ATOM     30  C   UNL     1      -2.529  13.984  22.683  0.00  0.00    +0.000 A 
ATOM     31  C   UNL     1      -3.058  14.366  23.914  0.00  0.00    +0.000 A 
ATOM     32  N   UNL     1      -4.136  13.769  24.477  0.00  0.00    +0.000 NA
ATOM     33  C   UNL     1      -4.894  13.041  23.647  0.00  0.00    +0.000 A 
ATOM     34  C   UNL     1      -6.221  12.817  23.993  0.00  0.00    +0.000 A 
ATOM     35  C   UNL     1      -7.185  12.601  23.011  0.00  0.00    +0.000 A 
ATOM     36  C   UNL     1      -6.801  12.622  21.677  0.00  0.00    +0.000 A 
ATOM     37  C   UNL     1      -5.435  12.649  21.349  0.00  0.00    +0.000 A 
ATOM     38  C   UNL     1      -4.436  12.726  22.360  0.00  0.00    +0.000 A 
ENDBRANCH  27  29
ENDBRANCH  26  27
ENDBRANCH  25  26
ENDBRANCH  24  25
ENDBRANCH  23  24
ENDBRANCH   4  23
TORSDOF 8
ENDMDL
MODEL 6
REMARK VINA RESULT:      -8.1      2.032      8.828
REMARK  Name = 
REMARK  8 active torsions:
REMARK  status: ('A' for Active; 'I' for Inactive)
REMARK    1  A    between atoms: C_4  and  O_5
REMARK    2  A    between atoms: O_5  and  C_6
REMARK    3  A    between atoms: C_6  and  C_7
REMARK    4  A    between atoms: C_7  and  C_8
REMARK    5  A    between atoms: C_8  and  N_9
REMARK    6  A    between atoms: N_9  and  C_10
REMARK    7  A    between atoms: C_20  and  N_21
REMARK    8  A    between atoms: N_21  and  C_22
REMARK                            x       y       z     vdW  Elec       q    Type
REMARK                         _______ _______ _______ _____ _____    ______ ____
ROOT
ATOM      1  C   UNL     1       1.176   9.535  17.513  0.00  0.00    +0.000 A 
ATOM      2  C   UNL     1       0.463  10.248  18.445  0.00  0.00    +0.000 A 
ATOM      3  C   UNL     1       0.432   9.821  19.813  0.00  0.00    +0.000 A 
ATOM      4  C   UNL     1       1.152   8.713  20.270  0.00  0.00    +0.000 A 
ATOM      5  C   UNL     1       1.976   8.041  19.291  0.00  0.00    +0.000 A 
ATOM      6  C   UNL     1       1.923   8.434  17.916  0.00  0.00    +0.000 A 
ENDROOT
BRANCH   5   7
ATOM      7  N   UNL     1       2.989   7.060  19.548  0.00  0.00    +0.000 N 
ATOM      8  H   UNL     1       3.103   6.913  20.552  0.00  0.00    +0.000 HD
BRANCH   7   9
ATOM      9  C   UNL     1       3.195   5.803  18.922  0.00  0.00    +0.000 A 
ATOM     10  C   UNL     1       2.534   4.603  19.341  0.00  0.00    +0.000 A 
ATOM     11  C   UNL     1       2.028   4.249  20.613  0.00  0.00    +0.000 A 
ATOM     12  C   UNL     1       1.121   3.188  20.757  0.00  0.00    +0.000 A 
ATOM     13  C   UNL     1       0.784   2.455  19.617  0.00  0.00    +0.000 A 
ATOM     14  C   UNL     1       1.527   2.627  18.458  0.00  0.00    +0.000 A 
ATOM     15  C   UNL     1       2.532   3.584  18.417  0.00  0.00    +0.000 A 
ATOM     16  N   UNL     1       3.569   3.453  17.574  0.00  0.00    +0.000 NA
ATOM     17  C   UNL     1       4.506   4.392  17.687  0.00  0.00    +0.000 A 
ATOM     18  C   UNL     1       5.797   4.120  18.126  0.00  0.00    +0.000 A 
ATOM     19  C   UNL     1       6.742   5.140  18.275  0.00  0.00    +0.000 A 
ATOM     20  C   UNL     1       6.438   6.389  17.751  0.00  0.00    +0.000 A 
ATOM     21  C   UNL     1       5.107   6.660  17.464  0.00  0.00    +0.000 A 
ATOM     22  C   UNL     1       4.156   5.706  17.872  0.00  0.00    +0.000 A 
ENDBRANCH   7   9
ENDBRANCH   5   7
BRANCH   4  23
ATOM     23  O   UNL     1       1.228   8.388  21.624  0.00  0.00    +0.000 OA
BRANCH  23  24
ATOM     24  C   UNL     1       1.144   9.366  22.725  0.00  0.00    +0.000 C 
BRANCH  24  25
ATOM     25  C   UNL     1      -0.265   9.500  23.454  0.00  0.00    +0.000 C 
BRANCH  25  26
ATOM     26  C   UNL     1      -1.170  10.771  23.158  0.00  0.00    +0.000 C 
BRANCH  26  27
ATOM     27  N   UNL     1      -0.537  11.623  22.122  0.00  0.00    +0.000 N 
ATOM     28  H   UNL     1      -0.627  11.285  21.164  0.00  0.00    +0.000 HD
BRANCH  27  29
ATOM     29  C   UNL     1      -0.088  13.018  22.118  0.00  0.00    +0.000 A 
ATOM     30  C   UNL     1      -1.191  13.861  22.279  0.00  0.00    +0.000 A 
ATOM     31  C   UNL     1      -1.879  14.193  21.114  0.00  0.00    +0.000 A 
ATOM     32  N   UNL     1      -1.412  13.922  19.872  0.00  0.00    +0.000 NA
ATOM     33  C   UNL     1      -0.104  13.647  19.792  0.00  0.00    +0.000 A 
ATOM     34  C   UNL     1       0.537  13.841  18.575  0.00  0.00    +0.000 A 
ATOM     35  C   UNL     1       1.897  14.137  18.525  0.00  0.00    +0.000 A 
ATOM     36  C   UNL     1       2.604  14.243  19.716  0.00  0.00    +0.000 A 
ATOM     37  C   UNL     1       1.997  13.851  20.921  0.00  0.00    +0.000 A 
ATOM     38  C   UNL     1       0.644  13.411  20.954  0.00  0.00    +0.000 A 
ENDBRANCH  27  29
ENDBRANCH  26  27
ENDBRANCH  25  26
ENDBRANCH  24  25
ENDBRANCH  23  24
ENDBRANCH   4  23
TORSDOF 8
ENDMDL
MODEL 7
REMARK VINA RESULT:      -8.1      2.599      5.569
REMARK  Name = 
REMARK  8 active torsions:
REMARK  status: ('A' for Active; 'I' for Inactive)
REMARK    1  A    between atoms: C_4  and  O_5
REMARK    2  A    between atoms: O_5  and  C_6
REMARK    3  A    between atoms: C_6  and  C_7
REMARK    4  A    between atoms: C_7  and  C_8
REMARK    5  A    between atoms: C_8  and  N_9
REMARK    6  A    between atoms: N_9  and  C_10
REMARK    7  A    between atoms: C_20  and  N_21
REMARK    8  A    between atoms: N_21  and  C_22
REMARK                            x       y       z     vdW  Elec       q    Type
REMARK                         _______ _______ _______ _____ _____    ______ ____
ROOT
ATOM      1  C   UNL     1      -3.510  10.436  16.131  0.00  0.00    +0.000 A 
ATOM      2  C   UNL     1      -2.475   9.564  16.364  0.00  0.00    +0.000 A 
ATOM      3  C   UNL     1      -1.534   9.822  17.413  0.00  0.00    +0.000 A 
ATOM      4  C   UNL     1      -1.648  10.921  18.270  0.00  0.00    +0.000 A 
ATOM      5  C   UNL     1      -2.803  11.767  18.070  0.00  0.00    +0.000 A 
ATOM      6  C   UNL     1      -3.679  11.536  16.963  0.00  0.00    +0.000 A 
ENDROOT
BRANCH   5   7
ATOM      7  N   UNL     1      -3.284  12.787  18.955  0.00  0.00    +0.000 N 
ATOM      8  H   UNL     1      -3.512  13.637  18.438  0.00  0.00    +0.000 HD
BRANCH   7   9
ATOM      9  C   UNL     1      -4.228  12.682  20.010  0.00  0.00    +0.000 A 
ATOM     10  C   UNL     1      -3.851  12.528  21.384  0.00  0.00    +0.000 A 
ATOM     11  C   UNL     1      -2.682  11.960  21.940  0.00  0.00    +0.000 A 
ATOM     12  C   UNL     1      -2.332  12.199  23.279  0.00  0.00    +0.000 A 
ATOM     13  C   UNL     1      -3.206  12.961  24.057  0.00  0.00    +0.000 A 
ATOM     14  C   UNL     1      -4.478  13.236  23.575  0.00  0.00    +0.000 A 
ATOM     15  C   UNL     1      -4.835  12.832  22.296  0.00  0.00    +0.000 A 
ATOM     16  N   UNL     1      -6.121  12.607  21.983  0.00  0.00    +0.000 NA
ATOM     17  C   UNL     1      -6.325  12.145  20.751  0.00  0.00    +0.000 A 
ATOM     18  C   UNL     1      -6.821  10.871  20.495  0.00  0.00    +0.000 A 
ATOM     19  C   UNL     1      -6.981  10.405  19.186  0.00  0.00    +0.000 A 
ATOM     20  C   UNL     1      -6.859  11.320  18.151  0.00  0.00    +0.000 A 
ATOM     21  C   UNL     1      -6.223  12.524  18.427  0.00  0.00    +0.000 A 
ATOM     22  C   UNL     1      -5.618  12.654  19.690  0.00  0.00    +0.000 A 
ENDBRANCH   7   9
ENDBRANCH   5   7
BRANCH   4  23
ATOM     23  O   UNL     1      -0.811  11.088  19.373  0.00  0.00    +0.000 OA
BRANCH  23  24
ATOM     24  C   UNL     1       0.655  10.940  19.341  0.00  0.00    +0.000 C 
BRANCH  24  25
ATOM     25  C   UNL     1       1.223   9.453  19.356  0.00  0.00    +0.000 C 
BRANCH  25  26
ATOM     26  C   UNL     1       2.052   8.929  18.108  0.00  0.00    +0.000 C 
BRANCH  26  27
ATOM     27  N   UNL     1       2.137   7.448  18.132  0.00  0.00    +0.000 N 
ATOM     28  H   UNL     1       1.786   6.978  17.297  0.00  0.00    +0.000 HD
BRANCH  27  29
ATOM     29  C   UNL     1       2.911   6.508  18.946  0.00  0.00    +0.000 A 
ATOM     30  C   UNL     1       4.101   6.192  18.284  0.00  0.00    +0.000 A 
ATOM     31  C   UNL     1       4.026   5.157  17.356  0.00  0.00    +0.000 A 
ATOM     32  N   UNL     1       2.950   4.342  17.237  0.00  0.00    +0.000 NA
ATOM     33  C   UNL     1       2.110   4.335  18.279  0.00  0.00    +0.000 A 
ATOM     34  C   UNL     1       1.295   3.225  18.461  0.00  0.00    +0.000 A 
ATOM     35  C   UNL     1       0.849   2.870  19.733  0.00  0.00    +0.000 A 
ATOM     36  C   UNL     1       1.240   3.642  20.820  0.00  0.00    +0.000 A 
ATOM     37  C   UNL     1       1.891   4.867  20.603  0.00  0.00    +0.000 A 
ATOM     38  C   UNL     1       2.223   5.302  19.289  0.00  0.00    +0.000 A 
ENDBRANCH  27  29
ENDBRANCH  26  27
ENDBRANCH  25  26
ENDBRANCH  24  25
ENDBRANCH  23  24
ENDBRANCH   4  23
TORSDOF 8
ENDMDL
MODEL 8
REMARK VINA RESULT:      -8.0      1.960      9.510
REMARK  Name = 
REMARK  8 active torsions:
REMARK  status: ('A' for Active; 'I' for Inactive)
REMARK    1  A    between atoms: C_4  and  O_5
REMARK    2  A    between atoms: O_5  and  C_6
REMARK    3  A    between atoms: C_6  and  C_7
REMARK    4  A    between atoms: C_7  and  C_8
REMARK    5  A    between atoms: C_8  and  N_9
REMARK    6  A    between atoms: N_9  and  C_10
REMARK    7  A    between atoms: C_20  and  N_21
REMARK    8  A    between atoms: N_21  and  C_22
REMARK                            x       y       z     vdW  Elec       q    Type
REMARK                         _______ _______ _______ _____ _____    ______ ____
ROOT
ATOM      1  C   UNL     1       1.830   8.959  17.513  0.00  0.00    +0.000 A 
ATOM      2  C   UNL     1       0.977   9.802  18.180  0.00  0.00    +0.000 A 
ATOM      3  C   UNL     1       0.627   9.546  19.546  0.00  0.00    +0.000 A 
ATOM      4  C   UNL     1       1.166   8.479  20.270  0.00  0.00    +0.000 A 
ATOM      5  C   UNL     1       2.141   7.666  19.577  0.00  0.00    +0.000 A 
ATOM      6  C   UNL     1       2.407   7.891  18.190  0.00  0.00    +0.000 A 
ENDROOT
BRANCH   5   7
ATOM      7  N   UNL     1       3.016   6.691  20.159  0.00  0.00    +0.000 N 
ATOM      8  H   UNL     1       2.696   6.429  21.092  0.00  0.00    +0.000 HD
BRANCH   7   9
ATOM      9  C   UNL     1       3.569   5.523  19.570  0.00  0.00    +0.000 A 
ATOM     10  C   UNL     1       4.612   5.562  18.589  0.00  0.00    +0.000 A 
ATOM     11  C   UNL     1       4.939   6.577  17.660  0.00  0.00    +0.000 A 
ATOM     12  C   UNL     1       6.187   6.588  17.016  0.00  0.00    +0.000 A 
ATOM     13  C   UNL     1       7.066   5.533  17.273  0.00  0.00    +0.000 A 
ATOM     14  C   UNL     1       6.597   4.408  17.937  0.00  0.00    +0.000 A 
ATOM     15  C   UNL     1       5.295   4.380  18.415  0.00  0.00    +0.000 A 
ATOM     16  N   UNL     1       4.651   3.214  18.584  0.00  0.00    +0.000 NA
ATOM     17  C   UNL     1       3.382   3.324  18.969  0.00  0.00    +0.000 A 
ATOM     18  C   UNL     1       2.314   2.937  18.168  0.00  0.00    +0.000 A 
ATOM     19  C   UNL     1       0.991   3.108  18.589  0.00  0.00    +0.000 A 
ATOM     20  C   UNL     1       0.772   3.453  19.916  0.00  0.00    +0.000 A 
ATOM     21  C   UNL     1       1.842   3.973  20.631  0.00  0.00    +0.000 A 
ATOM     22  C   UNL     1       3.019   4.252  19.912  0.00  0.00    +0.000 A 
ENDBRANCH   7   9
ENDBRANCH   5   7
BRANCH   4  23
ATOM     23  O   UNL     1       0.930   8.318  21.636  0.00  0.00    +0.000 OA
BRANCH  23  24
ATOM     24  C   UNL     1      -0.264   8.815  22.343  0.00  0.00    +0.000 C 
BRANCH  24  25
ATOM     25  C   UNL     1      -0.201  10.310  22.885  0.00  0.00    +0.000 C 
BRANCH  25  26
ATOM     26  C   UNL     1      -1.554  11.106  23.118  0.00  0.00    +0.000 C 
BRANCH  26  27
ATOM     27  N   UNL     1      -1.304  12.568  23.080  0.00  0.00    +0.000 N 
ATOM     28  H   UNL     1      -0.805  12.946  23.886  0.00  0.00    +0.000 HD
BRANCH  27  29
ATOM     29  C   UNL     1      -1.320  13.553  21.997  0.00  0.00    +0.000 A 
ATOM     30  C   UNL     1      -2.245  14.558  22.296  0.00  0.00    +0.000 A 
ATOM     31  C   UNL     1      -3.564  14.299  21.933  0.00  0.00    +0.000 A 
ATOM     32  N   UNL     1      -3.928  13.260  21.143  0.00  0.00    +0.000 NA
ATOM     33  C   UNL     1      -2.942  12.701  20.432  0.00  0.00    +0.000 A 
ATOM     34  C   UNL     1      -3.276  12.000  19.280  0.00  0.00    +0.000 A 
ATOM     35  C   UNL     1      -2.373  11.892  18.224  0.00  0.00    +0.000 A 
ATOM     36  C   UNL     1      -1.132  12.505  18.338  0.00  0.00    +0.000 A 
ATOM     37  C   UNL     1      -0.731  13.035  19.576  0.00  0.00    +0.000 A 
ATOM     38  C   UNL     1      -1.603  13.019  20.701  0.00  0.00    +0.000 A 
ENDBRANCH  27  29
ENDBRANCH  26  27
ENDBRANCH  25  26
ENDBRANCH  24  25
ENDBRANCH  23  24
ENDBRANCH   4  23
TORSDOF 8
ENDMDL
MODEL 9
REMARK VINA RESULT:      -7.9      1.848      9.106
REMARK  Name = 
REMARK  8 active torsions:
REMARK  status: ('A' for Active; 'I' for Inactive)
REMARK    1  A    between atoms: C_4  and  O_5
REMARK    2  A    between atoms: O_5  and  C_6
REMARK    3  A    between atoms: C_6  and  C_7
REMARK    4  A    between atoms: C_7  and  C_8
REMARK    5  A    between atoms: C_8  and  N_9
REMARK    6  A    between atoms: N_9  and  C_10
REMARK    7  A    between atoms: C_20  and  N_21
REMARK    8  A    between atoms: N_21  and  C_22
REMARK                            x       y       z     vdW  Elec       q    Type
REMARK                         _______ _______ _______ _____ _____    ______ ____
ROOT
ATOM      1  C   UNL     1       1.916  10.003  17.613  0.00  0.00    +0.000 A 
ATOM      2  C   UNL     1       1.042  10.690  18.419  0.00  0.00    +0.000 A 
ATOM      3  C   UNL     1       0.582  10.111  19.646  0.00  0.00    +0.000 A 
ATOM      4  C   UNL     1       1.030   8.868  20.104  0.00  0.00    +0.000 A 
ATOM      5  C   UNL     1       2.028   8.211  19.290  0.00  0.00    +0.000 A 
ATOM      6  C   UNL     1       2.406   8.770  18.028  0.00  0.00    +0.000 A 
ENDROOT
BRANCH   5   7
ATOM      7  N   UNL     1       2.824   7.077  19.655  0.00  0.00    +0.000 N 
ATOM      8  H   UNL     1       2.695   6.847  20.641  0.00  0.00    +0.000 HD
BRANCH   7   9
ATOM      9  C   UNL     1       2.999   5.849  18.965  0.00  0.00    +0.000 A 
ATOM     10  C   UNL     1       2.356   4.631  19.360  0.00  0.00    +0.000 A 
ATOM     11  C   UNL     1       1.906   4.222  20.636  0.00  0.00    +0.000 A 
ATOM     12  C   UNL     1       1.003   3.155  20.773  0.00  0.00    +0.000 A 
ATOM     13  C   UNL     1       0.614   2.474  19.618  0.00  0.00    +0.000 A 
ATOM     14  C   UNL     1       1.306   2.697  18.436  0.00  0.00    +0.000 A 
ATOM     15  C   UNL     1       2.310   3.654  18.392  0.00  0.00    +0.000 A 
ATOM     16  N   UNL     1       3.308   3.561  17.499  0.00  0.00    +0.000 NA
ATOM     17  C   UNL     1       4.251   4.493  17.612  0.00  0.00    +0.000 A 
ATOM     18  C   UNL     1       5.560   4.202  17.981  0.00  0.00    +0.000 A 
ATOM     19  C   UNL     1       6.513   5.214  18.132  0.00  0.00    +0.000 A 
ATOM     20  C   UNL     1       6.188   6.485  17.678  0.00  0.00    +0.000 A 
ATOM     21  C   UNL     1       4.846   6.769  17.463  0.00  0.00    +0.000 A 
ATOM     22  C   UNL     1       3.912   5.798  17.870  0.00  0.00    +0.000 A 
ENDBRANCH   7   9
ENDBRANCH   5   7
BRANCH   4  23
ATOM     23  O   UNL     1       0.687   8.376  21.363  0.00  0.00    +0.000 OA
BRANCH  23  24
ATOM     24  C   UNL     1      -0.588   8.653  22.050  0.00  0.00    +0.000 C 
BRANCH  24  25
ATOM     25  C   UNL     1      -0.563   9.778  23.176  0.00  0.00    +0.000 C 
BRANCH  25  26
ATOM     26  C   UNL     1      -0.586  11.305  22.744  0.00  0.00    +0.000 C 
BRANCH  26  27
ATOM     27  N   UNL     1      -1.631  11.533  21.716  0.00  0.00    +0.000 N 
ATOM     28  H   UNL     1      -2.570  11.229  21.974  0.00  0.00    +0.000 HD
BRANCH  27  29
ATOM     29  C   UNL     1      -1.693  12.396  20.533  0.00  0.00    +0.000 A 
ATOM     30  C   UNL     1      -1.788  13.730  20.937  0.00  0.00    +0.000 A 
ATOM     31  C   UNL     1      -3.073  14.195  21.209  0.00  0.00    +0.000 A 
ATOM     32  N   UNL     1      -4.195  13.501  20.900  0.00  0.00    +0.000 NA
ATOM     33  C   UNL     1      -4.040  12.520  20.003  0.00  0.00    +0.000 A 
ATOM     34  C   UNL     1      -5.154  12.104  19.283  0.00  0.00    +0.000 A 
ATOM     35  C   UNL     1      -5.014  11.556  18.010  0.00  0.00    +0.000 A 
ATOM     36  C   UNL     1      -3.741  11.437  17.467  0.00  0.00    +0.000 A 
ATOM     37  C   UNL     1      -2.617  11.672  18.276  0.00  0.00    +0.000 A 
ATOM     38  C   UNL     1      -2.757  12.097  19.626  0.00  0.00    +0.000 A 
ENDBRANCH  27  29
ENDBRANCH  26  27
ENDBRANCH  25  26
ENDBRANCH  24  25
ENDBRANCH  23  24
ENDBRANCH   4  23
TORSDOF 8
ENDMDL
