MODEL 1
REMARK VINA RESULT:      -7.7      0.000      0.000
REMARK  Name = 
REMARK  2 active torsions:
REMARK  status: ('A' for Active; 'I' for Inactive)
REMARK    1  A    between atoms: C_7  and  C_8
REMARK    2  A    between atoms: C_11  and  C_12
REMARK                            x       y       z     vdW  Elec       q    Type
REMARK                         _______ _______ _______ _____ _____    ______ ____
ROOT
ATOM      1  C   UNL     1       2.149   8.241  18.574  0.00  0.00    +0.000 A 
ATOM      2  C   UNL     1       1.783   9.392  17.900  0.00  0.00    +0.000 A 
ATOM      3  C   UNL     1       1.039  10.297  18.707  0.00  0.00    +0.000 A 
ATOM      4  C   UNL     1       0.842   9.832  19.994  0.00  0.00    +0.000 A 
ATOM      5  S   UNL     1       1.565   8.287  20.188  0.00  0.00    +0.000 S 
ENDROOT
BRANCH   1  12
ATOM      6  O   UNL     1       5.997   3.633  15.844  0.00  0.00    +0.000 OA
ATOM      7  C   UNL     1       5.025   3.761  16.560  0.00  0.00    +0.000 C 
ATOM      8  O   UNL     1       4.269   2.760  17.104  0.00  0.00    +0.000 OA
ATOM      9  C   UNL     1       3.177   3.275  17.900  0.00  0.00    +0.000 C 
ATOM     10  C   UNL     1       3.338   4.739  17.793  0.00  0.00    +0.000 A 
ATOM     11  C   UNL     1       2.577   5.766  18.335  0.00  0.00    +0.000 A 
ATOM     12  C   UNL     1       2.938   7.100  18.068  0.00  0.00    +0.000 A 
ATOM     13  C   UNL     1       4.075   7.348  17.258  0.00  0.00    +0.000 A 
ATOM     14  C   UNL     1       4.831   6.305  16.717  0.00  0.00    +0.000 A 
ATOM     15  C   UNL     1       4.432   5.015  17.003  0.00  0.00    +0.000 A 
ENDBRANCH   1  12
BRANCH   4  16
ATOM     16  C   UNL     1       0.121  10.490  21.097  0.00  0.00    +0.000 A 
ATOM     17  C   UNL     1      -0.035  11.881  21.096  0.00  0.00    +0.000 A 
ATOM     18  C   UNL     1      -0.670  12.489  22.168  0.00  0.00    +0.000 A 
ATOM     19  N   UNL     1      -1.159  11.815  23.227  0.00  0.00    +0.000 NA
ATOM     20  C   UNL     1      -1.010  10.475  23.211  0.00  0.00    +0.000 A 
ATOM     21  C   UNL     1      -0.389   9.777  22.187  0.00  0.00    +0.000 A 
ENDBRANCH   4  16
TORSDOF 2
ENDMDL
MODEL 2
REMARK VINA RESULT:      -7.6      0.143      1.032
REMARK  Name = 
REMARK  2 active torsions:
REMARK  status: ('A' for Active; 'I' for Inactive)
REMARK    1  A    between atoms: C_7  and  C_8
REMARK    2  A    between atoms: C_11  and  C_12
REMARK                            x       y       z     vdW  Elec       q    Type
REMARK                         _______ _______ _______ _____ _____    ______ ____
ROOT
ATOM      1  C   UNL     1       2.036   8.253  18.595  0.00  0.00    +0.000 A 
ATOM      2  C   UNL     1       1.541   9.322  17.870  0.00  0.00    +0.000 A 
ATOM      3  C   UNL     1       0.835  10.259  18.674  0.00  0.00    +0.000 A 
ATOM      4  C   UNL     1       0.795   9.902  20.008  0.00  0.00    +0.000 A 
ATOM      5  S   UNL     1       1.617   8.415  20.253  0.00  0.00    +0.000 S 
ENDROOT
BRANCH   1  12
ATOM      6  O   UNL     1       5.934   3.635  15.956  0.00  0.00    +0.000 OA
ATOM      7  C   UNL     1       4.937   3.765  16.637  0.00  0.00    +0.000 C 
ATOM      8  O   UNL     1       4.151   2.767  17.139  0.00  0.00    +0.000 OA
ATOM      9  C   UNL     1       3.036   3.285  17.900  0.00  0.00    +0.000 C 
ATOM     10  C   UNL     1       3.216   4.747  17.817  0.00  0.00    +0.000 A 
ATOM     11  C   UNL     1       2.446   5.776  18.342  0.00  0.00    +0.000 A 
ATOM     12  C   UNL     1       2.832   7.110  18.105  0.00  0.00    +0.000 A 
ATOM     13  C   UNL     1       4.001   7.355  17.342  0.00  0.00    +0.000 A 
ATOM     14  C   UNL     1       4.765   6.309  16.817  0.00  0.00    +0.000 A 
ATOM     15  C   UNL     1       4.341   5.021  17.072  0.00  0.00    +0.000 A 
ENDBRANCH   1  12
BRANCH   4  16
ATOM     16  C   UNL     1       0.154  10.621  21.123  0.00  0.00    +0.000 A 
ATOM     17  C   UNL     1      -0.431   9.902  22.172  0.00  0.00    +0.000 A 
ATOM     18  C   UNL     1      -1.075  10.593  23.186  0.00  0.00    +0.000 A 
ATOM     19  N   UNL     1      -1.174  11.936  23.230  0.00  0.00    +0.000 NA
ATOM     20  C   UNL     1      -0.599  12.617  22.218  0.00  0.00    +0.000 A 
ATOM     21  C   UNL     1       0.066  12.016  21.159  0.00  0.00    +0.000 A 
ENDBRANCH   4  16
TORSDOF 2
ENDMDL
MODEL 3
REMARK VINA RESULT:      -7.5      4.850      8.492
REMARK  Name = 
REMARK  2 active torsions:
REMARK  status: ('A' for Active; 'I' for Inactive)
REMARK    1  A    between atoms: C_7  and  C_8
REMARK    2  A    between atoms: C_11  and  C_12
REMARK                            x       y       z     vdW  Elec       q    Type
REMARK                         _______ _______ _______ _____ _____    ______ ____
ROOT
ATOM      1  C   UNL     1       2.260   7.179  19.442  0.00  0.00    +0.000 A 
ATOM      2  C   UNL     1       2.383   5.873  19.882  0.00  0.00    +0.000 A 
ATOM      3  C   UNL     1       3.198   5.074  19.033  0.00  0.00    +0.000 A 
ATOM      4  C   UNL     1       3.694   5.775  17.950  0.00  0.00    +0.000 A 
ATOM      5  S   UNL     1       3.143   7.401  17.986  0.00  0.00    +0.000 S 
ENDROOT
BRANCH   1  12
ATOM      6  O   UNL     1      -0.856  12.545  21.675  0.00  0.00    +0.000 OA
ATOM      7  C   UNL     1      -0.474  11.448  22.029  0.00  0.00    +0.000 C 
ATOM      8  O   UNL     1      -0.584  10.905  23.278  0.00  0.00    +0.000 OA
ATOM      9  C   UNL     1      -0.011   9.580  23.347  0.00  0.00    +0.000 C 
ATOM     10  C   UNL     1       0.479   9.349  21.974  0.00  0.00    +0.000 A 
ATOM     11  C   UNL     1       1.138   8.254  21.430  0.00  0.00    +0.000 A 
ATOM     12  C   UNL     1       1.518   8.287  20.075  0.00  0.00    +0.000 A 
ATOM     13  C   UNL     1       1.205   9.438  19.308  0.00  0.00    +0.000 A 
ATOM     14  C   UNL     1       0.544  10.535  19.869  0.00  0.00    +0.000 A 
ATOM     15  C   UNL     1       0.199  10.455  21.204  0.00  0.00    +0.000 A 
ENDBRANCH   1  12
BRANCH   4  16
ATOM     16  C   UNL     1       4.563   5.279  16.868  0.00  0.00    +0.000 A 
ATOM     17  C   UNL     1       4.831   3.909  16.761  0.00  0.00    +0.000 A 
ATOM     18  C   UNL     1       5.692   3.467  15.770  0.00  0.00    +0.000 A 
ATOM     19  N   UNL     1       6.296   4.283  14.884  0.00  0.00    +0.000 NA
ATOM     20  C   UNL     1       6.022   5.599  14.992  0.00  0.00    +0.000 A 
ATOM     21  C   UNL     1       5.176   6.138  15.950  0.00  0.00    +0.000 A 
ENDBRANCH   4  16
TORSDOF 2
ENDMDL
MODEL 4
REMARK VINA RESULT:      -7.5      4.845      8.425
REMARK  Name = 
REMARK  2 active torsions:
REMARK  status: ('A' for Active; 'I' for Inactive)
REMARK    1  A    between atoms: C_7  and  C_8
REMARK    2  A    between atoms: C_11  and  C_12
REMARK                            x       y       z     vdW  Elec       q    Type
REMARK                         _______ _______ _______ _____ _____    ______ ____
ROOT
ATOM      1  C   UNL     1       2.262   7.135  19.448  0.00  0.00    +0.000 A 
ATOM      2  C   UNL     1       2.332   5.816  19.860  0.00  0.00    +0.000 A 
ATOM      3  C   UNL     1       3.158   5.015  19.023  0.00  0.00    +0.000 A 
ATOM      4  C   UNL     1       3.716   5.727  17.978  0.00  0.00    +0.000 A 
ATOM      5  S   UNL     1       3.208   7.366  18.034  0.00  0.00    +0.000 S 
ENDROOT
BRANCH   1  12
ATOM      6  O   UNL     1      -0.837  12.518  21.664  0.00  0.00    +0.000 OA
ATOM      7  C   UNL     1      -0.448  11.426  22.025  0.00  0.00    +0.000 C 
ATOM      8  O   UNL     1      -0.540  10.896  23.281  0.00  0.00    +0.000 OA
ATOM      9  C   UNL     1       0.037   9.572  23.357  0.00  0.00    +0.000 C 
ATOM     10  C   UNL     1       0.510   9.328  21.980  0.00  0.00    +0.000 A 
ATOM     11  C   UNL     1       1.164   8.229  21.439  0.00  0.00    +0.000 A 
ATOM     12  C   UNL     1       1.525   8.248  20.078  0.00  0.00    +0.000 A 
ATOM     13  C   UNL     1       1.200   9.391  19.304  0.00  0.00    +0.000 A 
ATOM     14  C   UNL     1       0.544  10.491  19.862  0.00  0.00    +0.000 A 
ATOM     15  C   UNL     1       0.217  10.425  21.202  0.00  0.00    +0.000 A 
ENDBRANCH   1  12
BRANCH   4  16
ATOM     16  C   UNL     1       4.613   5.233  16.919  0.00  0.00    +0.000 A 
ATOM     17  C   UNL     1       5.131   6.125  15.972  0.00  0.00    +0.000 A 
ATOM     18  C   UNL     1       5.931   5.635  14.952  0.00  0.00    +0.000 A 
ATOM     19  N   UNL     1       6.252   4.334  14.813  0.00  0.00    +0.000 NA
ATOM     20  C   UNL     1       5.754   3.487  15.737  0.00  0.00    +0.000 A 
ATOM     21  C   UNL     1       4.945   3.881  16.792  0.00  0.00    +0.000 A 
ENDBRANCH   4  16
TORSDOF 2
ENDMDL
MODEL 5
REMARK VINA RESULT:      -7.2      2.416      3.021
REMARK  Name = 
REMARK  2 active torsions:
REMARK  status: ('A' for Active; 'I' for Inactive)
REMARK    1  A    between atoms: C_7  and  C_8
REMARK    2  A    between atoms: C_11  and  C_12
REMARK                            x       y       z     vdW  Elec       q    Type
REMARK                         _______ _______ _______ _____ _____    ______ ____
ROOT
ATOM      1  C   UNL     1       2.094   7.734  19.091  0.00  0.00    +0.000 A 
ATOM      2  C   UNL     1       2.227   8.381  17.875  0.00  0.00    +0.000 A 
ATOM      3  C   UNL     1       1.604   9.660  17.855  0.00  0.00    +0.000 A 
ATOM      4  C   UNL     1       1.000   9.983  19.055  0.00  0.00    +0.000 A 
ATOM      5  S   UNL     1       1.198   8.707  20.186  0.00  0.00    +0.000 S 
ENDROOT
BRANCH   1  12
ATOM      6  O   UNL     1       4.870   1.859  20.213  0.00  0.00    +0.000 OA
ATOM      7  C   UNL     1       3.962   2.571  20.589  0.00  0.00    +0.000 C 
ATOM      8  O   UNL     1       3.033   2.278  21.549  0.00  0.00    +0.000 OA
ATOM      9  C   UNL     1       2.087   3.355  21.735  0.00  0.00    +0.000 C 
ATOM     10  C   UNL     1       2.536   4.375  20.767  0.00  0.00    +0.000 A 
ATOM     11  C   UNL     1       2.010   5.627  20.476  0.00  0.00    +0.000 A 
ATOM     12  C   UNL     1       2.626   6.414  19.483  0.00  0.00    +0.000 A 
ATOM     13  C   UNL     1       3.769   5.902  18.821  0.00  0.00    +0.000 A 
ATOM     14  C   UNL     1       4.287   4.639  19.122  0.00  0.00    +0.000 A 
ATOM     15  C   UNL     1       3.643   3.904  20.098  0.00  0.00    +0.000 A 
ENDBRANCH   1  12
BRANCH   4  16
ATOM     16  C   UNL     1       0.262  11.211  19.399  0.00  0.00    +0.000 A 
ATOM     17  C   UNL     1      -1.138  11.210  19.384  0.00  0.00    +0.000 A 
ATOM     18  C   UNL     1      -1.815  12.388  19.658  0.00  0.00    +0.000 A 
ATOM     19  N   UNL     1      -1.203  13.553  19.948  0.00  0.00    +0.000 NA
ATOM     20  C   UNL     1       0.145  13.537  19.968  0.00  0.00    +0.000 A 
ATOM     21  C   UNL     1       0.911  12.411  19.705  0.00  0.00    +0.000 A 
ENDBRANCH   4  16
TORSDOF 2
ENDMDL
MODEL 6
REMARK VINA RESULT:      -7.2      4.913      8.447
REMARK  Name = 
REMARK  2 active torsions:
REMARK  status: ('A' for Active; 'I' for Inactive)
REMARK    1  A    between atoms: C_7  and  C_8
REMARK    2  A    between atoms: C_11  and  C_12
REMARK                            x       y       z     vdW  Elec       q    Type
REMARK                         _______ _______ _______ _____ _____    ______ ____
ROOT
ATOM      1  C   UNL     1       2.287   7.593  19.064  0.00  0.00    +0.000 A 
ATOM      2  C   UNL     1       2.441   6.399  19.744  0.00  0.00    +0.000 A 
ATOM      3  C   UNL     1       3.477   5.584  19.208  0.00  0.00    +0.000 A 
ATOM      4  C   UNL     1       4.108   6.161  18.123  0.00  0.00    +0.000 A 
ATOM      5  S   UNL     1       3.414   7.691  17.772  0.00  0.00    +0.000 S 
ENDROOT
BRANCH   1  12
ATOM      6  O   UNL     1      -1.822  12.720  19.632  0.00  0.00    +0.000 OA
ATOM      7  C   UNL     1      -1.256  11.874  20.294  0.00  0.00    +0.000 C 
ATOM      8  O   UNL     1      -1.302  11.730  21.652  0.00  0.00    +0.000 OA
ATOM      9  C   UNL     1      -0.498  10.618  22.108  0.00  0.00    +0.000 C 
ATOM     10  C   UNL     1       0.066  10.071  20.858  0.00  0.00    +0.000 A 
ATOM     11  C   UNL     1       0.929   9.002  20.658  0.00  0.00    +0.000 A 
ATOM     12  C   UNL     1       1.336   8.687  19.347  0.00  0.00    +0.000 A 
ATOM     13  C   UNL     1       0.841   9.470  18.274  0.00  0.00    +0.000 A 
ATOM     14  C   UNL     1      -0.026  10.545  18.491  0.00  0.00    +0.000 A 
ATOM     15  C   UNL     1      -0.389  10.817  19.794  0.00  0.00    +0.000 A 
ENDBRANCH   1  12
BRANCH   4  16
ATOM     16  C   UNL     1       5.214   5.613  17.319  0.00  0.00    +0.000 A 
ATOM     17  C   UNL     1       6.339   5.073  17.954  0.00  0.00    +0.000 A 
ATOM     18  C   UNL     1       7.392   4.610  17.182  0.00  0.00    +0.000 A 
ATOM     19  N   UNL     1       7.403   4.643  15.835  0.00  0.00    +0.000 NA
ATOM     20  C   UNL     1       6.310   5.156  15.235  0.00  0.00    +0.000 A 
ATOM     21  C   UNL     1       5.208   5.646  15.921  0.00  0.00    +0.000 A 
ENDBRANCH   4  16
TORSDOF 2
ENDMDL
MODEL 7
REMARK VINA RESULT:      -7.1      1.539      2.580
REMARK  Name = 
REMARK  2 active torsions:
REMARK  status: ('A' for Active; 'I' for Inactive)
REMARK    1  A    between atoms: C_7  and  C_8
REMARK    2  A    between atoms: C_11  and  C_12
REMARK                            x       y       z     vdW  Elec       q    Type
REMARK                         _______ _______ _______ _____ _____    ______ ____
ROOT
ATOM      1  C   UNL     1       2.680   6.459  19.261  0.00  0.00    +0.000 A 
ATOM      2  C   UNL     1       2.107   5.772  20.316  0.00  0.00    +0.000 A 
ATOM      3  C   UNL     1       1.244   6.583  21.105  0.00  0.00    +0.000 A 
ATOM      4  C   UNL     1       1.162   7.884  20.647  0.00  0.00    +0.000 A 
ATOM      5  S   UNL     1       2.154   8.094  19.261  0.00  0.00    +0.000 S 
ENDROOT
BRANCH   1  12
ATOM      6  O   UNL     1       6.399   3.515  14.680  0.00  0.00    +0.000 OA
ATOM      7  C   UNL     1       6.379   4.481  15.415  0.00  0.00    +0.000 C 
ATOM      8  O   UNL     1       7.353   5.431  15.548  0.00  0.00    +0.000 OA
ATOM      9  C   UNL     1       7.001   6.438  16.524  0.00  0.00    +0.000 C 
ATOM     10  C   UNL     1       5.671   6.004  16.996  0.00  0.00    +0.000 A 
ATOM     11  C   UNL     1       4.832   6.567  17.948  0.00  0.00    +0.000 A 
ATOM     12  C   UNL     1       3.601   5.942  18.230  0.00  0.00    +0.000 A 
ATOM     13  C   UNL     1       3.259   4.762  17.524  0.00  0.00    +0.000 A 
ATOM     14  C   UNL     1       4.116   4.205  16.569  0.00  0.00    +0.000 A 
ATOM     15  C   UNL     1       5.312   4.851  16.334  0.00  0.00    +0.000 A 
ENDBRANCH   1  12
BRANCH   4  16
ATOM     16  C   UNL     1       0.376   8.997  21.209  0.00  0.00    +0.000 A 
ATOM     17  C   UNL     1      -0.003  10.066  20.388  0.00  0.00    +0.000 A 
ATOM     18  C   UNL     1      -0.696  11.129  20.945  0.00  0.00    +0.000 A 
ATOM     19  N   UNL     1      -1.039  11.200  22.246  0.00  0.00    +0.000 NA
ATOM     20  C   UNL     1      -0.675  10.160  23.023  0.00  0.00    +0.000 A 
ATOM     21  C   UNL     1       0.021   9.053  22.560  0.00  0.00    +0.000 A 
ENDBRANCH   4  16
TORSDOF 2
ENDMDL
MODEL 8
REMARK VINA RESULT:      -7.1      4.849      8.298
REMARK  Name = 
REMARK  2 active torsions:
REMARK  status: ('A' for Active; 'I' for Inactive)
REMARK    1  A    between atoms: C_7  and  C_8
REMARK    2  A    between atoms: C_11  and  C_12
REMARK                            x       y       z     vdW  Elec       q    Type
REMARK                         _______ _______ _______ _____ _____    ______ ____
ROOT
ATOM      1  C   UNL     1       1.887   7.957  19.407  0.00  0.00    +0.000 A 
ATOM      2  C   UNL     1       2.607   7.982  18.227  0.00  0.00    +0.000 A 
ATOM      3  C   UNL     1       3.109   6.703  17.855  0.00  0.00    +0.000 A 
ATOM      4  C   UNL     1       2.767   5.710  18.752  0.00  0.00    +0.000 A 
ATOM      5  S   UNL     1       1.844   6.362  20.044  0.00  0.00    +0.000 S 
ENDROOT
BRANCH   1  12
ATOM      6  O   UNL     1      -0.805  13.418  21.940  0.00  0.00    +0.000 OA
ATOM      7  C   UNL     1      -0.641  12.239  22.176  0.00  0.00    +0.000 C 
ATOM      8  O   UNL     1      -1.035  11.564  23.298  0.00  0.00    +0.000 OA
ATOM      9  C   UNL     1      -0.667  10.167  23.249  0.00  0.00    +0.000 C 
ATOM     10  C   UNL     1       0.013  10.039  21.946  0.00  0.00    +0.000 A 
ATOM     11  C   UNL     1       0.600   8.933  21.346  0.00  0.00    +0.000 A 
ATOM     12  C   UNL     1       1.205   9.079  20.083  0.00  0.00    +0.000 A 
ATOM     13  C   UNL     1       1.187  10.353  19.463  0.00  0.00    +0.000 A 
ATOM     14  C   UNL     1       0.595  11.460  20.079  0.00  0.00    +0.000 A 
ATOM     15  C   UNL     1       0.021  11.265  21.319  0.00  0.00    +0.000 A 
ENDBRANCH   1  12
BRANCH   4  16
ATOM     16  C   UNL     1       3.111   4.278  18.695  0.00  0.00    +0.000 A 
ATOM     17  C   UNL     1       2.479   3.445  17.764  0.00  0.00    +0.000 A 
ATOM     18  C   UNL     1       2.775   2.091  17.761  0.00  0.00    +0.000 A 
ATOM     19  N   UNL     1       3.650   1.515  18.607  0.00  0.00    +0.000 NA
ATOM     20  C   UNL     1       4.259   2.330  19.493  0.00  0.00    +0.000 A 
ATOM     21  C   UNL     1       4.027   3.695  19.576  0.00  0.00    +0.000 A 
ENDBRANCH   4  16
TORSDOF 2
ENDMDL
MODEL 9
REMARK VINA RESULT:      -7.1      4.901      8.456
REMARK  Name = 
REMARK  2 active torsions:
REMARK  status: ('A' for Active; 'I' for Inactive)
REMARK    1  A    between atoms: C_7  and  C_8
REMARK    2  A    between atoms: C_11  and  C_12
REMARK                            x       y       z     vdW  Elec       q    Type
REMARK                         _______ _______ _______ _____ _____    ______ ____
ROOT
ATOM      1  C   UNL     1       1.827   7.797  19.665  0.00  0.00    +0.000 A 
ATOM      2  C   UNL     1       2.522   7.878  18.471  0.00  0.00    +0.000 A 
ATOM      3  C   UNL     1       3.022   6.620  18.032  0.00  0.00    +0.000 A 
ATOM      4  C   UNL     1       2.705   5.586  18.892  0.00  0.00    +0.000 A 
ATOM      5  S   UNL     1       1.807   6.175  20.231  0.00  0.00    +0.000 S 
ENDROOT
BRANCH   1  12
ATOM      6  O   UNL     1      -1.252  12.164  23.529  0.00  0.00    +0.000 OA
ATOM      7  C   UNL     1      -0.907  11.986  22.379  0.00  0.00    +0.000 C 
ATOM      8  O   UNL     1      -1.135  12.815  21.316  0.00  0.00    +0.000 OA
ATOM      9  C   UNL     1      -0.592  12.284  20.086  0.00  0.00    +0.000 C 
ATOM     10  C   UNL     1       0.014  11.005  20.505  0.00  0.00    +0.000 A 
ATOM     11  C   UNL     1       0.675  10.040  19.758  0.00  0.00    +0.000 A 
ATOM     12  C   UNL     1       1.155   8.884  20.404  0.00  0.00    +0.000 A 
ATOM     13  C   UNL     1       0.951   8.750  21.800  0.00  0.00    +0.000 A 
ATOM     14  C   UNL     1       0.281   9.729  22.540  0.00  0.00    +0.000 A 
ATOM     15  C   UNL     1      -0.175  10.839  21.859  0.00  0.00    +0.000 A 
ENDBRANCH   1  12
BRANCH   4  16
ATOM     16  C   UNL     1       3.055   4.160  18.766  0.00  0.00    +0.000 A 
ATOM     17  C   UNL     1       2.488   3.391  17.743  0.00  0.00    +0.000 A 
ATOM     18  C   UNL     1       2.787   2.040  17.671  0.00  0.00    +0.000 A 
ATOM     19  N   UNL     1       3.606   1.408  18.534  0.00  0.00    +0.000 NA
ATOM     20  C   UNL     1       4.153   2.162  19.509  0.00  0.00    +0.000 A 
ATOM     21  C   UNL     1       3.914   3.519  19.665  0.00  0.00    +0.000 A 
ENDBRANCH   4  16
TORSDOF 2
ENDMDL
