MODEL 1
REMARK VINA RESULT:      -7.9      0.000      0.000
REMARK  Name = 
REMARK  3 active torsions:
REMARK  status: ('A' for Active; 'I' for Inactive)
REMARK    1  A    between atoms: C_2  and  C_3
REMARK    2  A    between atoms: N_7  and  C_8
REMARK    3  A    between atoms: N_12  and  C_13
REMARK                            x       y       z     vdW  Elec       q    Type
REMARK                         _______ _______ _______ _____ _____    ______ ____
ROOT
ATOM      1  C   UNL     1       2.034   9.225  19.162  0.00  0.00    +0.000 C 
ATOM      2  C   UNL     1       2.760   9.076  17.836  0.00  0.00    +0.000 C 
ATOM      3  C   UNL     1       3.057   7.609  17.732  0.00  0.00    +0.000 C 
ATOM      4  O   UNL     1       3.743   7.158  16.824  0.00  0.00    +0.000 OA
ATOM      5  N   UNL     1       2.410   6.934  18.745  0.00  0.00    +0.000 N 
ATOM      6  C   UNL     1       1.831   7.797  19.646  0.00  0.00    +0.000 C 
ATOM      7  O   UNL     1       1.306   7.523  20.717  0.00  0.00    +0.000 OA
ENDROOT
BRANCH   5   8
ATOM      8  C   UNL     1       2.407   5.521  18.913  0.00  0.00    +0.000 A 
ATOM      9  C   UNL     1       3.103   4.906  19.971  0.00  0.00    +0.000 A 
ATOM     10  C   UNL     1       3.076   3.518  20.136  0.00  0.00    +0.000 A 
ATOM     11  C   UNL     1       2.377   2.727  19.236  0.00  0.00    +0.000 A 
ATOM     12  F   UNL     1       2.360   1.401  19.394  0.00  0.00    +0.000 F 
ATOM     13  C   UNL     1       1.693   3.300  18.173  0.00  0.00    +0.000 A 
ATOM     14  C   UNL     1       1.705   4.686  18.017  0.00  0.00    +0.000 A 
ENDBRANCH   5   8
BRANCH   1  19
ATOM     15  C   UNL     1      -0.414  12.051  19.932  0.00  0.00    +0.000 C 
ATOM     16  C   UNL     1      -1.388  11.862  18.755  0.00  0.00    +0.000 C 
ATOM     17  C   UNL     1      -1.523  10.393  18.345  0.00  0.00    +0.000 C 
ATOM     18  C   UNL     1      -0.166   9.734  18.104  0.00  0.00    +0.000 C 
ATOM     19  N   UNL     1       0.766   9.969  19.209  0.00  0.00    +0.000 NA
ATOM     20  C   UNL     1       0.923  11.376  19.580  0.00  0.00    +0.000 C 
BRANCH  15  22
ATOM     21  O   UNL     1      -0.820  10.411  21.670  0.00  0.00    +0.000 OA
ATOM     22  C   UNL     1      -1.038  11.554  21.253  0.00  0.00    +0.000 C 
ATOM     23  N   UNL     1      -1.887  12.377  21.962  0.00  0.00    +0.000 N 
ATOM     24  C   UNL     1      -2.434  11.943  23.236  0.00  0.00    +0.000 C 
ATOM     25  C   UNL     1      -3.792  12.615  23.298  0.00  0.00    +0.000 C 
ATOM     26  C   UNL     1      -3.564  13.940  22.581  0.00  0.00    +0.000 C 
ATOM     27  C   UNL     1      -2.415  13.679  21.600  0.00  0.00    +0.000 C 
ENDBRANCH  15  22
ENDBRANCH   1  19
TORSDOF 3
ENDMDL
MODEL 2
REMARK VINA RESULT:      -7.9      4.397      7.144
REMARK  Name = 
REMARK  3 active torsions:
REMARK  status: ('A' for Active; 'I' for Inactive)
REMARK    1  A    between atoms: C_2  and  C_3
REMARK    2  A    between atoms: N_7  and  C_8
REMARK    3  A    between atoms: N_12  and  C_13
REMARK                            x       y       z     vdW  Elec       q    Type
REMARK                         _______ _______ _______ _____ _____    ______ ____
ROOT
ATOM      1  C   UNL     1       5.780   4.482  18.421  0.00  0.00    +0.000 C 
ATOM      2  C   UNL     1       6.415   5.861  18.385  0.00  0.00    +0.000 C 
ATOM      3  C   UNL     1       6.935   6.000  16.986  0.00  0.00    +0.000 C 
ATOM      4  O   UNL     1       7.612   6.963  16.647  0.00  0.00    +0.000 OA
ATOM      5  N   UNL     1       6.486   4.946  16.219  0.00  0.00    +0.000 N 
ATOM      6  C   UNL     1       5.849   3.995  16.981  0.00  0.00    +0.000 C 
ATOM      7  O   UNL     1       5.461   2.888  16.631  0.00  0.00    +0.000 OA
ENDROOT
BRANCH   5   8
ATOM      8  C   UNL     1       6.725   4.789  14.824  0.00  0.00    +0.000 A 
ATOM      9  C   UNL     1       7.764   5.481  14.175  0.00  0.00    +0.000 A 
ATOM     10  C   UNL     1       7.999   5.304  12.808  0.00  0.00    +0.000 A 
ATOM     11  C   UNL     1       7.187   4.455  12.071  0.00  0.00    +0.000 A 
ATOM     12  F   UNL     1       7.412   4.294  10.763  0.00  0.00    +0.000 F 
ATOM     13  C   UNL     1       6.144   3.769  12.677  0.00  0.00    +0.000 A 
ATOM     14  C   UNL     1       5.919   3.933  14.044  0.00  0.00    +0.000 A 
ENDBRANCH   5   8
BRANCH   1  19
ATOM     15  C   UNL     1       1.994   4.888  18.692  0.00  0.00    +0.000 C 
ATOM     16  C   UNL     1       1.651   3.557  19.386  0.00  0.00    +0.000 C 
ATOM     17  C   UNL     1       2.762   3.094  20.332  0.00  0.00    +0.000 C 
ATOM     18  C   UNL     1       4.130   3.074  19.652  0.00  0.00    +0.000 C 
ATOM     19  N   UNL     1       4.417   4.329  18.951  0.00  0.00    +0.000 NA
ATOM     20  C   UNL     1       3.372   4.755  18.021  0.00  0.00    +0.000 C 
BRANCH  15  22
ATOM     21  O   UNL     1       1.708   5.877  20.886  0.00  0.00    +0.000 OA
ATOM     22  C   UNL     1       1.890   6.071  19.680  0.00  0.00    +0.000 C 
ATOM     23  N   UNL     1       1.958   7.364  19.209  0.00  0.00    +0.000 N 
ATOM     24  C   UNL     1       1.921   8.483  20.134  0.00  0.00    +0.000 C 
ATOM     25  C   UNL     1       1.239   9.585  19.347  0.00  0.00    +0.000 C 
ATOM     26  C   UNL     1       1.708   9.341  17.918  0.00  0.00    +0.000 C 
ATOM     27  C   UNL     1       2.007   7.840  17.839  0.00  0.00    +0.000 C 
ENDBRANCH  15  22
ENDBRANCH   1  19
TORSDOF 3
ENDMDL
MODEL 3
REMARK VINA RESULT:      -7.8      0.977      1.005
REMARK  Name = 
REMARK  3 active torsions:
REMARK  status: ('A' for Active; 'I' for Inactive)
REMARK    1  A    between atoms: C_2  and  C_3
REMARK    2  A    between atoms: N_7  and  C_8
REMARK    3  A    between atoms: N_12  and  C_13
REMARK                            x       y       z     vdW  Elec       q    Type
REMARK                         _______ _______ _______ _____ _____    ______ ____
ROOT
ATOM      1  C   UNL     1       1.978   9.135  19.128  0.00  0.00    +0.000 C 
ATOM      2  C   UNL     1       2.516   8.578  17.821  0.00  0.00    +0.000 C 
ATOM      3  C   UNL     1       2.776   7.129  18.107  0.00  0.00    +0.000 C 
ATOM      4  O   UNL     1       3.326   6.403  17.289  0.00  0.00    +0.000 OA
ATOM      5  N   UNL     1       2.263   6.804  19.345  0.00  0.00    +0.000 N 
ATOM      6  C   UNL     1       1.824   7.916  20.025  0.00  0.00    +0.000 C 
ATOM      7  O   UNL     1       1.446   7.984  21.187  0.00  0.00    +0.000 OA
ENDROOT
BRANCH   5   8
ATOM      8  C   UNL     1       2.264   5.498  19.913  0.00  0.00    +0.000 A 
ATOM      9  C   UNL     1       3.458   4.773  20.084  0.00  0.00    +0.000 A 
ATOM     10  C   UNL     1       3.447   3.499  20.660  0.00  0.00    +0.000 A 
ATOM     11  C   UNL     1       2.245   2.926  21.050  0.00  0.00    +0.000 A 
ATOM     12  F   UNL     1       2.239   1.706  21.594  0.00  0.00    +0.000 F 
ATOM     13  C   UNL     1       1.049   3.607  20.881  0.00  0.00    +0.000 A 
ATOM     14  C   UNL     1       1.060   4.885  20.321  0.00  0.00    +0.000 A 
ENDBRANCH   5   8
BRANCH   1  19
ATOM     15  C   UNL     1      -0.379  12.073  19.744  0.00  0.00    +0.000 C 
ATOM     16  C   UNL     1      -1.330  11.882  18.549  0.00  0.00    +0.000 C 
ATOM     17  C   UNL     1      -1.511  10.407  18.182  0.00  0.00    +0.000 C 
ATOM     18  C   UNL     1      -0.174   9.690  17.998  0.00  0.00    +0.000 C 
ATOM     19  N   UNL     1       0.739   9.927  19.119  0.00  0.00    +0.000 NA
ATOM     20  C   UNL     1       0.939  11.338  19.449  0.00  0.00    +0.000 C 
BRANCH  15  22
ATOM     21  O   UNL     1      -0.828  10.536  21.563  0.00  0.00    +0.000 OA
ATOM     22  C   UNL     1      -1.055  11.643  21.064  0.00  0.00    +0.000 C 
ATOM     23  N   UNL     1      -1.957  12.485  21.677  0.00  0.00    +0.000 N 
ATOM     24  C   UNL     1      -2.555  12.117  22.949  0.00  0.00    +0.000 C 
ATOM     25  C   UNL     1      -3.931  12.752  22.904  0.00  0.00    +0.000 C 
ATOM     26  C   UNL     1      -3.702  14.035  22.115  0.00  0.00    +0.000 C 
ATOM     27  C   UNL     1      -2.500  13.746  21.208  0.00  0.00    +0.000 C 
ENDBRANCH  15  22
ENDBRANCH   1  19
TORSDOF 3
ENDMDL
MODEL 4
REMARK VINA RESULT:      -7.8      3.592      8.896
REMARK  Name = 
REMARK  3 active torsions:
REMARK  status: ('A' for Active; 'I' for Inactive)
REMARK    1  A    between atoms: C_2  and  C_3
REMARK    2  A    between atoms: N_7  and  C_8
REMARK    3  A    between atoms: N_12  and  C_13
REMARK                            x       y       z     vdW  Elec       q    Type
REMARK                         _______ _______ _______ _____ _____    ______ ____
ROOT
ATOM      1  C   UNL     1       2.590   6.670  20.103  0.00  0.00    +0.000 C 
ATOM      2  C   UNL     1       1.821   6.909  21.391  0.00  0.00    +0.000 C 
ATOM      3  C   UNL     1       1.123   8.219  21.176  0.00  0.00    +0.000 C 
ATOM      4  O   UNL     1       0.498   8.767  22.075  0.00  0.00    +0.000 OA
ATOM      5  N   UNL     1       1.273   8.611  19.863  0.00  0.00    +0.000 N 
ATOM      6  C   UNL     1       2.147   7.796  19.182  0.00  0.00    +0.000 C 
ATOM      7  O   UNL     1       2.595   7.952  18.054  0.00  0.00    +0.000 OA
ENDROOT
BRANCH   5   8
ATOM      8  C   UNL     1       0.683   9.770  19.284  0.00  0.00    +0.000 A 
ATOM      9  C   UNL     1      -0.529   9.699  18.571  0.00  0.00    +0.000 A 
ATOM     10  C   UNL     1      -1.107  10.848  18.024  0.00  0.00    +0.000 A 
ATOM     11  C   UNL     1      -0.473  12.074  18.160  0.00  0.00    +0.000 A 
ATOM     12  F   UNL     1      -1.027  13.169  17.629  0.00  0.00    +0.000 F 
ATOM     13  C   UNL     1       0.730  12.177  18.843  0.00  0.00    +0.000 A 
ATOM     14  C   UNL     1       1.300  11.034  19.404  0.00  0.00    +0.000 A 
ENDBRANCH   5   8
BRANCH   1  19
ATOM     15  C   UNL     1       3.643   3.317  18.614  0.00  0.00    +0.000 C 
ATOM     16  C   UNL     1       2.328   2.539  18.801  0.00  0.00    +0.000 C 
ATOM     17  C   UNL     1       1.098   3.442  18.676  0.00  0.00    +0.000 C 
ATOM     18  C   UNL     1       1.192   4.674  19.575  0.00  0.00    +0.000 C 
ATOM     19  N   UNL     1       2.472   5.371  19.423  0.00  0.00    +0.000 NA
ATOM     20  C   UNL     1       3.649   4.517  19.576  0.00  0.00    +0.000 C 
BRANCH  15  22
ATOM     21  O   UNL     1       2.975   3.491  16.291  0.00  0.00    +0.000 OA
ATOM     22  C   UNL     1       3.854   3.701  17.133  0.00  0.00    +0.000 C 
ATOM     23  N   UNL     1       5.054   4.245  16.731  0.00  0.00    +0.000 N 
ATOM     24  C   UNL     1       5.244   4.664  15.353  0.00  0.00    +0.000 C 
ATOM     25  C   UNL     1       6.721   4.433  15.102  0.00  0.00    +0.000 C 
ATOM     26  C   UNL     1       7.361   4.734  16.451  0.00  0.00    +0.000 C 
ATOM     27  C   UNL     1       6.276   4.433  17.491  0.00  0.00    +0.000 C 
ENDBRANCH  15  22
ENDBRANCH   1  19
TORSDOF 3
ENDMDL
MODEL 5
REMARK VINA RESULT:      -7.7      3.303      7.825
REMARK  Name = 
REMARK  3 active torsions:
REMARK  status: ('A' for Active; 'I' for Inactive)
REMARK    1  A    between atoms: C_2  and  C_3
REMARK    2  A    between atoms: N_7  and  C_8
REMARK    3  A    between atoms: N_12  and  C_13
REMARK                            x       y       z     vdW  Elec       q    Type
REMARK                         _______ _______ _______ _____ _____    ______ ____
ROOT
ATOM      1  C   UNL     1       2.618   7.093  17.815  0.00  0.00    +0.000 C 
ATOM      2  C   UNL     1       2.922   8.488  17.298  0.00  0.00    +0.000 C 
ATOM      3  C   UNL     1       2.184   9.404  18.228  0.00  0.00    +0.000 C 
ATOM      4  O   UNL     1       2.124  10.611  18.025  0.00  0.00    +0.000 OA
ATOM      5  N   UNL     1       1.684   8.679  19.288  0.00  0.00    +0.000 N 
ATOM      6  C   UNL     1       1.849   7.326  19.106  0.00  0.00    +0.000 C 
ATOM      7  O   UNL     1       1.398   6.416  19.789  0.00  0.00    +0.000 OA
ENDROOT
BRANCH   5   8
ATOM      8  C   UNL     1       0.990   9.233  20.402  0.00  0.00    +0.000 A 
ATOM      9  C   UNL     1       1.305   8.861  21.722  0.00  0.00    +0.000 A 
ATOM     10  C   UNL     1       0.628   9.426  22.807  0.00  0.00    +0.000 A 
ATOM     11  C   UNL     1      -0.384  10.348  22.587  0.00  0.00    +0.000 A 
ATOM     12  F   UNL     1      -1.032  10.881  23.628  0.00  0.00    +0.000 F 
ATOM     13  C   UNL     1      -0.731  10.725  21.298  0.00  0.00    +0.000 A 
ATOM     14  C   UNL     1      -0.045  10.174  20.215  0.00  0.00    +0.000 A 
ENDBRANCH   5   8
BRANCH   1  19
ATOM     15  C   UNL     1       4.508   3.779  17.933  0.00  0.00    +0.000 C 
ATOM     16  C   UNL     1       5.938   4.301  17.704  0.00  0.00    +0.000 C 
ATOM     17  C   UNL     1       6.150   5.691  18.308  0.00  0.00    +0.000 C 
ATOM     18  C   UNL     1       5.077   6.685  17.863  0.00  0.00    +0.000 C 
ATOM     19  N   UNL     1       3.724   6.150  18.038  0.00  0.00    +0.000 NA
ATOM     20  C   UNL     1       3.509   4.836  17.432  0.00  0.00    +0.000 C 
BRANCH  15  22
ATOM     21  O   UNL     1       5.252   3.032  20.115  0.00  0.00    +0.000 OA
ATOM     22  C   UNL     1       4.297   3.367  19.406  0.00  0.00    +0.000 C 
ATOM     23  N   UNL     1       3.024   3.328  19.931  0.00  0.00    +0.000 N 
ATOM     24  C   UNL     1       2.818   3.000  21.331  0.00  0.00    +0.000 C 
ATOM     25  C   UNL     1       1.473   2.301  21.348  0.00  0.00    +0.000 C 
ATOM     26  C   UNL     1       0.692   3.009  20.248  0.00  0.00    +0.000 C 
ATOM     27  C   UNL     1       1.750   3.518  19.262  0.00  0.00    +0.000 C 
ENDBRANCH  15  22
ENDBRANCH   1  19
TORSDOF 3
ENDMDL
MODEL 6
REMARK VINA RESULT:      -7.7      3.566      8.711
REMARK  Name = 
REMARK  3 active torsions:
REMARK  status: ('A' for Active; 'I' for Inactive)
REMARK    1  A    between atoms: C_2  and  C_3
REMARK    2  A    between atoms: N_7  and  C_8
REMARK    3  A    between atoms: N_12  and  C_13
REMARK                            x       y       z     vdW  Elec       q    Type
REMARK                         _______ _______ _______ _____ _____    ______ ____
ROOT
ATOM      1  C   UNL     1       2.505   6.929  19.945  0.00  0.00    +0.000 C 
ATOM      2  C   UNL     1       1.566   6.996  21.136  0.00  0.00    +0.000 C 
ATOM      3  C   UNL     1       0.868   8.316  20.991  0.00  0.00    +0.000 C 
ATOM      4  O   UNL     1       0.114   8.740  21.858  0.00  0.00    +0.000 OA
ATOM      5  N   UNL     1       1.179   8.871  19.769  0.00  0.00    +0.000 N 
ATOM      6  C   UNL     1       2.158   8.157  19.117  0.00  0.00    +0.000 C 
ATOM      7  O   UNL     1       2.747   8.458  18.088  0.00  0.00    +0.000 OA
ENDROOT
BRANCH   5   8
ATOM      8  C   UNL     1       0.640  10.088  19.262  0.00  0.00    +0.000 A 
ATOM      9  C   UNL     1      -0.598  10.119  18.592  0.00  0.00    +0.000 A 
ATOM     10  C   UNL     1      -1.125  11.323  18.116  0.00  0.00    +0.000 A 
ATOM     11  C   UNL     1      -0.415  12.503  18.281  0.00  0.00    +0.000 A 
ATOM     12  F   UNL     1      -0.920  13.650  17.819  0.00  0.00    +0.000 F 
ATOM     13  C   UNL     1       0.815  12.505  18.923  0.00  0.00    +0.000 A 
ATOM     14  C   UNL     1       1.335  11.306  19.414  0.00  0.00    +0.000 A 
ENDBRANCH   5   8
BRANCH   1  19
ATOM     15  C   UNL     1       3.445   3.436  18.727  0.00  0.00    +0.000 C 
ATOM     16  C   UNL     1       2.128   3.055  18.026  0.00  0.00    +0.000 C 
ATOM     17  C   UNL     1       1.431   4.268  17.405  0.00  0.00    +0.000 C 
ATOM     18  C   UNL     1       1.263   5.413  18.404  0.00  0.00    +0.000 C 
ATOM     19  N   UNL     1       2.514   5.725  19.100  0.00  0.00    +0.000 NA
ATOM     20  C   UNL     1       3.164   4.573  19.724  0.00  0.00    +0.000 C 
BRANCH  15  22
ATOM     21  O   UNL     1       4.515   3.285  16.557  0.00  0.00    +0.000 OA
ATOM     22  C   UNL     1       4.546   3.765  17.695  0.00  0.00    +0.000 C 
ATOM     23  N   UNL     1       5.604   4.570  18.056  0.00  0.00    +0.000 N 
ATOM     24  C   UNL     1       6.615   4.935  17.078  0.00  0.00    +0.000 C 
ATOM     25  C   UNL     1       7.883   5.073  17.898  0.00  0.00    +0.000 C 
ATOM     26  C   UNL     1       7.384   5.613  19.233  0.00  0.00    +0.000 C 
ATOM     27  C   UNL     1       5.940   5.113  19.359  0.00  0.00    +0.000 C 
ENDBRANCH  15  22
ENDBRANCH   1  19
TORSDOF 3
ENDMDL
MODEL 7
REMARK VINA RESULT:      -7.6      1.218      1.364
REMARK  Name = 
REMARK  3 active torsions:
REMARK  status: ('A' for Active; 'I' for Inactive)
REMARK    1  A    between atoms: C_2  and  C_3
REMARK    2  A    between atoms: N_7  and  C_8
REMARK    3  A    between atoms: N_12  and  C_13
REMARK                            x       y       z     vdW  Elec       q    Type
REMARK                         _______ _______ _______ _____ _____    ______ ____
ROOT
ATOM      1  C   UNL     1       1.422  10.071  19.214  0.00  0.00    +0.000 C 
ATOM      2  C   UNL     1       1.967   9.748  17.833  0.00  0.00    +0.000 C 
ATOM      3  C   UNL     1       2.485   8.345  17.952  0.00  0.00    +0.000 C 
ATOM      4  O   UNL     1       3.100   7.810  17.038  0.00  0.00    +0.000 OA
ATOM      5  N   UNL     1       2.109   7.815  19.168  0.00  0.00    +0.000 N 
ATOM      6  C   UNL     1       1.530   8.761  19.981  0.00  0.00    +0.000 C 
ATOM      7  O   UNL     1       1.216   8.648  21.158  0.00  0.00    +0.000 OA
ENDROOT
BRANCH   5   8
ATOM      8  C   UNL     1       2.365   6.480  19.592  0.00  0.00    +0.000 A 
ATOM      9  C   UNL     1       1.419   5.752  20.336  0.00  0.00    +0.000 A 
ATOM     10  C   UNL     1       1.675   4.436  20.730  0.00  0.00    +0.000 A 
ATOM     11  C   UNL     1       2.886   3.840  20.408  0.00  0.00    +0.000 A 
ATOM     12  F   UNL     1       3.129   2.584  20.793  0.00  0.00    +0.000 F 
ATOM     13  C   UNL     1       3.847   4.535  19.689  0.00  0.00    +0.000 A 
ATOM     14  C   UNL     1       3.586   5.844  19.280  0.00  0.00    +0.000 A 
ENDBRANCH   5   8
BRANCH   1  19
ATOM     15  C   UNL     1      -1.334  12.581  20.033  0.00  0.00    +0.000 C 
ATOM     16  C   UNL     1      -2.376  12.157  18.982  0.00  0.00    +0.000 C 
ATOM     17  C   UNL     1      -2.330  10.654  18.695  0.00  0.00    +0.000 C 
ATOM     18  C   UNL     1      -0.919  10.173  18.360  0.00  0.00    +0.000 C 
ATOM     19  N   UNL     1       0.068  10.631  19.341  0.00  0.00    +0.000 NA
ATOM     20  C   UNL     1       0.048  12.072  19.592  0.00  0.00    +0.000 C 
BRANCH  15  22
ATOM     21  O   UNL     1      -1.257  11.106  21.954  0.00  0.00    +0.000 OA
ATOM     22  C   UNL     1      -1.751  12.118  21.445  0.00  0.00    +0.000 C 
ATOM     23  N   UNL     1      -2.719  12.814  22.137  0.00  0.00    +0.000 N 
ATOM     24  C   UNL     1      -3.078  12.422  23.489  0.00  0.00    +0.000 C 
ATOM     25  C   UNL     1      -4.545  12.787  23.597  0.00  0.00    +0.000 C 
ATOM     26  C   UNL     1      -4.664  14.038  22.736  0.00  0.00    +0.000 C 
ATOM     27  C   UNL     1      -3.546  13.920  21.692  0.00  0.00    +0.000 C 
ENDBRANCH  15  22
ENDBRANCH   1  19
TORSDOF 3
ENDMDL
MODEL 8
REMARK VINA RESULT:      -7.5      3.541      8.720
REMARK  Name = 
REMARK  3 active torsions:
REMARK  status: ('A' for Active; 'I' for Inactive)
REMARK    1  A    between atoms: C_2  and  C_3
REMARK    2  A    between atoms: N_7  and  C_8
REMARK    3  A    between atoms: N_12  and  C_13
REMARK                            x       y       z     vdW  Elec       q    Type
REMARK                         _______ _______ _______ _____ _____    ______ ____
ROOT
ATOM      1  C   UNL     1       2.155   7.838  20.005  0.00  0.00    +0.000 C 
ATOM      2  C   UNL     1       1.554   8.321  21.313  0.00  0.00    +0.000 C 
ATOM      3  C   UNL     1       0.495   9.300  20.903  0.00  0.00    +0.000 C 
ATOM      4  O   UNL     1      -0.115   9.968  21.729  0.00  0.00    +0.000 OA
ATOM      5  N   UNL     1       0.328   9.254  19.535  0.00  0.00    +0.000 N 
ATOM      6  C   UNL     1       1.281   8.468  18.931  0.00  0.00    +0.000 C 
ATOM      7  O   UNL     1       1.492   8.331  17.733  0.00  0.00    +0.000 OA
ENDROOT
BRANCH   5   8
ATOM      8  C   UNL     1      -0.643   9.995  18.805  0.00  0.00    +0.000 A 
ATOM      9  C   UNL     1      -0.504  11.380  18.595  0.00  0.00    +0.000 A 
ATOM     10  C   UNL     1      -1.455  12.093  17.859  0.00  0.00    +0.000 A 
ATOM     11  C   UNL     1      -2.565  11.439  17.346  0.00  0.00    +0.000 A 
ATOM     12  F   UNL     1      -3.475  12.126  16.649  0.00  0.00    +0.000 F 
ATOM     13  C   UNL     1      -2.741  10.078  17.548  0.00  0.00    +0.000 A 
ATOM     14  C   UNL     1      -1.784   9.362  18.267  0.00  0.00    +0.000 A 
ENDBRANCH   5   8
BRANCH   1  19
ATOM     15  C   UNL     1       3.866   4.489  19.357  0.00  0.00    +0.000 C 
ATOM     16  C   UNL     1       2.846   3.555  20.033  0.00  0.00    +0.000 C 
ATOM     17  C   UNL     1       1.413   4.080  19.915  0.00  0.00    +0.000 C 
ATOM     18  C   UNL     1       1.289   5.530  20.380  0.00  0.00    +0.000 C 
ATOM     19  N   UNL     1       2.302   6.394  19.768  0.00  0.00    +0.000 NA
ATOM     20  C   UNL     1       3.676   5.911  19.909  0.00  0.00    +0.000 C 
BRANCH  15  22
ATOM     21  O   UNL     1       2.698   4.126  17.265  0.00  0.00    +0.000 OA
ATOM     22  C   UNL     1       3.769   4.395  17.819  0.00  0.00    +0.000 C 
ATOM     23  N   UNL     1       4.898   4.572  17.050  0.00  0.00    +0.000 N 
ATOM     24  C   UNL     1       4.808   4.545  15.600  0.00  0.00    +0.000 C 
ATOM     25  C   UNL     1       6.146   3.982  15.162  0.00  0.00    +0.000 C 
ATOM     26  C   UNL     1       7.117   4.524  16.204  0.00  0.00    +0.000 C 
ATOM     27  C   UNL     1       6.277   4.735  17.469  0.00  0.00    +0.000 C 
ENDBRANCH  15  22
ENDBRANCH   1  19
TORSDOF 3
ENDMDL
MODEL 9
REMARK VINA RESULT:      -7.4      2.760      4.369
REMARK  Name = 
REMARK  3 active torsions:
REMARK  status: ('A' for Active; 'I' for Inactive)
REMARK    1  A    between atoms: C_2  and  C_3
REMARK    2  A    between atoms: N_7  and  C_8
REMARK    3  A    between atoms: N_12  and  C_13
REMARK                            x       y       z     vdW  Elec       q    Type
REMARK                         _______ _______ _______ _____ _____    ______ ____
ROOT
ATOM      1  C   UNL     1      -0.519  12.865  18.608  0.00  0.00    +0.000 C 
ATOM      2  C   UNL     1      -1.648  11.985  18.099  0.00  0.00    +0.000 C 
ATOM      3  C   UNL     1      -1.066  10.603  18.073  0.00  0.00    +0.000 C 
ATOM      4  O   UNL     1      -1.683   9.657  17.599  0.00  0.00    +0.000 OA
ATOM      5  N   UNL     1       0.169  10.610  18.686  0.00  0.00    +0.000 N 
ATOM      6  C   UNL     1       0.584  11.887  18.985  0.00  0.00    +0.000 C 
ATOM      7  O   UNL     1       1.679  12.242  19.402  0.00  0.00    +0.000 OA
ENDROOT
BRANCH   5   8
ATOM      8  C   UNL     1       0.979   9.460  18.906  0.00  0.00    +0.000 A 
ATOM      9  C   UNL     1       1.048   8.841  20.168  0.00  0.00    +0.000 A 
ATOM     10  C   UNL     1       1.832   7.702  20.366  0.00  0.00    +0.000 A 
ATOM     11  C   UNL     1       2.574   7.181  19.317  0.00  0.00    +0.000 A 
ATOM     12  F   UNL     1       3.328   6.096  19.513  0.00  0.00    +0.000 F 
ATOM     13  C   UNL     1       2.542   7.776  18.064  0.00  0.00    +0.000 A 
ATOM     14  C   UNL     1       1.746   8.904  17.860  0.00  0.00    +0.000 A 
ENDBRANCH   5   8
BRANCH   1  19
ATOM     15  C   UNL     1      -1.318  14.080  22.137  0.00  0.00    +0.000 C 
ATOM     16  C   UNL     1      -0.573  15.427  22.110  0.00  0.00    +0.000 C 
ATOM     17  C   UNL     1      -0.577  16.064  20.718  0.00  0.00    +0.000 C 
ATOM     18  C   UNL     1      -0.094  15.095  19.638  0.00  0.00    +0.000 C 
ATOM     19  N   UNL     1      -0.776  13.801  19.713  0.00  0.00    +0.000 NA
ATOM     20  C   UNL     1      -0.743  13.175  21.035  0.00  0.00    +0.000 C 
BRANCH  15  22
ATOM     21  O   UNL     1      -3.322  15.173  21.322  0.00  0.00    +0.000 OA
ATOM     22  C   UNL     1      -2.845  14.290  22.043  0.00  0.00    +0.000 C 
ATOM     23  N   UNL     1      -3.691  13.512  22.803  0.00  0.00    +0.000 N 
ATOM     24  C   UNL     1      -5.131  13.660  22.679  0.00  0.00    +0.000 C 
ATOM     25  C   UNL     1      -5.652  13.333  24.064  0.00  0.00    +0.000 C 
ATOM     26  C   UNL     1      -4.685  12.267  24.564  0.00  0.00    +0.000 C 
ATOM     27  C   UNL     1      -3.368  12.536  23.826  0.00  0.00    +0.000 C 
ENDBRANCH  15  22
ENDBRANCH   1  19
TORSDOF 3
ENDMDL
