MODEL 1
REMARK VINA RESULT:      -7.6      0.000      0.000
REMARK  Name = 
REMARK  9 active torsions:
REMARK  status: ('A' for Active; 'I' for Inactive)
REMARK    1  A    between atoms: C_1  and  C_2
REMARK    2  A    between atoms: C_2  and  C_3
REMARK    3  A    between atoms: N_10  and  O_11
REMARK    4  A    between atoms: O_11  and  C_12
REMARK    5  A    between atoms: C_12  and  C_13
REMARK    6  A    between atoms: C_13  and  N_14
REMARK    7  A    between atoms: N_14  and  S_15
REMARK    8  A    between atoms: S_15  and  C_18
REMARK    9  A    between atoms: C_21  and  N_22
REMARK                            x       y       z     vdW  Elec       q    Type
REMARK                         _______ _______ _______ _____ _____    ______ ____
ROOT
ATOM      1  C   UNL     1       3.268   6.511  17.751  0.00  0.00    +0.000 C 
ENDROOT
BRANCH   1   2
ATOM      2  O   UNL     1       3.129   5.122  17.740  0.00  0.00    +0.000 OA
BRANCH   2  12
ATOM      3  C   UNL     1       4.495   2.816  18.909  0.00  0.00    +0.000 C 
ATOM      4  C   UNL     1       2.989   3.099  18.981  0.00  0.00    +0.000 C 
ATOM      5  C   UNL     1       2.282   2.423  17.789  0.00  0.00    +0.000 C 
ATOM      6  N   UNL     1       2.487   2.470  20.192  0.00  0.00    +0.000 NA
ATOM      7  C   UNL     1       1.987   3.105  21.184  0.00  0.00    +0.000 C 
ATOM      8  N   UNL     1       1.515   2.400  22.318  0.00  0.00    +0.000 N 
ATOM      9  N   UNL     1       1.921   4.507  21.168  0.00  0.00    +0.000 NA
ATOM     10  C   UNL     1       2.267   5.228  20.164  0.00  0.00    +0.000 C 
ATOM     11  N   UNL     1       2.120   6.639  20.384  0.00  0.00    +0.000 N 
ATOM     12  N   UNL     1       2.777   4.564  18.946  0.00  0.00    +0.000 N 
ATOM     13  H   UNL     1       1.543   1.373  22.347  0.00  0.00    +0.000 HD
ATOM     14  H   UNL     1       1.122   2.919  23.118  0.00  0.00    +0.000 HD
ATOM     15  H   UNL     1       1.769   6.946  21.303  0.00  0.00    +0.000 HD
ATOM     16  H   UNL     1       2.331   7.425  19.771  0.00  0.00    +0.000 HD
ENDBRANCH   2  12
ENDBRANCH   1   2
BRANCH   1  17
ATOM     17  C   UNL     1       4.696   6.917  17.396  0.00  0.00    +0.000 C 
BRANCH  17  18
ATOM     18  N   UNL     1       5.663   6.224  18.248  0.00  0.00    +0.000 NA
ATOM     19  H   UNL     1       5.211   5.369  18.649  0.00  0.00    +0.000 HD
BRANCH  18  20
ATOM     20  S   UNL     1       7.015   5.666  17.247  0.00  0.00    +0.000 S 
ATOM     21  O   UNL     1       7.917   6.896  17.075  0.00  0.00    +0.000 OA
ATOM     22  O   UNL     1       7.860   4.765  18.163  0.00  0.00    +0.000 OA
BRANCH  20  23
ATOM     23  C   UNL     1       6.596   4.902  15.683  0.00  0.00    +0.000 A 
ATOM     24  C   UNL     1       5.533   3.998  15.623  0.00  0.00    +0.000 A 
ATOM     25  C   UNL     1       5.201   3.382  14.414  0.00  0.00    +0.000 A 
ATOM     26  C   UNL     1       5.933   3.665  13.244  0.00  0.00    +0.000 A 
ATOM     27  C   UNL     1       7.006   4.575  13.317  0.00  0.00    +0.000 A 
ATOM     28  C   UNL     1       7.332   5.189  14.530  0.00  0.00    +0.000 A 
BRANCH  26  29
ATOM     29  N   UNL     1       5.602   3.035  12.006  0.00  0.00    +0.000 N 
ATOM     30  O   UNL     1       6.341   2.237  11.512  0.00  0.00    +0.000 OA
ATOM     31  O   UNL     1       4.473   3.323  11.391  0.00  0.00    +0.000 OA
ENDBRANCH  26  29
ENDBRANCH  20  23
ENDBRANCH  18  20
ENDBRANCH  17  18
ENDBRANCH   1  17
TORSDOF 7
ENDMDL
MODEL 2
REMARK VINA RESULT:      -7.5      3.092      6.793
REMARK  Name = 
REMARK  9 active torsions:
REMARK  status: ('A' for Active; 'I' for Inactive)
REMARK    1  A    between atoms: C_1  and  C_2
REMARK    2  A    between atoms: C_2  and  C_3
REMARK    3  A    between atoms: N_10  and  O_11
REMARK    4  A    between atoms: O_11  and  C_12
REMARK    5  A    between atoms: C_12  and  C_13
REMARK    6  A    between atoms: C_13  and  N_14
REMARK    7  A    between atoms: N_14  and  S_15
REMARK    8  A    between atoms: S_15  and  C_18
REMARK    9  A    between atoms: C_21  and  N_22
REMARK                            x       y       z     vdW  Elec       q    Type
REMARK                         _______ _______ _______ _____ _____    ______ ____
ROOT
ATOM      1  C   UNL     1       3.889   3.345  16.977  0.00  0.00    +0.000 C 
ENDROOT
BRANCH   1   2
ATOM      2  O   UNL     1       5.234   3.434  16.611  0.00  0.00    +0.000 OA
BRANCH   2  12
ATOM      3  C   UNL     1       5.116   6.101  15.419  0.00  0.00    +0.000 C 
ATOM      4  C   UNL     1       6.351   5.460  16.066  0.00  0.00    +0.000 C 
ATOM      5  C   UNL     1       7.166   4.715  14.990  0.00  0.00    +0.000 C 
ATOM      6  N   UNL     1       7.187   6.539  16.568  0.00  0.00    +0.000 NA
ATOM      7  C   UNL     1       7.453   6.733  17.805  0.00  0.00    +0.000 C 
ATOM      8  N   UNL     1       8.287   7.808  18.195  0.00  0.00    +0.000 N 
ATOM      9  N   UNL     1       6.904   5.895  18.788  0.00  0.00    +0.000 NA
ATOM     10  C   UNL     1       6.187   4.862  18.529  0.00  0.00    +0.000 C 
ATOM     11  N   UNL     1       5.730   4.165  19.697  0.00  0.00    +0.000 N 
ATOM     12  N   UNL     1       5.903   4.521  17.119  0.00  0.00    +0.000 N 
ATOM     13  H   UNL     1       8.710   8.428  17.492  0.00  0.00    +0.000 HD
ATOM     14  H   UNL     1       8.489   7.965  19.194  0.00  0.00    +0.000 HD
ATOM     15  H   UNL     1       5.997   4.545  20.618  0.00  0.00    +0.000 HD
ATOM     16  H   UNL     1       5.143   3.337  19.781  0.00  0.00    +0.000 HD
ENDBRANCH   2  12
ENDBRANCH   1   2
BRANCH   1  17
ATOM     17  C   UNL     1       3.638   2.102  17.825  0.00  0.00    +0.000 C 
BRANCH  17  18
ATOM     18  N   UNL     1       2.281   2.109  18.373  0.00  0.00    +0.000 NA
ATOM     19  H   UNL     1       2.046   1.146  18.710  0.00  0.00    +0.000 HD
BRANCH  18  20
ATOM     20  S   UNL     1       2.240   3.171  19.792  0.00  0.00    +0.000 S 
ATOM     21  O   UNL     1       1.071   2.654  20.641  0.00  0.00    +0.000 OA
ATOM     22  O   UNL     1       3.462   2.774  20.637  0.00  0.00    +0.000 OA
BRANCH  20  23
ATOM     23  C   UNL     1       2.132   4.931  19.477  0.00  0.00    +0.000 A 
ATOM     24  C   UNL     1       1.832   5.799  20.529  0.00  0.00    +0.000 A 
ATOM     25  C   UNL     1       1.730   7.173  20.298  0.00  0.00    +0.000 A 
ATOM     26  C   UNL     1       1.927   7.697  19.006  0.00  0.00    +0.000 A 
ATOM     27  C   UNL     1       2.225   6.811  17.952  0.00  0.00    +0.000 A 
ATOM     28  C   UNL     1       2.327   5.437  18.189  0.00  0.00    +0.000 A 
BRANCH  26  29
ATOM     29  N   UNL     1       1.819   9.100  18.763  0.00  0.00    +0.000 N 
ATOM     30  O   UNL     1       1.412   9.836  19.613  0.00  0.00    +0.000 OA
ATOM     31  O   UNL     1       2.167   9.605  17.597  0.00  0.00    +0.000 OA
ENDBRANCH  26  29
ENDBRANCH  20  23
ENDBRANCH  18  20
ENDBRANCH  17  18
ENDBRANCH   1  17
TORSDOF 7
ENDMDL
MODEL 3
REMARK VINA RESULT:      -7.4      5.625      8.858
REMARK  Name = 
REMARK  9 active torsions:
REMARK  status: ('A' for Active; 'I' for Inactive)
REMARK    1  A    between atoms: C_1  and  C_2
REMARK    2  A    between atoms: C_2  and  C_3
REMARK    3  A    between atoms: N_10  and  O_11
REMARK    4  A    between atoms: O_11  and  C_12
REMARK    5  A    between atoms: C_12  and  C_13
REMARK    6  A    between atoms: C_13  and  N_14
REMARK    7  A    between atoms: N_14  and  S_15
REMARK    8  A    between atoms: S_15  and  C_18
REMARK    9  A    between atoms: C_21  and  N_22
REMARK                            x       y       z     vdW  Elec       q    Type
REMARK                         _______ _______ _______ _____ _____    ______ ____
ROOT
ATOM      1  C   UNL     1       8.414   9.859  17.857  0.00  0.00    +0.000 C 
ENDROOT
BRANCH   1   2
ATOM      2  O   UNL     1       9.063  10.498  18.916  0.00  0.00    +0.000 OA
BRANCH   2  12
ATOM      3  C   UNL     1      11.813  11.482  18.798  0.00  0.00    +0.000 C 
ATOM      4  C   UNL     1      10.617  12.230  19.400  0.00  0.00    +0.000 C 
ATOM      5  C   UNL     1      10.508  11.899  20.902  0.00  0.00    +0.000 C 
ATOM      6  N   UNL     1      10.896  13.652  19.292  0.00  0.00    +0.000 NA
ATOM      7  C   UNL     1      10.213  14.473  18.585  0.00  0.00    +0.000 C 
ATOM      8  N   UNL     1      10.559  15.845  18.551  0.00  0.00    +0.000 N 
ATOM      9  N   UNL     1       9.129  14.017  17.819  0.00  0.00    +0.000 NA
ATOM     10  C   UNL     1       8.703  12.805  17.832  0.00  0.00    +0.000 C 
ATOM     11  N   UNL     1       7.587  12.573  16.960  0.00  0.00    +0.000 N 
ATOM     12  N   UNL     1       9.387  11.814  18.688  0.00  0.00    +0.000 N 
ATOM     13  H   UNL     1      11.342  16.204  19.113  0.00  0.00    +0.000 HD
ATOM     14  H   UNL     1      10.011  16.499  17.972  0.00  0.00    +0.000 HD
ATOM     15  H   UNL     1       7.237  13.370  16.407  0.00  0.00    +0.000 HD
ATOM     16  H   UNL     1       7.071  11.716  16.767  0.00  0.00    +0.000 HD
ENDBRANCH   2  12
ENDBRANCH   1   2
BRANCH   1  17
ATOM     17  C   UNL     1       8.143   8.394  18.190  0.00  0.00    +0.000 C 
BRANCH  17  18
ATOM     18  N   UNL     1       7.168   7.820  17.263  0.00  0.00    +0.000 NA
ATOM     19  H   UNL     1       7.522   7.934  16.284  0.00  0.00    +0.000 HD
BRANCH  18  20
ATOM     20  S   UNL     1       7.047   6.077  17.563  0.00  0.00    +0.000 S 
ATOM     21  O   UNL     1       7.632   5.416  16.307  0.00  0.00    +0.000 OA
ATOM     22  O   UNL     1       8.116   5.768  18.624  0.00  0.00    +0.000 OA
BRANCH  20  23
ATOM     23  C   UNL     1       5.425   5.442  17.978  0.00  0.00    +0.000 A 
ATOM     24  C   UNL     1       4.612   4.923  16.968  0.00  0.00    +0.000 A 
ATOM     25  C   UNL     1       3.338   4.436  17.272  0.00  0.00    +0.000 A 
ATOM     26  C   UNL     1       2.860   4.464  18.597  0.00  0.00    +0.000 A 
ATOM     27  C   UNL     1       3.688   4.994  19.607  0.00  0.00    +0.000 A 
ATOM     28  C   UNL     1       4.962   5.479  19.296  0.00  0.00    +0.000 A 
BRANCH  26  29
ATOM     29  N   UNL     1       1.557   3.973  18.912  0.00  0.00    +0.000 N 
ATOM     30  O   UNL     1       1.041   4.242  19.956  0.00  0.00    +0.000 OA
ATOM     31  O   UNL     1       0.903   3.216  18.055  0.00  0.00    +0.000 OA
ENDBRANCH  26  29
ENDBRANCH  20  23
ENDBRANCH  18  20
ENDBRANCH  17  18
ENDBRANCH   1  17
TORSDOF 7
ENDMDL
MODEL 4
REMARK VINA RESULT:      -7.4      5.677      8.487
REMARK  Name = 
REMARK  9 active torsions:
REMARK  status: ('A' for Active; 'I' for Inactive)
REMARK    1  A    between atoms: C_1  and  C_2
REMARK    2  A    between atoms: C_2  and  C_3
REMARK    3  A    between atoms: N_10  and  O_11
REMARK    4  A    between atoms: O_11  and  C_12
REMARK    5  A    between atoms: C_12  and  C_13
REMARK    6  A    between atoms: C_13  and  N_14
REMARK    7  A    between atoms: N_14  and  S_15
REMARK    8  A    between atoms: S_15  and  C_18
REMARK    9  A    between atoms: C_21  and  N_22
REMARK                            x       y       z     vdW  Elec       q    Type
REMARK                         _______ _______ _______ _____ _____    ______ ____
ROOT
ATOM      1  C   UNL     1       3.326   7.370  17.840  0.00  0.00    +0.000 C 
ENDROOT
BRANCH   1   2
ATOM      2  O   UNL     1       2.937   6.647  18.970  0.00  0.00    +0.000 OA
BRANCH   2  12
ATOM      3  C   UNL     1       1.641   4.124  18.262  0.00  0.00    +0.000 C 
ATOM      4  C   UNL     1       2.581   4.347  19.455  0.00  0.00    +0.000 C 
ATOM      5  C   UNL     1       1.753   4.743  20.694  0.00  0.00    +0.000 C 
ATOM      6  N   UNL     1       3.217   3.074  19.751  0.00  0.00    +0.000 NA
ATOM      7  C   UNL     1       4.473   2.849  19.645  0.00  0.00    +0.000 C 
ATOM      8  N   UNL     1       4.999   1.575  19.967  0.00  0.00    +0.000 N 
ATOM      9  N   UNL     1       5.337   3.857  19.191  0.00  0.00    +0.000 NA
ATOM     10  C   UNL     1       4.963   5.058  18.933  0.00  0.00    +0.000 C 
ATOM     11  N   UNL     1       6.022   5.910  18.472  0.00  0.00    +0.000 N 
ATOM     12  N   UNL     1       3.541   5.420  19.109  0.00  0.00    +0.000 N 
ATOM     13  H   UNL     1       4.387   0.825  20.313  0.00  0.00    +0.000 HD
ATOM     14  H   UNL     1       6.011   1.399  19.871  0.00  0.00    +0.000 HD
ATOM     15  H   UNL     1       6.963   5.498  18.380  0.00  0.00    +0.000 HD
ATOM     16  H   UNL     1       6.003   6.888  18.187  0.00  0.00    +0.000 HD
ENDBRANCH   2  12
ENDBRANCH   1   2
BRANCH   1  17
ATOM     17  C   UNL     1       2.684   8.755  17.834  0.00  0.00    +0.000 C 
BRANCH  17  18
ATOM     18  N   UNL     1       1.224   8.654  17.849  0.00  0.00    +0.000 NA
ATOM     19  H   UNL     1       0.948   7.800  18.389  0.00  0.00    +0.000 HD
BRANCH  18  20
ATOM     20  S   UNL     1       0.561  10.047  18.722  0.00  0.00    +0.000 S 
ATOM     21  O   UNL     1       0.810   9.742  20.205  0.00  0.00    +0.000 OA
ATOM     22  O   UNL     1       1.539  11.202  18.454  0.00  0.00    +0.000 OA
BRANCH  20  23
ATOM     23  C   UNL     1      -1.148  10.466  18.388  0.00  0.00    +0.000 A 
ATOM     24  C   UNL     1      -1.770  11.464  19.142  0.00  0.00    +0.000 A 
ATOM     25  C   UNL     1      -3.106  11.794  18.904  0.00  0.00    +0.000 A 
ATOM     26  C   UNL     1      -3.840  11.126  17.903  0.00  0.00    +0.000 A 
ATOM     27  C   UNL     1      -3.203  10.118  17.153  0.00  0.00    +0.000 A 
ATOM     28  C   UNL     1      -1.865   9.793  17.394  0.00  0.00    +0.000 A 
BRANCH  26  29
ATOM     29  N   UNL     1      -5.208  11.456  17.660  0.00  0.00    +0.000 N 
ATOM     30  O   UNL     1      -6.087  10.807  18.145  0.00  0.00    +0.000 OA
ATOM     31  O   UNL     1      -5.521  12.483  16.897  0.00  0.00    +0.000 OA
ENDBRANCH  26  29
ENDBRANCH  20  23
ENDBRANCH  18  20
ENDBRANCH  17  18
ENDBRANCH   1  17
TORSDOF 7
ENDMDL
MODEL 5
REMARK VINA RESULT:      -7.3      5.824      9.003
REMARK  Name = 
REMARK  9 active torsions:
REMARK  status: ('A' for Active; 'I' for Inactive)
REMARK    1  A    between atoms: C_1  and  C_2
REMARK    2  A    between atoms: C_2  and  C_3
REMARK    3  A    between atoms: N_10  and  O_11
REMARK    4  A    between atoms: O_11  and  C_12
REMARK    5  A    between atoms: C_12  and  C_13
REMARK    6  A    between atoms: C_13  and  N_14
REMARK    7  A    between atoms: N_14  and  S_15
REMARK    8  A    between atoms: S_15  and  C_18
REMARK    9  A    between atoms: C_21  and  N_22
REMARK                            x       y       z     vdW  Elec       q    Type
REMARK                         _______ _______ _______ _____ _____    ______ ____
ROOT
ATOM      1  C   UNL     1       8.365  10.303  18.347  0.00  0.00    +0.000 C 
ENDROOT
BRANCH   1   2
ATOM      2  O   UNL     1       9.559  10.908  17.948  0.00  0.00    +0.000 OA
BRANCH   2  12
ATOM      3  C   UNL     1      12.058  12.424  17.918  0.00  0.00    +0.000 C 
ATOM      4  C   UNL     1      10.871  12.668  18.860  0.00  0.00    +0.000 C 
ATOM      5  C   UNL     1      11.064  11.847  20.151  0.00  0.00    +0.000 C 
ATOM      6  N   UNL     1      10.896  14.072  19.234  0.00  0.00    +0.000 NA
ATOM      7  C   UNL     1       9.984  14.919  18.932  0.00  0.00    +0.000 C 
ATOM      8  N   UNL     1      10.094  16.266  19.352  0.00  0.00    +0.000 N 
ATOM      9  N   UNL     1       8.877  14.524  18.165  0.00  0.00    +0.000 NA
ATOM     10  C   UNL     1       8.660  13.315  17.790  0.00  0.00    +0.000 C 
ATOM     11  N   UNL     1       7.469  13.156  17.005  0.00  0.00    +0.000 N 
ATOM     12  N   UNL     1       9.625  12.262  18.170  0.00  0.00    +0.000 N 
ATOM     13  H   UNL     1      10.890  16.575  19.925  0.00  0.00    +0.000 HD
ATOM     14  H   UNL     1       9.360  16.944  19.098  0.00  0.00    +0.000 HD
ATOM     15  H   UNL     1       6.910  13.999  16.807  0.00  0.00    +0.000 HD
ATOM     16  H   UNL     1       7.073  12.322  16.573  0.00  0.00    +0.000 HD
ENDBRANCH   2  12
ENDBRANCH   1   2
BRANCH   1  17
ATOM     17  C   UNL     1       8.416   8.796  18.116  0.00  0.00    +0.000 C 
BRANCH  17  18
ATOM     18  N   UNL     1       7.229   8.338  17.392  0.00  0.00    +0.000 NA
ATOM     19  H   UNL     1       7.350   8.549  16.374  0.00  0.00    +0.000 HD
BRANCH  18  20
ATOM     20  S   UNL     1       7.111   6.575  17.539  0.00  0.00    +0.000 S 
ATOM     21  O   UNL     1       7.746   6.026  16.254  0.00  0.00    +0.000 OA
ATOM     22  O   UNL     1       8.142   6.183  18.610  0.00  0.00    +0.000 OA
BRANCH  20  23
ATOM     23  C   UNL     1       5.479   5.900  17.839  0.00  0.00    +0.000 A 
ATOM     24  C   UNL     1       5.355   4.647  18.442  0.00  0.00    +0.000 A 
ATOM     25  C   UNL     1       4.090   4.099  18.670  0.00  0.00    +0.000 A 
ATOM     26  C   UNL     1       2.929   4.803  18.295  0.00  0.00    +0.000 A 
ATOM     27  C   UNL     1       3.067   6.065  17.684  0.00  0.00    +0.000 A 
ATOM     28  C   UNL     1       4.335   6.608  17.459  0.00  0.00    +0.000 A 
BRANCH  26  29
ATOM     29  N   UNL     1       1.634   4.246  18.521  0.00  0.00    +0.000 N 
ATOM     30  O   UNL     1       0.929   3.950  17.602  0.00  0.00    +0.000 OA
ATOM     31  O   UNL     1       1.196   4.049  19.748  0.00  0.00    +0.000 OA
ENDBRANCH  26  29
ENDBRANCH  20  23
ENDBRANCH  18  20
ENDBRANCH  17  18
ENDBRANCH   1  17
TORSDOF 7
ENDMDL
MODEL 6
REMARK VINA RESULT:      -7.3      5.559      8.209
REMARK  Name = 
REMARK  9 active torsions:
REMARK  status: ('A' for Active; 'I' for Inactive)
REMARK    1  A    between atoms: C_1  and  C_2
REMARK    2  A    between atoms: C_2  and  C_3
REMARK    3  A    between atoms: N_10  and  O_11
REMARK    4  A    between atoms: O_11  and  C_12
REMARK    5  A    between atoms: C_12  and  C_13
REMARK    6  A    between atoms: C_13  and  N_14
REMARK    7  A    between atoms: N_14  and  S_15
REMARK    8  A    between atoms: S_15  and  C_18
REMARK    9  A    between atoms: C_21  and  N_22
REMARK                            x       y       z     vdW  Elec       q    Type
REMARK                         _______ _______ _______ _____ _____    ______ ____
ROOT
ATOM      1  C   UNL     1       1.990   7.275  17.867  0.00  0.00    +0.000 C 
ENDROOT
BRANCH   1   2
ATOM      2  O   UNL     1       2.949   6.280  18.065  0.00  0.00    +0.000 OA
BRANCH   2  12
ATOM      3  C   UNL     1       4.603   3.951  18.687  0.00  0.00    +0.000 C 
ATOM      4  C   UNL     1       3.076   4.028  18.814  0.00  0.00    +0.000 C 
ATOM      5  C   UNL     1       2.427   3.559  17.497  0.00  0.00    +0.000 C 
ATOM      6  N   UNL     1       2.679   3.086  19.849  0.00  0.00    +0.000 NA
ATOM      7  C   UNL     1       2.131   3.417  20.957  0.00  0.00    +0.000 C 
ATOM      8  N   UNL     1       1.772   2.423  21.899  0.00  0.00    +0.000 N 
ATOM      9  N   UNL     1       1.900   4.767  21.259  0.00  0.00    +0.000 NA
ATOM     10  C   UNL     1       2.136   5.733  20.446  0.00  0.00    +0.000 C 
ATOM     11  N   UNL     1       1.829   7.030  20.979  0.00  0.00    +0.000 N 
ATOM     12  N   UNL     1       2.693   5.427  19.111  0.00  0.00    +0.000 N 
ATOM     13  H   UNL     1       1.921   1.426  21.695  0.00  0.00    +0.000 HD
ATOM     14  H   UNL     1       1.339   2.697  22.794  0.00  0.00    +0.000 HD
ATOM     15  H   UNL     1       1.466   7.078  21.943  0.00  0.00    +0.000 HD
ATOM     16  H   UNL     1       1.932   7.953  20.562  0.00  0.00    +0.000 HD
ENDBRANCH   2  12
ENDBRANCH   1   2
BRANCH   1  17
ATOM     17  C   UNL     1       2.613   8.663  17.994  0.00  0.00    +0.000 C 
BRANCH  17  18
ATOM     18  N   UNL     1       1.745   9.681  17.401  0.00  0.00    +0.000 NA
ATOM     19  H   UNL     1       1.038   9.210  16.789  0.00  0.00    +0.000 HD
BRANCH  18  20
ATOM     20  S   UNL     1       0.843  10.492  18.694  0.00  0.00    +0.000 S 
ATOM     21  O   UNL     1       1.150   9.681  19.961  0.00  0.00    +0.000 OA
ATOM     22  O   UNL     1       1.595  11.807  18.956  0.00  0.00    +0.000 OA
BRANCH  20  23
ATOM     23  C   UNL     1      -0.914  10.714  18.433  0.00  0.00    +0.000 A 
ATOM     24  C   UNL     1      -1.561   9.967  17.446  0.00  0.00    +0.000 A 
ATOM     25  C   UNL     1      -2.929  10.137  17.219  0.00  0.00    +0.000 A 
ATOM     26  C   UNL     1      -3.670  11.062  17.982  0.00  0.00    +0.000 A 
ATOM     27  C   UNL     1      -3.005  11.813  18.972  0.00  0.00    +0.000 A 
ATOM     28  C   UNL     1      -1.636  11.637  19.195  0.00  0.00    +0.000 A 
BRANCH  26  29
ATOM     29  N   UNL     1      -5.067  11.244  17.751  0.00  0.00    +0.000 N 
ATOM     30  O   UNL     1      -5.874  10.620  18.373  0.00  0.00    +0.000 OA
ATOM     31  O   UNL     1      -5.487  12.107  16.848  0.00  0.00    +0.000 OA
ENDBRANCH  26  29
ENDBRANCH  20  23
ENDBRANCH  18  20
ENDBRANCH  17  18
ENDBRANCH   1  17
TORSDOF 7
ENDMDL
MODEL 7
REMARK VINA RESULT:      -7.3      3.051      6.886
REMARK  Name = 
REMARK  9 active torsions:
REMARK  status: ('A' for Active; 'I' for Inactive)
REMARK    1  A    between atoms: C_1  and  C_2
REMARK    2  A    between atoms: C_2  and  C_3
REMARK    3  A    between atoms: N_10  and  O_11
REMARK    4  A    between atoms: O_11  and  C_12
REMARK    5  A    between atoms: C_12  and  C_13
REMARK    6  A    between atoms: C_13  and  N_14
REMARK    7  A    between atoms: N_14  and  S_15
REMARK    8  A    between atoms: S_15  and  C_18
REMARK    9  A    between atoms: C_21  and  N_22
REMARK                            x       y       z     vdW  Elec       q    Type
REMARK                         _______ _______ _______ _____ _____    ______ ____
ROOT
ATOM      1  C   UNL     1       4.009   3.354  17.058  0.00  0.00    +0.000 C 
ENDROOT
BRANCH   1   2
ATOM      2  O   UNL     1       5.338   3.482  16.647  0.00  0.00    +0.000 OA
BRANCH   2  12
ATOM      3  C   UNL     1       5.123   6.082  15.328  0.00  0.00    +0.000 C 
ATOM      4  C   UNL     1       6.384   5.513  15.991  0.00  0.00    +0.000 C 
ATOM      5  C   UNL     1       7.211   4.742  14.943  0.00  0.00    +0.000 C 
ATOM      6  N   UNL     1       7.189   6.641  16.430  0.00  0.00    +0.000 NA
ATOM      7  C   UNL     1       7.461   6.904  17.653  0.00  0.00    +0.000 C 
ATOM      8  N   UNL     1       8.264   8.023  17.981  0.00  0.00    +0.000 N 
ATOM      9  N   UNL     1       6.950   6.099  18.682  0.00  0.00    +0.000 NA
ATOM     10  C   UNL     1       6.264   5.031  18.483  0.00  0.00    +0.000 C 
ATOM     11  N   UNL     1       5.840   4.379  19.688  0.00  0.00    +0.000 N 
ATOM     12  N   UNL     1       5.977   4.613  17.094  0.00  0.00    +0.000 N 
ATOM     13  H   UNL     1       8.660   8.620  17.243  0.00  0.00    +0.000 HD
ATOM     14  H   UNL     1       8.472   8.235  18.968  0.00  0.00    +0.000 HD
ATOM     15  H   UNL     1       6.104   4.812  20.586  0.00  0.00    +0.000 HD
ATOM     16  H   UNL     1       5.281   3.538  19.819  0.00  0.00    +0.000 HD
ENDBRANCH   2  12
ENDBRANCH   1   2
BRANCH   1  17
ATOM     17  C   UNL     1       3.822   2.098  17.906  0.00  0.00    +0.000 C 
BRANCH  17  18
ATOM     18  N   UNL     1       3.767   2.433  19.329  0.00  0.00    +0.000 NA
ATOM     19  H   UNL     1       4.498   3.154  19.537  0.00  0.00    +0.000 HD
BRANCH  18  20
ATOM     20  S   UNL     1       2.198   3.177  19.685  0.00  0.00    +0.000 S 
ATOM     21  O   UNL     1       1.186   2.395  18.836  0.00  0.00    +0.000 OA
ATOM     22  O   UNL     1       1.845   2.729  21.113  0.00  0.00    +0.000 OA
BRANCH  20  23
ATOM     23  C   UNL     1       2.073   4.947  19.440  0.00  0.00    +0.000 A 
ATOM     24  C   UNL     1       2.233   5.475  18.157  0.00  0.00    +0.000 A 
ATOM     25  C   UNL     1       2.153   6.854  17.950  0.00  0.00    +0.000 A 
ATOM     26  C   UNL     1       1.909   7.726  19.030  0.00  0.00    +0.000 A 
ATOM     27  C   UNL     1       1.753   7.181  20.320  0.00  0.00    +0.000 A 
ATOM     28  C   UNL     1       1.834   5.800  20.521  0.00  0.00    +0.000 A 
BRANCH  26  29
ATOM     29  N   UNL     1       1.831   9.136  18.825  0.00  0.00    +0.000 N 
ATOM     30  O   UNL     1       1.347   9.847  19.655  0.00  0.00    +0.000 OA
ATOM     31  O   UNL     1       2.295   9.677  17.717  0.00  0.00    +0.000 OA
ENDBRANCH  26  29
ENDBRANCH  20  23
ENDBRANCH  18  20
ENDBRANCH  17  18
ENDBRANCH   1  17
TORSDOF 7
ENDMDL
MODEL 8
REMARK VINA RESULT:      -7.3      5.676      8.456
REMARK  Name = 
REMARK  9 active torsions:
REMARK  status: ('A' for Active; 'I' for Inactive)
REMARK    1  A    between atoms: C_1  and  C_2
REMARK    2  A    between atoms: C_2  and  C_3
REMARK    3  A    between atoms: N_10  and  O_11
REMARK    4  A    between atoms: O_11  and  C_12
REMARK    5  A    between atoms: C_12  and  C_13
REMARK    6  A    between atoms: C_13  and  N_14
REMARK    7  A    between atoms: N_14  and  S_15
REMARK    8  A    between atoms: S_15  and  C_18
REMARK    9  A    between atoms: C_21  and  N_22
REMARK                            x       y       z     vdW  Elec       q    Type
REMARK                         _______ _______ _______ _____ _____    ______ ____
ROOT
ATOM      1  C   UNL     1       2.627   6.921  18.946  0.00  0.00    +0.000 C 
ENDROOT
BRANCH   1   2
ATOM      2  O   UNL     1       2.471   5.865  19.846  0.00  0.00    +0.000 OA
BRANCH   2  12
ATOM      3  C   UNL     1       1.221   4.197  17.796  0.00  0.00    +0.000 C 
ATOM      4  C   UNL     1       1.941   3.688  19.052  0.00  0.00    +0.000 C 
ATOM      5  C   UNL     1       0.922   3.525  20.197  0.00  0.00    +0.000 C 
ATOM      6  N   UNL     1       2.462   2.366  18.747  0.00  0.00    +0.000 NA
ATOM      7  C   UNL     1       3.707   2.068  18.713  0.00  0.00    +0.000 C 
ATOM      8  N   UNL     1       4.115   0.746  18.415  0.00  0.00    +0.000 N 
ATOM      9  N   UNL     1       4.678   3.052  18.949  0.00  0.00    +0.000 NA
ATOM     10  C   UNL     1       4.405   4.262  19.285  0.00  0.00    +0.000 C 
ATOM     11  N   UNL     1       5.563   5.090  19.464  0.00  0.00    +0.000 N 
ATOM     12  N   UNL     1       2.990   4.664  19.428  0.00  0.00    +0.000 N 
ATOM     13  H   UNL     1       3.421   0.005  18.250  0.00  0.00    +0.000 HD
ATOM     14  H   UNL     1       5.120   0.514  18.380  0.00  0.00    +0.000 HD
ATOM     15  H   UNL     1       6.487   4.663  19.304  0.00  0.00    +0.000 HD
ATOM     16  H   UNL     1       5.634   6.076  19.711  0.00  0.00    +0.000 HD
ENDBRANCH   2  12
ENDBRANCH   1   2
BRANCH   1  17
ATOM     17  C   UNL     1       1.896   8.167  19.437  0.00  0.00    +0.000 C 
BRANCH  17  18
ATOM     18  N   UNL     1       1.594   9.069  18.324  0.00  0.00    +0.000 NA
ATOM     19  H   UNL     1       0.889   8.611  17.700  0.00  0.00    +0.000 HD
BRANCH  18  20
ATOM     20  S   UNL     1       0.835  10.537  18.965  0.00  0.00    +0.000 S 
ATOM     21  O   UNL     1       1.126  10.510  20.472  0.00  0.00    +0.000 OA
ATOM     22  O   UNL     1       1.717  11.700  18.480  0.00  0.00    +0.000 OA
BRANCH  20  23
ATOM     23  C   UNL     1      -0.905  10.764  18.608  0.00  0.00    +0.000 A 
ATOM     24  C   UNL     1      -1.504  10.007  17.599  0.00  0.00    +0.000 A 
ATOM     25  C   UNL     1      -2.857  10.181  17.299  0.00  0.00    +0.000 A 
ATOM     26  C   UNL     1      -3.631  11.121  18.008  0.00  0.00    +0.000 A 
ATOM     27  C   UNL     1      -3.015  11.883  19.020  0.00  0.00    +0.000 A 
ATOM     28  C   UNL     1      -1.661  11.703  19.317  0.00  0.00    +0.000 A 
BRANCH  26  29
ATOM     29  N   UNL     1      -5.013  11.308  17.701  0.00  0.00    +0.000 N 
ATOM     30  O   UNL     1      -5.853  10.670  18.262  0.00  0.00    +0.000 OA
ATOM     31  O   UNL     1      -5.382  12.189  16.794  0.00  0.00    +0.000 OA
ENDBRANCH  26  29
ENDBRANCH  20  23
ENDBRANCH  18  20
ENDBRANCH  17  18
ENDBRANCH   1  17
TORSDOF 7
ENDMDL
MODEL 9
REMARK VINA RESULT:      -7.3      3.256      5.745
REMARK  Name = 
REMARK  9 active torsions:
REMARK  status: ('A' for Active; 'I' for Inactive)
REMARK    1  A    between atoms: C_1  and  C_2
REMARK    2  A    between atoms: C_2  and  C_3
REMARK    3  A    between atoms: N_10  and  O_11
REMARK    4  A    between atoms: O_11  and  C_12
REMARK    5  A    between atoms: C_12  and  C_13
REMARK    6  A    between atoms: C_13  and  N_14
REMARK    7  A    between atoms: N_14  and  S_15
REMARK    8  A    between atoms: S_15  and  C_18
REMARK    9  A    between atoms: C_21  and  N_22
REMARK                            x       y       z     vdW  Elec       q    Type
REMARK                         _______ _______ _______ _____ _____    ______ ____
ROOT
ATOM      1  C   UNL     1       2.015   5.818  19.974  0.00  0.00    +0.000 C 
ENDROOT
BRANCH   1   2
ATOM      2  O   UNL     1       1.725   6.888  20.824  0.00  0.00    +0.000 OA
BRANCH   2  12
ATOM      3  C   UNL     1       1.549   9.443  22.233  0.00  0.00    +0.000 C 
ATOM      4  C   UNL     1       0.713   9.030  21.014  0.00  0.00    +0.000 C 
ATOM      5  C   UNL     1      -0.594   8.364  21.490  0.00  0.00    +0.000 C 
ATOM      6  N   UNL     1       0.344  10.247  20.309  0.00  0.00    +0.000 NA
ATOM      7  C   UNL     1       0.726  10.541  19.123  0.00  0.00    +0.000 C 
ATOM      8  N   UNL     1       0.305  11.748  18.517  0.00  0.00    +0.000 N 
ATOM      9  N   UNL     1       1.584   9.680  18.421  0.00  0.00    +0.000 NA
ATOM     10  C   UNL     1       1.971   8.538  18.863  0.00  0.00    +0.000 C 
ATOM     11  N   UNL     1       2.853   7.839  17.972  0.00  0.00    +0.000 N 
ATOM     12  N   UNL     1       1.505   8.088  20.192  0.00  0.00    +0.000 N 
ATOM     13  H   UNL     1      -0.333  12.389  19.007  0.00  0.00    +0.000 HD
ATOM     14  H   UNL     1       0.624  11.983  17.565  0.00  0.00    +0.000 HD
ATOM     15  H   UNL     1       3.103   8.301  17.085  0.00  0.00    +0.000 HD
ATOM     16  H   UNL     1       3.314   6.937  18.077  0.00  0.00    +0.000 HD
ENDBRANCH   2  12
ENDBRANCH   1   2
BRANCH   1  17
ATOM     17  C   UNL     1       1.331   4.542  20.456  0.00  0.00    +0.000 C 
BRANCH  17  18
ATOM     18  N   UNL     1       1.335   3.519  19.409  0.00  0.00    +0.000 NA
ATOM     19  H   UNL     1       1.166   3.980  18.484  0.00  0.00    +0.000 HD
BRANCH  18  20
ATOM     20  S   UNL     1       2.947   2.787  19.328  0.00  0.00    +0.000 S 
ATOM     21  O   UNL     1       3.361   2.574  20.791  0.00  0.00    +0.000 OA
ATOM     22  O   UNL     1       2.720   1.347  18.837  0.00  0.00    +0.000 OA
BRANCH  20  23
ATOM     23  C   UNL     1       4.188   3.674  18.389  0.00  0.00    +0.000 A 
ATOM     24  C   UNL     1       5.326   4.156  19.039  0.00  0.00    +0.000 A 
ATOM     25  C   UNL     1       6.297   4.862  18.324  0.00  0.00    +0.000 A 
ATOM     26  C   UNL     1       6.140   5.095  16.944  0.00  0.00    +0.000 A 
ATOM     27  C   UNL     1       4.985   4.607  16.300  0.00  0.00    +0.000 A 
ATOM     28  C   UNL     1       4.018   3.900  17.020  0.00  0.00    +0.000 A 
BRANCH  26  29
ATOM     29  N   UNL     1       7.126   5.820  16.210  0.00  0.00    +0.000 N 
ATOM     30  O   UNL     1       7.581   6.838  16.641  0.00  0.00    +0.000 OA
ATOM     31  O   UNL     1       7.552   5.377  15.044  0.00  0.00    +0.000 OA
ENDBRANCH  26  29
ENDBRANCH  20  23
ENDBRANCH  18  20
ENDBRANCH  17  18
ENDBRANCH   1  17
TORSDOF 7
ENDMDL
