MODEL 1
REMARK VINA RESULT:      -7.8      0.000      0.000
REMARK  Name = 
REMARK  11 active torsions:
REMARK  status: ('A' for Active; 'I' for Inactive)
REMARK    1  A    between atoms: C_2  and  C_3
REMARK    2  A    between atoms: C_3  and  C_4
REMARK    3  A    between atoms: C_3  and  C_5
REMARK    4  A    between atoms: C_3  and  C_6
REMARK    5  A    between atoms: C_11  and  C_12
REMARK    6  A    between atoms: C_12  and  C_13
REMARK    7  A    between atoms: C_13  and  O_14
REMARK    8  A    between atoms: C_13  and  C_15
REMARK    9  A    between atoms: C_15  and  C_17
REMARK   10  A    between atoms: C_20  and  C_21
REMARK   11  A    between atoms: CA_26  and  CB_27
REMARK                            x       y       z     vdW  Elec       q    Type
REMARK                         _______ _______ _______ _____ _____    ______ ____
ROOT
ATOM      1  C   UNK A   1       2.398   4.528  20.118  0.00  0.00    +0.000 A 
ATOM      2  N   UNK A   1       1.811   5.323  21.092  0.00  0.00    +0.000 N 
ATOM      3  C   UNK A   1       1.622   6.604  20.646  0.00  0.00    +0.000 A 
ATOM      4  C   UNK A   1       0.987   7.699  21.258  0.00  0.00    +0.000 A 
ATOM      5  C   UNK A   1       0.882   8.885  20.519  0.00  0.00    +0.000 A 
ATOM      6  C   UNK A   1       1.533   9.020  19.295  0.00  0.00    +0.000 A 
ATOM      7  C   UNK A   1       2.353   7.974  18.850  0.00  0.00    +0.000 A 
ATOM      8  C   UNK A   1       2.254   6.689  19.413  0.00  0.00    +0.000 A 
ATOM      9  C   UNK A   1       2.648   5.360  19.026  0.00  0.00    +0.000 A 
ATOM     10  H   UNK A   1       1.547   5.011  22.014  0.00  0.00    +0.000 HD
ENDROOT
BRANCH   9  11
ATOM     11  C   UNK A   1       3.254   4.920  17.783  0.00  0.00    +0.000 C 
ATOM     12  C   UNK A   1       4.503   5.034  17.314  0.00  0.00    +0.000 C 
ATOM     13  N   UNK A   1       5.522   5.676  17.972  0.00  0.00    +0.000 N 
ATOM     14  C   ALA A   2       6.769   5.086  18.063  0.00  0.00    +0.000 C 
ATOM     15  O   ALA A   2       7.521   5.309  19.000  0.00  0.00    +0.000 OA
ATOM     16  CA  ALA A   2       7.210   4.355  16.797  0.00  0.00    +0.000 C 
ATOM     17  CB  ALA A   2       7.833   5.444  15.930  0.00  0.00    +0.000 C 
ATOM     18  N   ALA A   2       6.112   3.686  16.113  0.00  0.00    +0.000 N 
ATOM     19  C   UNK A   1       4.850   4.229  16.082  0.00  0.00    +0.000 C 
ATOM     20  O   UNK A   1       4.069   4.002  15.170  0.00  0.00    +0.000 OA
ATOM     21  H   UNK A   1       5.283   6.330  18.708  0.00  0.00    +0.000 HD
ATOM     22  H   ALA A   2       6.327   3.119  15.304  0.00  0.00    +0.000 HD
ENDBRANCH   9  11
BRANCH   1  23
ATOM     23  C   UNK A   1       2.639   3.032  20.386  0.00  0.00    +0.000 C 
ATOM     24  C   UNK A   1       2.164   2.666  21.810  0.00  0.00    +0.000 C 
ATOM     25  C   UNK A   1       4.158   2.762  20.286  0.00  0.00    +0.000 C 
BRANCH  23  27
ATOM     26  C   UNK A   1       0.672   2.364  18.861  0.00  0.00    +0.000 C 
ATOM     27  C   UNK A   1       1.834   2.108  19.453  0.00  0.00    +0.000 C 
ENDBRANCH  23  27
ENDBRANCH   1  23
BRANCH   6  28
ATOM     28  C   UNK A   1       1.397  10.179  18.327  0.00  0.00    +0.000 C 
BRANCH  28  29
ATOM     29  C   UNK A   1       0.508  11.360  18.740  0.00  0.00    +0.000 C 
BRANCH  29  30
ATOM     30  C   UNK A   1      -0.984  11.184  18.497  0.00  0.00    +0.000 C 
ATOM     31  C   UNK A   1      -1.969  11.901  19.058  0.00  0.00    +0.000 C 
ATOM     32  C   UNK A   1      -1.336  10.085  17.524  0.00  0.00    +0.000 C 
ENDBRANCH  29  30
BRANCH  29  33
ATOM     33  O   UNK A   1       0.898  12.519  18.003  0.00  0.00    +0.000 OA
ATOM     34  H   UNK A   1       0.078  12.984  17.765  0.00  0.00    +0.000 HD
ENDBRANCH  29  33
ENDBRANCH  28  29
ENDBRANCH   6  28
TORSDOF 7
ENDMDL
MODEL 2
REMARK VINA RESULT:      -7.6      0.380      1.224
REMARK  Name = 
REMARK  11 active torsions:
REMARK  status: ('A' for Active; 'I' for Inactive)
REMARK    1  A    between atoms: C_2  and  C_3
REMARK    2  A    between atoms: C_3  and  C_4
REMARK    3  A    between atoms: C_3  and  C_5
REMARK    4  A    between atoms: C_3  and  C_6
REMARK    5  A    between atoms: C_11  and  C_12
REMARK    6  A    between atoms: C_12  and  C_13
REMARK    7  A    between atoms: C_13  and  O_14
REMARK    8  A    between atoms: C_13  and  C_15
REMARK    9  A    between atoms: C_15  and  C_17
REMARK   10  A    between atoms: C_20  and  C_21
REMARK   11  A    between atoms: CA_26  and  CB_27
REMARK                            x       y       z     vdW  Elec       q    Type
REMARK                         _______ _______ _______ _____ _____    ______ ____
ROOT
ATOM      1  C   UNK A   1       2.174   4.676  20.206  0.00  0.00    +0.000 A 
ATOM      2  N   UNK A   1       1.556   5.474  21.158  0.00  0.00    +0.000 N 
ATOM      3  C   UNK A   1       1.418   6.764  20.719  0.00  0.00    +0.000 A 
ATOM      4  C   UNK A   1       0.778   7.866  21.312  0.00  0.00    +0.000 A 
ATOM      5  C   UNK A   1       0.737   9.063  20.583  0.00  0.00    +0.000 A 
ATOM      6  C   UNK A   1       1.452   9.196  19.395  0.00  0.00    +0.000 A 
ATOM      7  C   UNK A   1       2.270   8.136  18.979  0.00  0.00    +0.000 A 
ATOM      8  C   UNK A   1       2.113   6.848  19.520  0.00  0.00    +0.000 A 
ATOM      9  C   UNK A   1       2.498   5.515  19.138  0.00  0.00    +0.000 A 
ATOM     10  H   UNK A   1       1.239   5.158  22.062  0.00  0.00    +0.000 HD
ENDROOT
BRANCH   9  11
ATOM     11  C   UNK A   1       3.155   5.075  17.922  0.00  0.00    +0.000 C 
ATOM     12  C   UNK A   1       4.427   5.173  17.513  0.00  0.00    +0.000 C 
ATOM     13  N   UNK A   1       5.422   5.796  18.225  0.00  0.00    +0.000 N 
ATOM     14  C   ALA A   2       6.655   5.186  18.371  0.00  0.00    +0.000 C 
ATOM     15  O   ALA A   2       7.364   5.391  19.344  0.00  0.00    +0.000 OA
ATOM     16  CA  ALA A   2       7.146   4.458  17.121  0.00  0.00    +0.000 C 
ATOM     17  CB  ALA A   2       7.825   5.543  16.294  0.00  0.00    +0.000 C 
ATOM     18  N   ALA A   2       6.072   3.811  16.380  0.00  0.00    +0.000 N 
ATOM     19  C   UNK A   1       4.820   4.372  16.293  0.00  0.00    +0.000 C 
ATOM     20  O   UNK A   1       4.081   4.164  15.343  0.00  0.00    +0.000 OA
ATOM     21  H   UNK A   1       5.158   6.447  18.954  0.00  0.00    +0.000 HD
ATOM     22  H   ALA A   2       6.317   3.246  15.577  0.00  0.00    +0.000 HD
ENDBRANCH   9  11
BRANCH   1  23
ATOM     23  C   UNK A   1       2.367   3.173  20.467  0.00  0.00    +0.000 C 
ATOM     24  C   UNK A   1       1.468   2.350  19.516  0.00  0.00    +0.000 C 
ATOM     25  C   UNK A   1       1.946   2.877  21.925  0.00  0.00    +0.000 C 
BRANCH  23  27
ATOM     26  C   UNK A   1       4.189   1.821  19.245  0.00  0.00    +0.000 C 
ATOM     27  C   UNK A   1       3.798   2.683  20.178  0.00  0.00    +0.000 C 
ENDBRANCH  23  27
ENDBRANCH   1  23
BRANCH   6  28
ATOM     28  C   UNK A   1       1.391  10.369  18.435  0.00  0.00    +0.000 C 
BRANCH  28  29
ATOM     29  C   UNK A   1       0.332  11.451  18.689  0.00  0.00    +0.000 C 
BRANCH  29  30
ATOM     30  C   UNK A   1      -1.100  11.073  18.340  0.00  0.00    +0.000 C 
ATOM     31  C   UNK A   1      -1.481  10.126  17.471  0.00  0.00    +0.000 C 
ATOM     32  C   UNK A   1      -2.154  11.870  19.069  0.00  0.00    +0.000 C 
ENDBRANCH  29  30
BRANCH  29  33
ATOM     33  O   UNK A   1       0.644  12.603  17.905  0.00  0.00    +0.000 OA
ATOM     34  H   UNK A   1      -0.033  12.655  17.210  0.00  0.00    +0.000 HD
ENDBRANCH  29  33
ENDBRANCH  28  29
ENDBRANCH   6  28
TORSDOF 7
ENDMDL
MODEL 3
REMARK VINA RESULT:      -7.6      0.917      1.528
REMARK  Name = 
REMARK  11 active torsions:
REMARK  status: ('A' for Active; 'I' for Inactive)
REMARK    1  A    between atoms: C_2  and  C_3
REMARK    2  A    between atoms: C_3  and  C_4
REMARK    3  A    between atoms: C_3  and  C_5
REMARK    4  A    between atoms: C_3  and  C_6
REMARK    5  A    between atoms: C_11  and  C_12
REMARK    6  A    between atoms: C_12  and  C_13
REMARK    7  A    between atoms: C_13  and  O_14
REMARK    8  A    between atoms: C_13  and  C_15
REMARK    9  A    between atoms: C_15  and  C_17
REMARK   10  A    between atoms: C_20  and  C_21
REMARK   11  A    between atoms: CA_26  and  CB_27
REMARK                            x       y       z     vdW  Elec       q    Type
REMARK                         _______ _______ _______ _____ _____    ______ ____
ROOT
ATOM      1  C   UNK A   1       2.243   4.814  20.146  0.00  0.00    +0.000 A 
ATOM      2  N   UNK A   1       1.662   5.676  21.065  0.00  0.00    +0.000 N 
ATOM      3  C   UNK A   1       1.538   6.942  20.557  0.00  0.00    +0.000 A 
ATOM      4  C   UNK A   1       0.933   8.088  21.099  0.00  0.00    +0.000 A 
ATOM      5  C   UNK A   1       0.896   9.242  20.304  0.00  0.00    +0.000 A 
ATOM      6  C   UNK A   1       1.586   9.294  19.095  0.00  0.00    +0.000 A 
ATOM      7  C   UNK A   1       2.374   8.196  18.723  0.00  0.00    +0.000 A 
ATOM      8  C   UNK A   1       2.207   6.944  19.340  0.00  0.00    +0.000 A 
ATOM      9  C   UNK A   1       2.557   5.584  19.025  0.00  0.00    +0.000 A 
ATOM     10  H   UNK A   1       1.361   5.418  21.992  0.00  0.00    +0.000 HD
ENDROOT
BRANCH   9  11
ATOM     11  C   UNK A   1       3.178   5.063  17.822  0.00  0.00    +0.000 C 
ATOM     12  C   UNK A   1       4.441   5.117  17.378  0.00  0.00    +0.000 C 
ATOM     13  N   UNK A   1       5.462   5.765  18.027  0.00  0.00    +0.000 N 
ATOM     14  C   ALA A   2       6.689   5.145  18.179  0.00  0.00    +0.000 C 
ATOM     15  O   ALA A   2       7.425   5.396  19.122  0.00  0.00    +0.000 OA
ATOM     16  CA  ALA A   2       7.138   4.337  16.963  0.00  0.00    +0.000 C 
ATOM     17  CB  ALA A   2       7.812   5.362  16.057  0.00  0.00    +0.000 C 
ATOM     18  N   ALA A   2       6.037   3.665  16.288  0.00  0.00    +0.000 N 
ATOM     19  C   UNK A   1       4.792   4.239  16.198  0.00  0.00    +0.000 C 
ATOM     20  O   UNK A   1       4.025   3.988  15.280  0.00  0.00    +0.000 OA
ATOM     21  H   UNK A   1       5.225   6.462  18.722  0.00  0.00    +0.000 HD
ATOM     22  H   ALA A   2       6.254   3.050  15.514  0.00  0.00    +0.000 HD
ENDBRANCH   9  11
BRANCH   1  23
ATOM     23  C   UNK A   1       2.415   3.324  20.488  0.00  0.00    +0.000 C 
ATOM     24  C   UNK A   1       1.461   2.469  19.623  0.00  0.00    +0.000 C 
ATOM     25  C   UNK A   1       2.046   3.124  21.977  0.00  0.00    +0.000 C 
BRANCH  23  27
ATOM     26  C   UNK A   1       4.162   1.892  19.248  0.00  0.00    +0.000 C 
ATOM     27  C   UNK A   1       3.822   2.784  20.174  0.00  0.00    +0.000 C 
ENDBRANCH  23  27
ENDBRANCH   1  23
BRANCH   6  28
ATOM     28  C   UNK A   1       1.524  10.411  18.072  0.00  0.00    +0.000 C 
BRANCH  28  29
ATOM     29  C   UNK A   1       1.903  11.826  18.529  0.00  0.00    +0.000 C 
BRANCH  29  30
ATOM     30  C   UNK A   1       0.760  12.683  19.052  0.00  0.00    +0.000 C 
ATOM     31  C   UNK A   1      -0.327  13.062  18.364  0.00  0.00    +0.000 C 
ATOM     32  C   UNK A   1       0.912  13.122  20.488  0.00  0.00    +0.000 C 
ENDBRANCH  29  30
BRANCH  29  33
ATOM     33  O   UNK A   1       2.464  12.539  17.426  0.00  0.00    +0.000 OA
ATOM     34  H   UNK A   1       3.376  12.764  17.678  0.00  0.00    +0.000 HD
ENDBRANCH  29  33
ENDBRANCH  28  29
ENDBRANCH   6  28
TORSDOF 7
ENDMDL
MODEL 4
REMARK VINA RESULT:      -7.1      5.442      9.267
REMARK  Name = 
REMARK  11 active torsions:
REMARK  status: ('A' for Active; 'I' for Inactive)
REMARK    1  A    between atoms: C_2  and  C_3
REMARK    2  A    between atoms: C_3  and  C_4
REMARK    3  A    between atoms: C_3  and  C_5
REMARK    4  A    between atoms: C_3  and  C_6
REMARK    5  A    between atoms: C_11  and  C_12
REMARK    6  A    between atoms: C_12  and  C_13
REMARK    7  A    between atoms: C_13  and  O_14
REMARK    8  A    between atoms: C_13  and  C_15
REMARK    9  A    between atoms: C_15  and  C_17
REMARK   10  A    between atoms: C_20  and  C_21
REMARK   11  A    between atoms: CA_26  and  CB_27
REMARK                            x       y       z     vdW  Elec       q    Type
REMARK                         _______ _______ _______ _____ _____    ______ ____
ROOT
ATOM      1  C   UNK A   1      -0.442  10.402  18.411  0.00  0.00    +0.000 A 
ATOM      2  N   UNK A   1      -1.002  10.057  17.189  0.00  0.00    +0.000 N 
ATOM      3  C   UNK A   1      -2.270  10.560  17.059  0.00  0.00    +0.000 A 
ATOM      4  C   UNK A   1      -3.155  10.532  15.968  0.00  0.00    +0.000 A 
ATOM      5  C   UNK A   1      -4.378  11.204  16.105  0.00  0.00    +0.000 A 
ATOM      6  C   UNK A   1      -4.765  11.729  17.336  0.00  0.00    +0.000 A 
ATOM      7  C   UNK A   1      -3.942  11.512  18.449  0.00  0.00    +0.000 A 
ATOM      8  C   UNK A   1      -2.606  11.104  18.291  0.00  0.00    +0.000 A 
ATOM      9  C   UNK A   1      -1.423  11.106  19.111  0.00  0.00    +0.000 A 
ATOM     10  H   UNK A   1      -0.547   9.509  16.476  0.00  0.00    +0.000 HD
ENDROOT
BRANCH   9  11
ATOM     11  C   UNK A   1      -1.243  11.657  20.441  0.00  0.00    +0.000 C 
ATOM     12  C   UNK A   1      -0.777  12.842  20.857  0.00  0.00    +0.000 C 
ATOM     13  N   UNK A   1      -0.311  13.826  20.022  0.00  0.00    +0.000 N 
ATOM     14  C   ALA A   2      -0.706  15.138  20.210  0.00  0.00    +0.000 C 
ATOM     15  O   ALA A   2      -0.769  15.931  19.283  0.00  0.00    +0.000 OA
ATOM     16  CA  ALA A   2      -0.804  15.559  21.675  0.00  0.00    +0.000 C 
ATOM     17  CB  ALA A   2       0.616  15.976  22.043  0.00  0.00    +0.000 C 
ATOM     18  N   ALA A   2      -1.295  14.497  22.542  0.00  0.00    +0.000 N 
ATOM     19  C   UNK A   1      -0.969  13.180  22.318  0.00  0.00    +0.000 C 
ATOM     20  O   UNK A   1      -0.923  12.361  23.223  0.00  0.00    +0.000 OA
ATOM     21  H   UNK A   1      -0.044  13.571  19.079  0.00  0.00    +0.000 HD
ATOM     22  H   ALA A   2      -1.457  14.712  23.517  0.00  0.00    +0.000 HD
ENDBRANCH   9  11
BRANCH   1  23
ATOM     23  C   UNK A   1       1.005   9.996  18.737  0.00  0.00    +0.000 C 
ATOM     24  C   UNK A   1       1.070   9.353  20.141  0.00  0.00    +0.000 C 
ATOM     25  C   UNK A   1       1.878  11.273  18.736  0.00  0.00    +0.000 C 
BRANCH  23  27
ATOM     26  C   UNK A   1       2.388   7.921  18.086  0.00  0.00    +0.000 C 
ATOM     27  C   UNK A   1       1.567   8.923  17.786  0.00  0.00    +0.000 C 
ENDBRANCH  23  27
ENDBRANCH   1  23
BRANCH   6  28
ATOM     28  C   UNK A   1      -5.981  12.596  17.601  0.00  0.00    +0.000 C 
BRANCH  28  29
ATOM     29  C   UNK A   1      -7.185  11.951  18.302  0.00  0.00    +0.000 C 
BRANCH  29  30
ATOM     30  C   UNK A   1      -7.289  12.195  19.800  0.00  0.00    +0.000 C 
ATOM     31  C   UNK A   1      -7.192  13.380  20.419  0.00  0.00    +0.000 C 
ATOM     32  C   UNK A   1      -7.523  10.951  20.623  0.00  0.00    +0.000 C 
ENDBRANCH  29  30
BRANCH  29  33
ATOM     33  O   UNK A   1      -7.122  10.535  18.130  0.00  0.00    +0.000 OA
ATOM     34  H   UNK A   1      -7.338  10.143  18.993  0.00  0.00    +0.000 HD
ENDBRANCH  29  33
ENDBRANCH  28  29
ENDBRANCH   6  28
TORSDOF 7
ENDMDL
MODEL 5
REMARK VINA RESULT:      -7.1      0.362      1.018
REMARK  Name = 
REMARK  11 active torsions:
REMARK  status: ('A' for Active; 'I' for Inactive)
REMARK    1  A    between atoms: C_2  and  C_3
REMARK    2  A    between atoms: C_3  and  C_4
REMARK    3  A    between atoms: C_3  and  C_5
REMARK    4  A    between atoms: C_3  and  C_6
REMARK    5  A    between atoms: C_11  and  C_12
REMARK    6  A    between atoms: C_12  and  C_13
REMARK    7  A    between atoms: C_13  and  O_14
REMARK    8  A    between atoms: C_13  and  C_15
REMARK    9  A    between atoms: C_15  and  C_17
REMARK   10  A    between atoms: C_20  and  C_21
REMARK   11  A    between atoms: CA_26  and  CB_27
REMARK                            x       y       z     vdW  Elec       q    Type
REMARK                         _______ _______ _______ _____ _____    ______ ____
ROOT
ATOM      1  C   UNK A   1       2.598   4.516  19.964  0.00  0.00    +0.000 A 
ATOM      2  N   UNK A   1       2.020   5.292  20.958  0.00  0.00    +0.000 N 
ATOM      3  C   UNK A   1       1.777   6.568  20.522  0.00  0.00    +0.000 A 
ATOM      4  C   UNK A   1       1.131   7.642  21.157  0.00  0.00    +0.000 A 
ATOM      5  C   UNK A   1       0.964   8.825  20.424  0.00  0.00    +0.000 A 
ATOM      6  C   UNK A   1       1.569   8.981  19.179  0.00  0.00    +0.000 A 
ATOM      7  C   UNK A   1       2.404   7.960  18.705  0.00  0.00    +0.000 A 
ATOM      8  C   UNK A   1       2.363   6.672  19.268  0.00  0.00    +0.000 A 
ATOM      9  C   UNK A   1       2.785   5.356  18.865  0.00  0.00    +0.000 A 
ATOM     10  H   UNK A   1       1.797   4.972  21.888  0.00  0.00    +0.000 HD
ENDROOT
BRANCH   9  11
ATOM     11  C   UNK A   1       3.361   4.937  17.602  0.00  0.00    +0.000 C 
ATOM     12  C   UNK A   1       4.608   5.025  17.120  0.00  0.00    +0.000 C 
ATOM     13  N   UNK A   1       5.654   5.614  17.784  0.00  0.00    +0.000 N 
ATOM     14  C   ALA A   2       6.883   4.982  17.841  0.00  0.00    +0.000 C 
ATOM     15  O   ALA A   2       7.653   5.151  18.774  0.00  0.00    +0.000 OA
ATOM     16  CA  ALA A   2       7.285   4.277  16.547  0.00  0.00    +0.000 C 
ATOM     17  CB  ALA A   2       7.932   5.372  15.706  0.00  0.00    +0.000 C 
ATOM     18  N   ALA A   2       6.158   3.665  15.857  0.00  0.00    +0.000 N 
ATOM     19  C   UNK A   1       4.913   4.248  15.859  0.00  0.00    +0.000 C 
ATOM     20  O   UNK A   1       4.114   4.075  14.951  0.00  0.00    +0.000 OA
ATOM     21  H   UNK A   1       5.445   6.251  18.543  0.00  0.00    +0.000 HD
ATOM     22  H   ALA A   2       6.345   3.116  15.028  0.00  0.00    +0.000 HD
ENDBRANCH   9  11
BRANCH   1  23
ATOM     23  C   UNK A   1       2.893   3.028  20.220  0.00  0.00    +0.000 C 
ATOM     24  C   UNK A   1       4.411   2.763  20.110  0.00  0.00    +0.000 C 
ATOM     25  C   UNK A   1       2.166   2.198  19.136  0.00  0.00    +0.000 C 
BRANCH  23  27
ATOM     26  C   UNK A   1       1.297   2.314  22.113  0.00  0.00    +0.000 C 
ATOM     27  C   UNK A   1       2.513   2.567  21.639  0.00  0.00    +0.000 C 
ENDBRANCH  23  27
ENDBRANCH   1  23
BRANCH   6  28
ATOM     28  C   UNK A   1       1.364  10.136  18.218  0.00  0.00    +0.000 C 
BRANCH  28  29
ATOM     29  C   UNK A   1       0.496  11.313  18.683  0.00  0.00    +0.000 C 
BRANCH  29  30
ATOM     30  C   UNK A   1      -1.005  11.143  18.502  0.00  0.00    +0.000 C 
ATOM     31  C   UNK A   1      -1.964  11.823  19.146  0.00  0.00    +0.000 C 
ATOM     32  C   UNK A   1      -1.399  10.096  17.488  0.00  0.00    +0.000 C 
ENDBRANCH  29  30
BRANCH  29  33
ATOM     33  O   UNK A   1       0.858  12.481  17.946  0.00  0.00    +0.000 OA
ATOM     34  H   UNK A   1       1.703  12.790  18.315  0.00  0.00    +0.000 HD
ENDBRANCH  29  33
ENDBRANCH  28  29
ENDBRANCH   6  28
TORSDOF 7
ENDMDL
MODEL 6
REMARK VINA RESULT:      -7.1      0.755      1.053
REMARK  Name = 
REMARK  11 active torsions:
REMARK  status: ('A' for Active; 'I' for Inactive)
REMARK    1  A    between atoms: C_2  and  C_3
REMARK    2  A    between atoms: C_3  and  C_4
REMARK    3  A    between atoms: C_3  and  C_5
REMARK    4  A    between atoms: C_3  and  C_6
REMARK    5  A    between atoms: C_11  and  C_12
REMARK    6  A    between atoms: C_12  and  C_13
REMARK    7  A    between atoms: C_13  and  O_14
REMARK    8  A    between atoms: C_13  and  C_15
REMARK    9  A    between atoms: C_15  and  C_17
REMARK   10  A    between atoms: C_20  and  C_21
REMARK   11  A    between atoms: CA_26  and  CB_27
REMARK                            x       y       z     vdW  Elec       q    Type
REMARK                         _______ _______ _______ _____ _____    ______ ____
ROOT
ATOM      1  C   UNK A   1       2.408   4.532  20.112  0.00  0.00    +0.000 A 
ATOM      2  N   UNK A   1       1.823   5.323  21.090  0.00  0.00    +0.000 N 
ATOM      3  C   UNK A   1       1.640   6.608  20.652  0.00  0.00    +0.000 A 
ATOM      4  C   UNK A   1       1.009   7.702  21.270  0.00  0.00    +0.000 A 
ATOM      5  C   UNK A   1       0.910   8.893  20.539  0.00  0.00    +0.000 A 
ATOM      6  C   UNK A   1       1.564   9.033  19.317  0.00  0.00    +0.000 A 
ATOM      7  C   UNK A   1       2.380   7.987  18.867  0.00  0.00    +0.000 A 
ATOM      8  C   UNK A   1       2.274   6.698  19.421  0.00  0.00    +0.000 A 
ATOM      9  C   UNK A   1       2.664   5.370  19.026  0.00  0.00    +0.000 A 
ATOM     10  H   UNK A   1       1.556   5.007  22.009  0.00  0.00    +0.000 HD
ENDROOT
BRANCH   9  11
ATOM     11  C   UNK A   1       3.270   4.937  17.781  0.00  0.00    +0.000 C 
ATOM     12  C   UNK A   1       4.520   5.048  17.314  0.00  0.00    +0.000 C 
ATOM     13  N   UNK A   1       5.540   5.682  17.978  0.00  0.00    +0.000 N 
ATOM     14  C   ALA A   2       6.785   5.086  18.067  0.00  0.00    +0.000 C 
ATOM     15  O   ALA A   2       7.536   5.300  19.007  0.00  0.00    +0.000 OA
ATOM     16  CA  ALA A   2       7.225   4.362  16.797  0.00  0.00    +0.000 C 
ATOM     17  CB  ALA A   2       7.854   5.454  15.939  0.00  0.00    +0.000 C 
ATOM     18  N   ALA A   2       6.125   3.702  16.107  0.00  0.00    +0.000 N 
ATOM     19  C   UNK A   1       4.865   4.250  16.077  0.00  0.00    +0.000 C 
ATOM     20  O   UNK A   1       4.085   4.033  15.163  0.00  0.00    +0.000 OA
ATOM     21  H   UNK A   1       5.303   6.332  18.718  0.00  0.00    +0.000 HD
ATOM     22  H   ALA A   2       6.340   3.139  15.294  0.00  0.00    +0.000 HD
ENDBRANCH   9  11
BRANCH   1  23
ATOM     23  C   UNK A   1       2.642   3.034  20.370  0.00  0.00    +0.000 C 
ATOM     24  C   UNK A   1       2.137   2.654  21.781  0.00  0.00    +0.000 C 
ATOM     25  C   UNK A   1       4.163   2.763  20.299  0.00  0.00    +0.000 C 
BRANCH  23  27
ATOM     26  C   UNK A   1       0.646   2.324  18.903  0.00  0.00    +0.000 C 
ATOM     27  C   UNK A   1       1.857   2.120  19.411  0.00  0.00    +0.000 C 
ENDBRANCH  23  27
ENDBRANCH   1  23
BRANCH   6  28
ATOM     28  C   UNK A   1       1.433  10.199  18.356  0.00  0.00    +0.000 C 
BRANCH  28  29
ATOM     29  C   UNK A   1       0.128  11.007  18.378  0.00  0.00    +0.000 C 
BRANCH  29  30
ATOM     30  C   UNK A   1      -0.118  11.835  19.631  0.00  0.00    +0.000 C 
ATOM     31  C   UNK A   1      -1.268  11.914  20.316  0.00  0.00    +0.000 C 
ATOM     32  C   UNK A   1       1.079  12.622  20.108  0.00  0.00    +0.000 C 
ENDBRANCH  29  30
BRANCH  29  33
ATOM     33  O   UNK A   1      -0.978  10.111  18.267  0.00  0.00    +0.000 OA
ATOM     34  H   UNK A   1      -1.568  10.484  17.591  0.00  0.00    +0.000 HD
ENDBRANCH  29  33
ENDBRANCH  28  29
ENDBRANCH   6  28
TORSDOF 7
ENDMDL
MODEL 7
REMARK VINA RESULT:      -7.0      5.709      9.330
REMARK  Name = 
REMARK  11 active torsions:
REMARK  status: ('A' for Active; 'I' for Inactive)
REMARK    1  A    between atoms: C_2  and  C_3
REMARK    2  A    between atoms: C_3  and  C_4
REMARK    3  A    between atoms: C_3  and  C_5
REMARK    4  A    between atoms: C_3  and  C_6
REMARK    5  A    between atoms: C_11  and  C_12
REMARK    6  A    between atoms: C_12  and  C_13
REMARK    7  A    between atoms: C_13  and  O_14
REMARK    8  A    between atoms: C_13  and  C_15
REMARK    9  A    between atoms: C_15  and  C_17
REMARK   10  A    between atoms: C_20  and  C_21
REMARK   11  A    between atoms: CA_26  and  CB_27
REMARK                            x       y       z     vdW  Elec       q    Type
REMARK                         _______ _______ _______ _____ _____    ______ ____
ROOT
ATOM      1  C   UNK A   1      -0.450  10.399  18.504  0.00  0.00    +0.000 A 
ATOM      2  N   UNK A   1      -0.989  10.009  17.286  0.00  0.00    +0.000 N 
ATOM      3  C   UNK A   1      -2.250  10.517  17.111  0.00  0.00    +0.000 A 
ATOM      4  C   UNK A   1      -3.114  10.453  16.004  0.00  0.00    +0.000 A 
ATOM      5  C   UNK A   1      -4.332  11.140  16.091  0.00  0.00    +0.000 A 
ATOM      6  C   UNK A   1      -4.739  11.718  17.291  0.00  0.00    +0.000 A 
ATOM      7  C   UNK A   1      -3.939  11.539  18.428  0.00  0.00    +0.000 A 
ATOM      8  C   UNK A   1      -2.604  11.114  18.314  0.00  0.00    +0.000 A 
ATOM      9  C   UNK A   1      -1.437  11.138  19.156  0.00  0.00    +0.000 A 
ATOM     10  H   UNK A   1      -0.525   9.429  16.605  0.00  0.00    +0.000 HD
ENDROOT
BRANCH   9  11
ATOM     11  C   UNK A   1      -1.278  11.741  20.466  0.00  0.00    +0.000 C 
ATOM     12  C   UNK A   1      -0.798  12.933  20.844  0.00  0.00    +0.000 C 
ATOM     13  N   UNK A   1      -0.291  13.872  19.980  0.00  0.00    +0.000 N 
ATOM     14  C   ALA A   2      -0.664  15.199  20.103  0.00  0.00    +0.000 C 
ATOM     15  O   ALA A   2      -0.688  15.953  19.142  0.00  0.00    +0.000 OA
ATOM     16  CA  ALA A   2      -0.788  15.683  21.546  0.00  0.00    +0.000 C 
ATOM     17  CB  ALA A   2       0.630  16.087  21.932  0.00  0.00    +0.000 C 
ATOM     18  N   ALA A   2      -1.321  14.668  22.444  0.00  0.00    +0.000 N 
ATOM     19  C   UNK A   1      -1.018  13.337  22.284  0.00  0.00    +0.000 C 
ATOM     20  O   UNK A   1      -1.011  12.556  23.223  0.00  0.00    +0.000 OA
ATOM     21  H   UNK A   1      -0.007  13.573  19.056  0.00  0.00    +0.000 HD
ATOM     22  H   ALA A   2      -1.503  14.927  23.405  0.00  0.00    +0.000 HD
ENDBRANCH   9  11
BRANCH   1  23
ATOM     23  C   UNK A   1       0.987   9.994  18.875  0.00  0.00    +0.000 C 
ATOM     24  C   UNK A   1       1.917  11.227  18.819  0.00  0.00    +0.000 C 
ATOM     25  C   UNK A   1       1.479   8.955  17.840  0.00  0.00    +0.000 C 
BRANCH  23  27
ATOM     26  C   UNK A   1       1.396   8.226  20.705  0.00  0.00    +0.000 C 
ATOM     27  C   UNK A   1       1.119   9.466  20.316  0.00  0.00    +0.000 C 
ENDBRANCH  23  27
ENDBRANCH   1  23
BRANCH   6  28
ATOM     28  C   UNK A   1      -5.951  12.606  17.497  0.00  0.00    +0.000 C 
BRANCH  28  29
ATOM     29  C   UNK A   1      -7.173  12.001  18.202  0.00  0.00    +0.000 C 
BRANCH  29  30
ATOM     30  C   UNK A   1      -7.313  12.325  19.682  0.00  0.00    +0.000 C 
ATOM     31  C   UNK A   1      -7.125  11.475  20.701  0.00  0.00    +0.000 C 
ATOM     32  C   UNK A   1      -7.700  13.754  19.977  0.00  0.00    +0.000 C 
ENDBRANCH  29  30
BRANCH  29  33
ATOM     33  O   UNK A   1      -7.109  10.577  18.109  0.00  0.00    +0.000 OA
ATOM     34  H   UNK A   1      -7.897  10.298  17.612  0.00  0.00    +0.000 HD
ENDBRANCH  29  33
ENDBRANCH  28  29
ENDBRANCH   6  28
TORSDOF 7
ENDMDL
MODEL 8
REMARK VINA RESULT:      -6.9      0.840      1.540
REMARK  Name = 
REMARK  11 active torsions:
REMARK  status: ('A' for Active; 'I' for Inactive)
REMARK    1  A    between atoms: C_2  and  C_3
REMARK    2  A    between atoms: C_3  and  C_4
REMARK    3  A    between atoms: C_3  and  C_5
REMARK    4  A    between atoms: C_3  and  C_6
REMARK    5  A    between atoms: C_11  and  C_12
REMARK    6  A    between atoms: C_12  and  C_13
REMARK    7  A    between atoms: C_13  and  O_14
REMARK    8  A    between atoms: C_13  and  C_15
REMARK    9  A    between atoms: C_15  and  C_17
REMARK   10  A    between atoms: C_20  and  C_21
REMARK   11  A    between atoms: CA_26  and  CB_27
REMARK                            x       y       z     vdW  Elec       q    Type
REMARK                         _______ _______ _______ _____ _____    ______ ____
ROOT
ATOM      1  C   UNK A   1       2.325   4.796  20.000  0.00  0.00    +0.000 A 
ATOM      2  N   UNK A   1       1.758   5.665  20.920  0.00  0.00    +0.000 N 
ATOM      3  C   UNK A   1       1.650   6.933  20.412  0.00  0.00    +0.000 A 
ATOM      4  C   UNK A   1       1.061   8.087  20.957  0.00  0.00    +0.000 A 
ATOM      5  C   UNK A   1       1.038   9.241  20.163  0.00  0.00    +0.000 A 
ATOM      6  C   UNK A   1       1.725   9.285  18.952  0.00  0.00    +0.000 A 
ATOM      7  C   UNK A   1       2.497   8.177  18.577  0.00  0.00    +0.000 A 
ATOM      8  C   UNK A   1       2.315   6.926  19.194  0.00  0.00    +0.000 A 
ATOM      9  C   UNK A   1       2.647   5.562  18.878  0.00  0.00    +0.000 A 
ATOM     10  H   UNK A   1       1.456   5.411  21.848  0.00  0.00    +0.000 HD
ENDROOT
BRANCH   9  11
ATOM     11  C   UNK A   1       3.257   5.034  17.673  0.00  0.00    +0.000 C 
ATOM     12  C   UNK A   1       4.499   5.146  17.182  0.00  0.00    +0.000 C 
ATOM     13  N   UNK A   1       5.500   5.878  17.770  0.00  0.00    +0.000 N 
ATOM     14  C   ALA A   2       6.767   5.340  17.900  0.00  0.00    +0.000 C 
ATOM     15  O   ALA A   2       7.518   5.671  18.806  0.00  0.00    +0.000 OA
ATOM     16  CA  ALA A   2       7.223   4.514  16.699  0.00  0.00    +0.000 C 
ATOM     17  CB  ALA A   2       7.802   5.542  15.733  0.00  0.00    +0.000 C 
ATOM     18  N   ALA A   2       6.143   3.752  16.089  0.00  0.00    +0.000 N 
ATOM     19  C   UNK A   1       4.863   4.247  16.023  0.00  0.00    +0.000 C 
ATOM     20  O   UNK A   1       4.083   3.915  15.143  0.00  0.00    +0.000 OA
ATOM     21  H   UNK A   1       5.244   6.586  18.447  0.00  0.00    +0.000 HD
ATOM     22  H   ALA A   2       6.372   3.122  15.331  0.00  0.00    +0.000 HD
ENDBRANCH   9  11
BRANCH   1  23
ATOM     23  C   UNK A   1       2.478   3.304  20.340  0.00  0.00    +0.000 C 
ATOM     24  C   UNK A   1       3.942   2.858  20.120  0.00  0.00    +0.000 C 
ATOM     25  C   UNK A   1       1.566   2.495  19.389  0.00  0.00    +0.000 C 
BRANCH  23  27
ATOM     26  C   UNK A   1       1.234   2.193  22.305  0.00  0.00    +0.000 C 
ATOM     27  C   UNK A   1       2.186   2.982  21.818  0.00  0.00    +0.000 C 
ENDBRANCH  23  27
ENDBRANCH   1  23
BRANCH   6  28
ATOM     28  C   UNK A   1       1.674  10.403  17.929  0.00  0.00    +0.000 C 
BRANCH  28  29
ATOM     29  C   UNK A   1       1.922  11.837  18.418  0.00  0.00    +0.000 C 
BRANCH  29  30
ATOM     30  C   UNK A   1       0.678  12.685  18.640  0.00  0.00    +0.000 C 
ATOM     31  C   UNK A   1      -0.583  12.237  18.725  0.00  0.00    +0.000 C 
ATOM     32  C   UNK A   1       0.944  14.166  18.771  0.00  0.00    +0.000 C 
ENDBRANCH  29  30
BRANCH  29  33
ATOM     33  O   UNK A   1       2.712  12.531  17.453  0.00  0.00    +0.000 OA
ATOM     34  H   UNK A   1       2.088  12.948  16.834  0.00  0.00    +0.000 HD
ENDBRANCH  29  33
ENDBRANCH  28  29
ENDBRANCH   6  28
TORSDOF 7
ENDMDL
MODEL 9
REMARK VINA RESULT:      -6.9      6.133      9.608
REMARK  Name = 
REMARK  11 active torsions:
REMARK  status: ('A' for Active; 'I' for Inactive)
REMARK    1  A    between atoms: C_2  and  C_3
REMARK    2  A    between atoms: C_3  and  C_4
REMARK    3  A    between atoms: C_3  and  C_5
REMARK    4  A    between atoms: C_3  and  C_6
REMARK    5  A    between atoms: C_11  and  C_12
REMARK    6  A    between atoms: C_12  and  C_13
REMARK    7  A    between atoms: C_13  and  O_14
REMARK    8  A    between atoms: C_13  and  C_15
REMARK    9  A    between atoms: C_15  and  C_17
REMARK   10  A    between atoms: C_20  and  C_21
REMARK   11  A    between atoms: CA_26  and  CB_27
REMARK                            x       y       z     vdW  Elec       q    Type
REMARK                         _______ _______ _______ _____ _____    ______ ____
ROOT
ATOM      1  C   UNK A   1      -0.432  10.620  18.630  0.00  0.00    +0.000 A 
ATOM      2  N   UNK A   1      -0.940  10.148  17.428  0.00  0.00    +0.000 N 
ATOM      3  C   UNK A   1      -2.219  10.589  17.216  0.00  0.00    +0.000 A 
ATOM      4  C   UNK A   1      -3.067  10.432  16.106  0.00  0.00    +0.000 A 
ATOM      5  C   UNK A   1      -4.316  11.067  16.147  0.00  0.00    +0.000 A 
ATOM      6  C   UNK A   1      -4.762  11.683  17.314  0.00  0.00    +0.000 A 
ATOM      7  C   UNK A   1      -3.968  11.596  18.466  0.00  0.00    +0.000 A 
ATOM      8  C   UNK A   1      -2.614  11.226  18.385  0.00  0.00    +0.000 A 
ATOM      9  C   UNK A   1      -1.459  11.345  19.236  0.00  0.00    +0.000 A 
ATOM     10  H   UNK A   1      -0.442   9.557  16.780  0.00  0.00    +0.000 HD
ENDROOT
BRANCH   9  11
ATOM     11  C   UNK A   1      -1.342  12.017  20.516  0.00  0.00    +0.000 C 
ATOM     12  C   UNK A   1      -0.905  13.241  20.841  0.00  0.00    +0.000 C 
ATOM     13  N   UNK A   1      -0.412  14.151  19.940  0.00  0.00    +0.000 N 
ATOM     14  C   ALA A   2      -0.826  15.469  19.989  0.00  0.00    +0.000 C 
ATOM     15  O   ALA A   2      -0.856  16.174  18.991  0.00  0.00    +0.000 OA
ATOM     16  CA  ALA A   2      -0.992  16.021  21.404  0.00  0.00    +0.000 C 
ATOM     17  CB  ALA A   2       0.407  16.488  21.793  0.00  0.00    +0.000 C 
ATOM     18  N   ALA A   2      -1.510  15.036  22.343  0.00  0.00    +0.000 N 
ATOM     19  C   UNK A   1      -1.164  13.709  22.255  0.00  0.00    +0.000 C 
ATOM     20  O   UNK A   1      -1.150  12.976  23.232  0.00  0.00    +0.000 OA
ATOM     21  H   UNK A   1      -0.102  13.815  19.036  0.00  0.00    +0.000 HD
ATOM     22  H   ALA A   2      -1.718  15.337  23.286  0.00  0.00    +0.000 HD
ENDBRANCH   9  11
BRANCH   1  23
ATOM     23  C   UNK A   1       1.017  10.299  19.034  0.00  0.00    +0.000 C 
ATOM     24  C   UNK A   1       1.700   9.456  17.932  0.00  0.00    +0.000 C 
ATOM     25  C   UNK A   1       0.982   9.471  20.340  0.00  0.00    +0.000 C 
BRANCH  23  27
ATOM     26  C   UNK A   1       2.356  12.340  18.209  0.00  0.00    +0.000 C 
ATOM     27  C   UNK A   1       1.902  11.550  19.178  0.00  0.00    +0.000 C 
ENDBRANCH  23  27
ENDBRANCH   1  23
BRANCH   6  28
ATOM     28  C   UNK A   1      -6.015  12.524  17.465  0.00  0.00    +0.000 C 
BRANCH  28  29
ATOM     29  C   UNK A   1      -7.174  11.944  18.287  0.00  0.00    +0.000 C 
BRANCH  29  30
ATOM     30  C   UNK A   1      -7.265  12.417  19.730  0.00  0.00    +0.000 C 
ATOM     31  C   UNK A   1      -7.180  13.686  20.156  0.00  0.00    +0.000 C 
ATOM     32  C   UNK A   1      -7.470  11.314  20.741  0.00  0.00    +0.000 C 
ENDBRANCH  29  30
BRANCH  29  33
ATOM     33  O   UNK A   1      -7.045  10.523  18.340  0.00  0.00    +0.000 OA
ATOM     34  H   UNK A   1      -7.525  10.232  19.133  0.00  0.00    +0.000 HD
ENDBRANCH  29  33
ENDBRANCH  28  29
ENDBRANCH   6  28
TORSDOF 7
ENDMDL
