MODEL 1
REMARK VINA RESULT:      -7.4      0.000      0.000
REMARK  Name = 
REMARK  13 active torsions:
REMARK  status: ('A' for Active; 'I' for Inactive)
REMARK    1  A    between atoms: C_1  and  C_2
REMARK    2  A    between atoms: C_2  and  C_3
REMARK    3  A    between atoms: C_3  and  C_4
REMARK    4  A    between atoms: C_4  and  C_6
REMARK    5  A    between atoms: C_7  and  O_8
REMARK    6  A    between atoms: C_9  and  C_10
REMARK    7  A    between atoms: C_10  and  C_11
REMARK    8  A    between atoms: C_12  and  C_13
REMARK    9  A    between atoms: C_12  and  C_14
REMARK   10  A    between atoms: C_20  and  C_21
REMARK   11  A    between atoms: C_21  and  C_22
REMARK   12  A    between atoms: C_22  and  C_23
REMARK   13  A    between atoms: C_25  and  O_26
REMARK                            x       y       z     vdW  Elec       q    Type
REMARK                         _______ _______ _______ _____ _____    ______ ____
ROOT
ATOM      1  C   UNL     1       3.583   4.260  19.479  0.00  0.00    +0.000 A 
ATOM      2  C   UNL     1       4.226   4.560  18.264  0.00  0.00    +0.000 A 
ATOM      3  C   UNL     1       4.161   5.841  17.706  0.00  0.00    +0.000 A 
ATOM      4  C   UNL     1       3.323   6.787  18.333  0.00  0.00    +0.000 A 
ATOM      5  O   UNL     1       3.248   8.052  17.702  0.00  0.00    +0.000 OA
ATOM      6  C   UNL     1       2.452   9.067  18.171  0.00  0.00    +0.000 A 
ATOM      7  O   UNL     1       2.375  10.161  17.626  0.00  0.00    +0.000 OA
ATOM      8  C   UNL     1       1.670   8.766  19.375  0.00  0.00    +0.000 A 
ATOM      9  C   UNL     1       1.715   7.599  20.034  0.00  0.00    +0.000 A 
ATOM     10  C   UNL     1       2.605   6.525  19.516  0.00  0.00    +0.000 A 
ATOM     11  C   UNL     1       2.788   5.251  20.093  0.00  0.00    +0.000 A 
ENDROOT
BRANCH   1  12
ATOM     12  C   UNL     1       3.754   2.888  20.053  0.00  0.00    +0.000 C 
ATOM     13  O   UNL     1       4.873   2.575  20.469  0.00  0.00    +0.000 OA
BRANCH  12  14
ATOM     14  C   UNL     1       2.581   1.924  20.102  0.00  0.00    +0.000 C 
BRANCH  14  16
ATOM     15  C   UNL     1       0.478   2.591  18.908  0.00  0.00    +0.000 C 
ATOM     16  C   UNL     1       1.809   1.861  18.787  0.00  0.00    +0.000 C 
ENDBRANCH  14  16
ENDBRANCH  12  14
ENDBRANCH   1  12
BRANCH   2  17
ATOM     17  O   UNL     1       4.958   3.618  17.579  0.00  0.00    +0.000 OA
ATOM     18  H   UNL     1       5.043   2.818  18.148  0.00  0.00    +0.000 HD
ENDBRANCH   2  17
BRANCH  11  19
ATOM     19  O   UNL     1       2.182   4.959  21.285  0.00  0.00    +0.000 OA
ATOM     20  H   UNL     1       1.258   4.728  21.081  0.00  0.00    +0.000 HD
ENDBRANCH  11  19
BRANCH   3  21
ATOM     21  C   UNL     1       4.963   6.208  16.470  0.00  0.00    +0.000 C 
BRANCH  21  22
ATOM     22  C   UNL     1       6.022   7.251  16.707  0.00  0.00    +0.000 C 
ATOM     23  C   UNL     1       7.118   7.173  17.490  0.00  0.00    +0.000 C 
ATOM     24  C   UNL     1       7.481   6.012  18.379  0.00  0.00    +0.000 C 
ATOM     25  C   UNL     1       8.123   8.296  17.516  0.00  0.00    +0.000 C 
ENDBRANCH  21  22
ENDBRANCH   3  21
BRANCH   9  26
ATOM     26  C   UNL     1       0.777   7.422  21.210  0.00  0.00    +0.000 C 
BRANCH  26  27
ATOM     27  C   UNL     1      -0.171   8.602  21.440  0.00  0.00    +0.000 C 
ATOM     28  C   UNL     1       0.103   9.263  22.785  0.00  0.00    +0.000 C 
ENDBRANCH  26  27
ENDBRANCH   9  26
TORSDOF 9
ENDMDL
MODEL 2
REMARK VINA RESULT:      -7.0      2.997      5.977
REMARK  Name = 
REMARK  13 active torsions:
REMARK  status: ('A' for Active; 'I' for Inactive)
REMARK    1  A    between atoms: C_1  and  C_2
REMARK    2  A    between atoms: C_2  and  C_3
REMARK    3  A    between atoms: C_3  and  C_4
REMARK    4  A    between atoms: C_4  and  C_6
REMARK    5  A    between atoms: C_7  and  O_8
REMARK    6  A    between atoms: C_9  and  C_10
REMARK    7  A    between atoms: C_10  and  C_11
REMARK    8  A    between atoms: C_12  and  C_13
REMARK    9  A    between atoms: C_12  and  C_14
REMARK   10  A    between atoms: C_20  and  C_21
REMARK   11  A    between atoms: C_21  and  C_22
REMARK   12  A    between atoms: C_22  and  C_23
REMARK   13  A    between atoms: C_25  and  O_26
REMARK                            x       y       z     vdW  Elec       q    Type
REMARK                         _______ _______ _______ _____ _____    ______ ____
ROOT
ATOM      1  C   UNL     1       4.801   4.530  17.879  0.00  0.00    +0.000 A 
ATOM      2  C   UNL     1       5.862   5.314  18.368  0.00  0.00    +0.000 A 
ATOM      3  C   UNL     1       6.835   5.835  17.509  0.00  0.00    +0.000 A 
ATOM      4  C   UNL     1       6.791   5.443  16.155  0.00  0.00    +0.000 A 
ATOM      5  O   UNL     1       7.826   5.953  15.336  0.00  0.00    +0.000 OA
ATOM      6  C   UNL     1       7.941   5.638  14.004  0.00  0.00    +0.000 A 
ATOM      7  O   UNL     1       8.839   6.067  13.291  0.00  0.00    +0.000 OA
ATOM      8  C   UNL     1       6.921   4.728  13.470  0.00  0.00    +0.000 A 
ATOM      9  C   UNL     1       5.901   4.231  14.185  0.00  0.00    +0.000 A 
ATOM     10  C   UNL     1       5.789   4.610  15.620  0.00  0.00    +0.000 A 
ATOM     11  C   UNL     1       4.775   4.196  16.509  0.00  0.00    +0.000 A 
ENDROOT
BRANCH   1  12
ATOM     12  C   UNL     1       3.758   4.064  18.847  0.00  0.00    +0.000 C 
ATOM     13  O   UNL     1       4.053   3.139  19.609  0.00  0.00    +0.000 OA
BRANCH  12  14
ATOM     14  C   UNL     1       2.385   4.714  18.868  0.00  0.00    +0.000 C 
BRANCH  14  16
ATOM     15  C   UNL     1       0.739   3.448  20.277  0.00  0.00    +0.000 C 
ATOM     16  C   UNL     1       1.706   4.624  20.233  0.00  0.00    +0.000 C 
ENDBRANCH  14  16
ENDBRANCH  12  14
ENDBRANCH   1  12
BRANCH   2  17
ATOM     17  O   UNL     1       5.984   5.616  19.705  0.00  0.00    +0.000 OA
ATOM     18  H   UNL     1       6.527   6.433  19.789  0.00  0.00    +0.000 HD
ENDBRANCH   2  17
BRANCH  11  19
ATOM     19  O   UNL     1       3.729   3.450  16.035  0.00  0.00    +0.000 OA
ATOM     20  H   UNL     1       3.953   2.517  16.198  0.00  0.00    +0.000 HD
ENDBRANCH  11  19
BRANCH   3  21
ATOM     21  C   UNL     1       7.902   6.792  18.009  0.00  0.00    +0.000 C 
BRANCH  21  22
ATOM     22  C   UNL     1       7.700   8.222  17.583  0.00  0.00    +0.000 C 
ATOM     23  C   UNL     1       8.262   9.338  18.093  0.00  0.00    +0.000 C 
ATOM     24  C   UNL     1       9.182   9.392  19.284  0.00  0.00    +0.000 C 
ATOM     25  C   UNL     1       8.010  10.681  17.458  0.00  0.00    +0.000 C 
ENDBRANCH  21  22
ENDBRANCH   3  21
BRANCH   9  26
ATOM     26  C   UNL     1       4.986   3.236  13.503  0.00  0.00    +0.000 C 
BRANCH  26  27
ATOM     27  C   UNL     1       5.244   3.073  12.002  0.00  0.00    +0.000 C 
ATOM     28  C   UNL     1       3.963   3.287  11.205  0.00  0.00    +0.000 C 
ENDBRANCH  26  27
ENDBRANCH   9  26
TORSDOF 9
ENDMDL
MODEL 3
REMARK VINA RESULT:      -6.9      1.275      1.858
REMARK  Name = 
REMARK  13 active torsions:
REMARK  status: ('A' for Active; 'I' for Inactive)
REMARK    1  A    between atoms: C_1  and  C_2
REMARK    2  A    between atoms: C_2  and  C_3
REMARK    3  A    between atoms: C_3  and  C_4
REMARK    4  A    between atoms: C_4  and  C_6
REMARK    5  A    between atoms: C_7  and  O_8
REMARK    6  A    between atoms: C_9  and  C_10
REMARK    7  A    between atoms: C_10  and  C_11
REMARK    8  A    between atoms: C_12  and  C_13
REMARK    9  A    between atoms: C_12  and  C_14
REMARK   10  A    between atoms: C_20  and  C_21
REMARK   11  A    between atoms: C_21  and  C_22
REMARK   12  A    between atoms: C_22  and  C_23
REMARK   13  A    between atoms: C_25  and  O_26
REMARK                            x       y       z     vdW  Elec       q    Type
REMARK                         _______ _______ _______ _____ _____    ______ ____
ROOT
ATOM      1  C   UNL     1       3.818   4.363  19.266  0.00  0.00    +0.000 A 
ATOM      2  C   UNL     1       4.439   4.665  18.040  0.00  0.00    +0.000 A 
ATOM      3  C   UNL     1       4.328   5.935  17.464  0.00  0.00    +0.000 A 
ATOM      4  C   UNL     1       3.469   6.864  18.087  0.00  0.00    +0.000 A 
ATOM      5  O   UNL     1       3.348   8.116  17.439  0.00  0.00    +0.000 OA
ATOM      6  C   UNL     1       2.526   9.114  17.901  0.00  0.00    +0.000 A 
ATOM      7  O   UNL     1       2.409  10.196  17.341  0.00  0.00    +0.000 OA
ATOM      8  C   UNL     1       1.766   8.807  19.118  0.00  0.00    +0.000 A 
ATOM      9  C   UNL     1       1.854   7.652  19.794  0.00  0.00    +0.000 A 
ATOM     10  C   UNL     1       2.771   6.598  19.281  0.00  0.00    +0.000 A 
ATOM     11  C   UNL     1       2.999   5.338  19.874  0.00  0.00    +0.000 A 
ENDROOT
BRANCH   1  12
ATOM     12  C   UNL     1       4.037   3.006  19.858  0.00  0.00    +0.000 C 
ATOM     13  O   UNL     1       5.172   2.730  20.258  0.00  0.00    +0.000 OA
BRANCH  12  14
ATOM     14  C   UNL     1       2.891   2.011  19.945  0.00  0.00    +0.000 C 
BRANCH  14  16
ATOM     15  C   UNL     1       0.668   2.518  18.898  0.00  0.00    +0.000 C 
ATOM     16  C   UNL     1       2.061   1.949  18.665  0.00  0.00    +0.000 C 
ENDBRANCH  14  16
ENDBRANCH  12  14
ENDBRANCH   1  12
BRANCH   2  17
ATOM     17  O   UNL     1       5.191   3.735  17.361  0.00  0.00    +0.000 OA
ATOM     18  H   UNL     1       5.910   4.209  16.882  0.00  0.00    +0.000 HD
ENDBRANCH   2  17
BRANCH  11  19
ATOM     19  O   UNL     1       2.415   5.046  21.078  0.00  0.00    +0.000 OA
ATOM     20  H   UNL     1       2.648   4.124  21.286  0.00  0.00    +0.000 HD
ENDBRANCH  11  19
BRANCH   3  21
ATOM     21  C   UNL     1       5.105   6.308  16.215  0.00  0.00    +0.000 C 
BRANCH  21  22
ATOM     22  C   UNL     1       4.965   5.326  15.082  0.00  0.00    +0.000 C 
ATOM     23  C   UNL     1       5.939   4.707  14.382  0.00  0.00    +0.000 C 
ATOM     24  C   UNL     1       7.419   4.935  14.545  0.00  0.00    +0.000 C 
ATOM     25  C   UNL     1       5.594   3.671  13.343  0.00  0.00    +0.000 C 
ENDBRANCH  21  22
ENDBRANCH   3  21
BRANCH   9  26
ATOM     26  C   UNL     1       0.935   7.463  20.982  0.00  0.00    +0.000 C 
BRANCH  26  27
ATOM     27  C   UNL     1       0.972   8.613  21.993  0.00  0.00    +0.000 C 
ATOM     28  C   UNL     1      -0.438   9.033  22.388  0.00  0.00    +0.000 C 
ENDBRANCH  26  27
ENDBRANCH   9  26
TORSDOF 9
ENDMDL
MODEL 4
REMARK VINA RESULT:      -6.9      2.043      5.239
REMARK  Name = 
REMARK  13 active torsions:
REMARK  status: ('A' for Active; 'I' for Inactive)
REMARK    1  A    between atoms: C_1  and  C_2
REMARK    2  A    between atoms: C_2  and  C_3
REMARK    3  A    between atoms: C_3  and  C_4
REMARK    4  A    between atoms: C_4  and  C_6
REMARK    5  A    between atoms: C_7  and  O_8
REMARK    6  A    between atoms: C_9  and  C_10
REMARK    7  A    between atoms: C_10  and  C_11
REMARK    8  A    between atoms: C_12  and  C_13
REMARK    9  A    between atoms: C_12  and  C_14
REMARK   10  A    between atoms: C_20  and  C_21
REMARK   11  A    between atoms: C_21  and  C_22
REMARK   12  A    between atoms: C_22  and  C_23
REMARK   13  A    between atoms: C_25  and  O_26
REMARK                            x       y       z     vdW  Elec       q    Type
REMARK                         _______ _______ _______ _____ _____    ______ ____
ROOT
ATOM      1  C   UNL     1       5.095   5.160  16.895  0.00  0.00    +0.000 A 
ATOM      2  C   UNL     1       4.617   6.466  16.679  0.00  0.00    +0.000 A 
ATOM      3  C   UNL     1       3.746   7.079  17.585  0.00  0.00    +0.000 A 
ATOM      4  C   UNL     1       3.261   6.301  18.657  0.00  0.00    +0.000 A 
ATOM      5  O   UNL     1       2.342   6.948  19.516  0.00  0.00    +0.000 OA
ATOM      6  C   UNL     1       1.755   6.315  20.584  0.00  0.00    +0.000 A 
ATOM      7  O   UNL     1       0.951   6.865  21.327  0.00  0.00    +0.000 OA
ATOM      8  C   UNL     1       2.133   4.912  20.787  0.00  0.00    +0.000 A 
ATOM      9  C   UNL     1       3.016   4.249  20.025  0.00  0.00    +0.000 A 
ATOM     10  C   UNL     1       3.654   4.968  18.889  0.00  0.00    +0.000 A 
ATOM     11  C   UNL     1       4.613   4.432  18.003  0.00  0.00    +0.000 A 
ENDROOT
BRANCH   1  12
ATOM     12  C   UNL     1       6.079   4.594  15.920  0.00  0.00    +0.000 C 
ATOM     13  O   UNL     1       7.268   4.895  16.063  0.00  0.00    +0.000 OA
BRANCH  12  14
ATOM     14  C   UNL     1       5.610   3.689  14.793  0.00  0.00    +0.000 C 
BRANCH  14  16
ATOM     15  C   UNL     1       5.561   3.390  12.302  0.00  0.00    +0.000 C 
ATOM     16  C   UNL     1       6.349   3.945  13.481  0.00  0.00    +0.000 C 
ENDBRANCH  14  16
ENDBRANCH  12  14
ENDBRANCH   1  12
BRANCH   2  17
ATOM     17  O   UNL     1       4.993   7.203  15.580  0.00  0.00    +0.000 OA
ATOM     18  H   UNL     1       5.148   6.583  14.830  0.00  0.00    +0.000 HD
ENDBRANCH   2  17
BRANCH  11  19
ATOM     19  O   UNL     1       5.097   3.171  18.220  0.00  0.00    +0.000 OA
ATOM     20  H   UNL     1       5.828   3.257  18.858  0.00  0.00    +0.000 HD
ENDBRANCH  11  19
BRANCH   3  21
ATOM     21  C   UNL     1       3.336   8.533  17.430  0.00  0.00    +0.000 C 
BRANCH  21  22
ATOM     22  C   UNL     1       1.883   8.801  17.720  0.00  0.00    +0.000 C 
ATOM     23  C   UNL     1       1.293   9.972  18.039  0.00  0.00    +0.000 C 
ATOM     24  C   UNL     1       2.002  11.284  18.250  0.00  0.00    +0.000 C 
ATOM     25  C   UNL     1      -0.204  10.058  18.194  0.00  0.00    +0.000 C 
ENDBRANCH  21  22
ENDBRANCH   3  21
BRANCH   9  26
ATOM     26  C   UNL     1       3.229   2.778  20.317  0.00  0.00    +0.000 C 
BRANCH  26  27
ATOM     27  C   UNL     1       1.977   1.916  20.134  0.00  0.00    +0.000 C 
ATOM     28  C   UNL     1       1.345   2.160  18.770  0.00  0.00    +0.000 C 
ENDBRANCH  26  27
ENDBRANCH   9  26
TORSDOF 9
ENDMDL
MODEL 5
REMARK VINA RESULT:      -6.7      1.703      5.066
REMARK  Name = 
REMARK  13 active torsions:
REMARK  status: ('A' for Active; 'I' for Inactive)
REMARK    1  A    between atoms: C_1  and  C_2
REMARK    2  A    between atoms: C_2  and  C_3
REMARK    3  A    between atoms: C_3  and  C_4
REMARK    4  A    between atoms: C_4  and  C_6
REMARK    5  A    between atoms: C_7  and  O_8
REMARK    6  A    between atoms: C_9  and  C_10
REMARK    7  A    between atoms: C_10  and  C_11
REMARK    8  A    between atoms: C_12  and  C_13
REMARK    9  A    between atoms: C_12  and  C_14
REMARK   10  A    between atoms: C_20  and  C_21
REMARK   11  A    between atoms: C_21  and  C_22
REMARK   12  A    between atoms: C_22  and  C_23
REMARK   13  A    between atoms: C_25  and  O_26
REMARK                            x       y       z     vdW  Elec       q    Type
REMARK                         _______ _______ _______ _____ _____    ______ ____
ROOT
ATOM      1  C   UNL     1       4.936   5.050  17.378  0.00  0.00    +0.000 A 
ATOM      2  C   UNL     1       4.514   6.343  17.019  0.00  0.00    +0.000 A 
ATOM      3  C   UNL     1       3.605   7.056  17.810  0.00  0.00    +0.000 A 
ATOM      4  C   UNL     1       3.029   6.387  18.910  0.00  0.00    +0.000 A 
ATOM      5  O   UNL     1       2.078   7.130  19.647  0.00  0.00    +0.000 OA
ATOM      6  C   UNL     1       1.405   6.609  20.725  0.00  0.00    +0.000 A 
ATOM      7  O   UNL     1       0.573   7.242  21.363  0.00  0.00    +0.000 OA
ATOM      8  C   UNL     1       1.726   5.220  21.072  0.00  0.00    +0.000 A 
ATOM      9  C   UNL     1       2.635   4.471  20.431  0.00  0.00    +0.000 A 
ATOM     10  C   UNL     1       3.366   5.071  19.282  0.00  0.00    +0.000 A 
ATOM     11  C   UNL     1       4.362   4.435  18.511  0.00  0.00    +0.000 A 
ENDROOT
BRANCH   1  12
ATOM     12  C   UNL     1       5.963   4.375  16.523  0.00  0.00    +0.000 C 
ATOM     13  O   UNL     1       5.564   3.576  15.671  0.00  0.00    +0.000 OA
BRANCH  12  14
ATOM     14  C   UNL     1       7.440   4.670  16.718  0.00  0.00    +0.000 C 
BRANCH  14  16
ATOM     15  C   UNL     1       7.838   6.502  18.386  0.00  0.00    +0.000 C 
ATOM     16  C   UNL     1       7.794   4.996  18.167  0.00  0.00    +0.000 C 
ENDBRANCH  14  16
ENDBRANCH  12  14
ENDBRANCH   1  12
BRANCH   2  17
ATOM     17  O   UNL     1       4.981   6.970  15.888  0.00  0.00    +0.000 OA
ATOM     18  H   UNL     1       5.141   6.286  15.198  0.00  0.00    +0.000 HD
ENDBRANCH   2  17
BRANCH  11  19
ATOM     19  O   UNL     1       4.793   3.186  18.868  0.00  0.00    +0.000 OA
ATOM     20  H   UNL     1       4.748   2.635  18.066  0.00  0.00    +0.000 HD
ENDBRANCH  11  19
BRANCH   3  21
ATOM     21  C   UNL     1       3.251   8.499  17.502  0.00  0.00    +0.000 C 
BRANCH  21  22
ATOM     22  C   UNL     1       1.796   8.836  17.697  0.00  0.00    +0.000 C 
ATOM     23  C   UNL     1       1.247  10.017  18.048  0.00  0.00    +0.000 C 
ATOM     24  C   UNL     1       2.007  11.269  18.401  0.00  0.00    +0.000 C 
ATOM     25  C   UNL     1      -0.251  10.182  18.092  0.00  0.00    +0.000 C 
ENDBRANCH  21  22
ENDBRANCH   3  21
BRANCH   9  26
ATOM     26  C   UNL     1       2.784   3.027  20.862  0.00  0.00    +0.000 C 
BRANCH  26  27
ATOM     27  C   UNL     1       1.590   2.139  20.500  0.00  0.00    +0.000 C 
ATOM     28  C   UNL     1       1.350   2.141  18.995  0.00  0.00    +0.000 C 
ENDBRANCH  26  27
ENDBRANCH   9  26
TORSDOF 9
ENDMDL
MODEL 6
REMARK VINA RESULT:      -6.7      3.014      6.164
REMARK  Name = 
REMARK  13 active torsions:
REMARK  status: ('A' for Active; 'I' for Inactive)
REMARK    1  A    between atoms: C_1  and  C_2
REMARK    2  A    between atoms: C_2  and  C_3
REMARK    3  A    between atoms: C_3  and  C_4
REMARK    4  A    between atoms: C_4  and  C_6
REMARK    5  A    between atoms: C_7  and  O_8
REMARK    6  A    between atoms: C_9  and  C_10
REMARK    7  A    between atoms: C_10  and  C_11
REMARK    8  A    between atoms: C_12  and  C_13
REMARK    9  A    between atoms: C_12  and  C_14
REMARK   10  A    between atoms: C_20  and  C_21
REMARK   11  A    between atoms: C_21  and  C_22
REMARK   12  A    between atoms: C_22  and  C_23
REMARK   13  A    between atoms: C_25  and  O_26
REMARK                            x       y       z     vdW  Elec       q    Type
REMARK                         _______ _______ _______ _____ _____    ______ ____
ROOT
ATOM      1  C   UNL     1       4.761   4.562  17.867  0.00  0.00    +0.000 A 
ATOM      2  C   UNL     1       5.827   5.334  18.364  0.00  0.00    +0.000 A 
ATOM      3  C   UNL     1       6.813   5.844  17.511  0.00  0.00    +0.000 A 
ATOM      4  C   UNL     1       6.774   5.452  16.157  0.00  0.00    +0.000 A 
ATOM      5  O   UNL     1       7.821   5.950  15.346  0.00  0.00    +0.000 OA
ATOM      6  C   UNL     1       7.942   5.633  14.016  0.00  0.00    +0.000 A 
ATOM      7  O   UNL     1       8.851   6.052  13.309  0.00  0.00    +0.000 OA
ATOM      8  C   UNL     1       6.917   4.735  13.473  0.00  0.00    +0.000 A 
ATOM      9  C   UNL     1       5.886   4.250  14.181  0.00  0.00    +0.000 A 
ATOM     10  C   UNL     1       5.767   4.630  15.615  0.00  0.00    +0.000 A 
ATOM     11  C   UNL     1       4.742   4.228  16.496  0.00  0.00    +0.000 A 
ENDROOT
BRANCH   1  12
ATOM     12  C   UNL     1       3.705   4.109  18.826  0.00  0.00    +0.000 C 
ATOM     13  O   UNL     1       3.912   3.069  19.458  0.00  0.00    +0.000 OA
BRANCH  12  14
ATOM     14  C   UNL     1       2.425   4.909  18.995  0.00  0.00    +0.000 C 
BRANCH  14  16
ATOM     15  C   UNL     1       2.327   7.412  19.144  0.00  0.00    +0.000 C 
ATOM     16  C   UNL     1       2.435   6.217  18.207  0.00  0.00    +0.000 C 
ENDBRANCH  14  16
ENDBRANCH  12  14
ENDBRANCH   1  12
BRANCH   2  17
ATOM     17  O   UNL     1       5.942   5.635  19.701  0.00  0.00    +0.000 OA
ATOM     18  H   UNL     1       6.543   4.974  20.116  0.00  0.00    +0.000 HD
ENDBRANCH   2  17
BRANCH  11  19
ATOM     19  O   UNL     1       3.691   3.494  16.015  0.00  0.00    +0.000 OA
ATOM     20  H   UNL     1       3.490   3.841  15.128  0.00  0.00    +0.000 HD
ENDBRANCH  11  19
BRANCH   3  21
ATOM     21  C   UNL     1       7.886   6.789  18.019  0.00  0.00    +0.000 C 
BRANCH  21  22
ATOM     22  C   UNL     1       7.699   8.223  17.600  0.00  0.00    +0.000 C 
ATOM     23  C   UNL     1       8.266   9.331  18.120  0.00  0.00    +0.000 C 
ATOM     24  C   UNL     1       9.177   9.372  19.318  0.00  0.00    +0.000 C 
ATOM     25  C   UNL     1       8.029  10.680  17.490  0.00  0.00    +0.000 C 
ENDBRANCH  21  22
ENDBRANCH   3  21
BRANCH   9  26
ATOM     26  C   UNL     1       4.964   3.265  13.492  0.00  0.00    +0.000 C 
BRANCH  26  27
ATOM     27  C   UNL     1       5.077   3.264  11.965  0.00  0.00    +0.000 C 
ATOM     28  C   UNL     1       5.697   1.964  11.468  0.00  0.00    +0.000 C 
ENDBRANCH  26  27
ENDBRANCH   9  26
TORSDOF 9
ENDMDL
MODEL 7
REMARK VINA RESULT:      -6.4      1.970      5.764
REMARK  Name = 
REMARK  13 active torsions:
REMARK  status: ('A' for Active; 'I' for Inactive)
REMARK    1  A    between atoms: C_1  and  C_2
REMARK    2  A    between atoms: C_2  and  C_3
REMARK    3  A    between atoms: C_3  and  C_4
REMARK    4  A    between atoms: C_4  and  C_6
REMARK    5  A    between atoms: C_7  and  O_8
REMARK    6  A    between atoms: C_9  and  C_10
REMARK    7  A    between atoms: C_10  and  C_11
REMARK    8  A    between atoms: C_12  and  C_13
REMARK    9  A    between atoms: C_12  and  C_14
REMARK   10  A    between atoms: C_20  and  C_21
REMARK   11  A    between atoms: C_21  and  C_22
REMARK   12  A    between atoms: C_22  and  C_23
REMARK   13  A    between atoms: C_25  and  O_26
REMARK                            x       y       z     vdW  Elec       q    Type
REMARK                         _______ _______ _______ _____ _____    ______ ____
ROOT
ATOM      1  C   UNL     1       5.534   5.713  17.170  0.00  0.00    +0.000 A 
ATOM      2  C   UNL     1       4.544   6.683  16.932  0.00  0.00    +0.000 A 
ATOM      3  C   UNL     1       3.367   6.720  17.689  0.00  0.00    +0.000 A 
ATOM      4  C   UNL     1       3.149   5.675  18.611  0.00  0.00    +0.000 A 
ATOM      5  O   UNL     1       1.922   5.727  19.315  0.00  0.00    +0.000 OA
ATOM      6  C   UNL     1       1.548   4.766  20.222  0.00  0.00    +0.000 A 
ATOM      7  O   UNL     1       0.484   4.798  20.827  0.00  0.00    +0.000 OA
ATOM      8  C   UNL     1       2.498   3.667  20.423  0.00  0.00    +0.000 A 
ATOM      9  C   UNL     1       3.687   3.573  19.808  0.00  0.00    +0.000 A 
ATOM     10  C   UNL     1       4.076   4.642  18.848  0.00  0.00    +0.000 A 
ATOM     11  C   UNL     1       5.290   4.710  18.132  0.00  0.00    +0.000 A 
ENDROOT
BRANCH   1  12
ATOM     12  C   UNL     1       6.797   5.777  16.369  0.00  0.00    +0.000 C 
ATOM     13  O   UNL     1       7.597   6.680  16.630  0.00  0.00    +0.000 OA
BRANCH  12  14
ATOM     14  C   UNL     1       7.063   4.762  15.270  0.00  0.00    +0.000 C 
BRANCH  14  16
ATOM     15  C   UNL     1       6.216   3.622  13.202  0.00  0.00    +0.000 C 
ATOM     16  C   UNL     1       5.860   4.553  14.353  0.00  0.00    +0.000 C 
ENDBRANCH  14  16
ENDBRANCH  12  14
ENDBRANCH   1  12
BRANCH   2  17
ATOM     17  O   UNL     1       4.690   7.645  15.960  0.00  0.00    +0.000 OA
ATOM     18  H   UNL     1       4.767   7.195  15.088  0.00  0.00    +0.000 HD
ENDBRANCH   2  17
BRANCH  11  19
ATOM     19  O   UNL     1       6.266   3.781  18.373  0.00  0.00    +0.000 OA
ATOM     20  H   UNL     1       6.259   3.610  19.332  0.00  0.00    +0.000 HD
ENDBRANCH  11  19
BRANCH   3  21
ATOM     21  C   UNL     1       2.359   7.843  17.531  0.00  0.00    +0.000 C 
BRANCH  21  22
ATOM     22  C   UNL     1       2.088   8.616  18.795  0.00  0.00    +0.000 C 
ATOM     23  C   UNL     1       1.077   9.470  19.057  0.00  0.00    +0.000 C 
ATOM     24  C   UNL     1       0.015   9.900  18.079  0.00  0.00    +0.000 C 
ATOM     25  C   UNL     1       0.919  10.071  20.430  0.00  0.00    +0.000 C 
ENDBRANCH  21  22
ENDBRANCH   3  21
BRANCH   9  26
ATOM     26  C   UNL     1       4.512   2.329  20.062  0.00  0.00    +0.000 C 
BRANCH  26  27
ATOM     27  C   UNL     1       4.105   1.123  19.211  0.00  0.00    +0.000 C 
ATOM     28  C   UNL     1       3.506   1.573  17.884  0.00  0.00    +0.000 C 
ENDBRANCH  26  27
ENDBRANCH   9  26
TORSDOF 9
ENDMDL
MODEL 8
REMARK VINA RESULT:      -6.4      1.205      1.558
REMARK  Name = 
REMARK  13 active torsions:
REMARK  status: ('A' for Active; 'I' for Inactive)
REMARK    1  A    between atoms: C_1  and  C_2
REMARK    2  A    between atoms: C_2  and  C_3
REMARK    3  A    between atoms: C_3  and  C_4
REMARK    4  A    between atoms: C_4  and  C_6
REMARK    5  A    between atoms: C_7  and  O_8
REMARK    6  A    between atoms: C_9  and  C_10
REMARK    7  A    between atoms: C_10  and  C_11
REMARK    8  A    between atoms: C_12  and  C_13
REMARK    9  A    between atoms: C_12  and  C_14
REMARK   10  A    between atoms: C_20  and  C_21
REMARK   11  A    between atoms: C_21  and  C_22
REMARK   12  A    between atoms: C_22  and  C_23
REMARK   13  A    between atoms: C_25  and  O_26
REMARK                            x       y       z     vdW  Elec       q    Type
REMARK                         _______ _______ _______ _____ _____    ______ ____
ROOT
ATOM      1  C   UNL     1       3.279   4.604  19.510  0.00  0.00    +0.000 A 
ATOM      2  C   UNL     1       3.717   4.799  18.187  0.00  0.00    +0.000 A 
ATOM      3  C   UNL     1       3.609   6.046  17.563  0.00  0.00    +0.000 A 
ATOM      4  C   UNL     1       2.930   7.070  18.257  0.00  0.00    +0.000 A 
ATOM      5  O   UNL     1       2.800   8.297  17.564  0.00  0.00    +0.000 OA
ATOM      6  C   UNL     1       2.138   9.378  18.091  0.00  0.00    +0.000 A 
ATOM      7  O   UNL     1       2.013  10.440  17.495  0.00  0.00    +0.000 OA
ATOM      8  C   UNL     1       1.561   9.190  19.427  0.00  0.00    +0.000 A 
ATOM      9  C   UNL     1       1.671   8.063  20.146  0.00  0.00    +0.000 A 
ATOM     10  C   UNL     1       2.415   6.915  19.559  0.00  0.00    +0.000 A 
ATOM     11  C   UNL     1       2.641   5.669  20.181  0.00  0.00    +0.000 A 
ENDROOT
BRANCH   1  12
ATOM     12  C   UNL     1       3.489   3.262  20.137  0.00  0.00    +0.000 C 
ATOM     13  O   UNL     1       4.645   2.833  20.202  0.00  0.00    +0.000 OA
BRANCH  12  14
ATOM     14  C   UNL     1       2.307   2.464  20.661  0.00  0.00    +0.000 C 
BRANCH  14  16
ATOM     15  C   UNL     1       0.844   2.201  18.639  0.00  0.00    +0.000 C 
ATOM     16  C   UNL     1       0.986   2.861  20.004  0.00  0.00    +0.000 C 
ENDBRANCH  14  16
ENDBRANCH  12  14
ENDBRANCH   1  12
BRANCH   2  17
ATOM     17  O   UNL     1       4.281   3.781  17.454  0.00  0.00    +0.000 OA
ATOM     18  H   UNL     1       4.282   4.047  16.505  0.00  0.00    +0.000 HD
ENDBRANCH   2  17
BRANCH  11  19
ATOM     19  O   UNL     1       2.236   5.481  21.475  0.00  0.00    +0.000 OA
ATOM     20  H   UNL     1       3.043   5.350  22.004  0.00  0.00    +0.000 HD
ENDBRANCH  11  19
BRANCH   3  21
ATOM     21  C   UNL     1       4.202   6.298  16.188  0.00  0.00    +0.000 C 
BRANCH  21  22
ATOM     22  C   UNL     1       5.664   5.955  16.073  0.00  0.00    +0.000 C 
ATOM     23  C   UNL     1       6.262   5.108  15.209  0.00  0.00    +0.000 C 
ATOM     24  C   UNL     1       5.558   4.245  14.196  0.00  0.00    +0.000 C 
ATOM     25  C   UNL     1       7.763   4.976  15.182  0.00  0.00    +0.000 C 
ENDBRANCH  21  22
ENDBRANCH   3  21
BRANCH   9  26
ATOM     26  C   UNL     1       0.942   8.003  21.472  0.00  0.00    +0.000 C 
BRANCH  26  27
ATOM     27  C   UNL     1      -0.087   9.120  21.672  0.00  0.00    +0.000 C 
ATOM     28  C   UNL     1      -0.151   9.543  23.135  0.00  0.00    +0.000 C 
ENDBRANCH  26  27
ENDBRANCH   9  26
TORSDOF 9
ENDMDL
MODEL 9
REMARK VINA RESULT:      -6.3      1.711      6.185
REMARK  Name = 
REMARK  13 active torsions:
REMARK  status: ('A' for Active; 'I' for Inactive)
REMARK    1  A    between atoms: C_1  and  C_2
REMARK    2  A    between atoms: C_2  and  C_3
REMARK    3  A    between atoms: C_3  and  C_4
REMARK    4  A    between atoms: C_4  and  C_6
REMARK    5  A    between atoms: C_7  and  O_8
REMARK    6  A    between atoms: C_9  and  C_10
REMARK    7  A    between atoms: C_10  and  C_11
REMARK    8  A    between atoms: C_12  and  C_13
REMARK    9  A    between atoms: C_12  and  C_14
REMARK   10  A    between atoms: C_20  and  C_21
REMARK   11  A    between atoms: C_21  and  C_22
REMARK   12  A    between atoms: C_22  and  C_23
REMARK   13  A    between atoms: C_25  and  O_26
REMARK                            x       y       z     vdW  Elec       q    Type
REMARK                         _______ _______ _______ _____ _____    ______ ____
ROOT
ATOM      1  C   UNL     1       5.556   6.003  17.779  0.00  0.00    +0.000 A 
ATOM      2  C   UNL     1       4.482   6.861  17.482  0.00  0.00    +0.000 A 
ATOM      3  C   UNL     1       3.216   6.660  18.043  0.00  0.00    +0.000 A 
ATOM      4  C   UNL     1       3.019   5.496  18.815  0.00  0.00    +0.000 A 
ATOM      5  O   UNL     1       1.709   5.310  19.317  0.00  0.00    +0.000 OA
ATOM      6  C   UNL     1       1.349   4.211  20.057  0.00  0.00    +0.000 A 
ATOM      7  O   UNL     1       0.216   4.037  20.487  0.00  0.00    +0.000 OA
ATOM      8  C   UNL     1       2.408   3.225  20.299  0.00  0.00    +0.000 A 
ATOM      9  C   UNL     1       3.674   3.354  19.874  0.00  0.00    +0.000 A 
ATOM     10  C   UNL     1       4.040   4.568  19.094  0.00  0.00    +0.000 A 
ATOM     11  C   UNL     1       5.322   4.872  18.589  0.00  0.00    +0.000 A 
ENDROOT
BRANCH   1  12
ATOM     12  C   UNL     1       6.899   6.319  17.198  0.00  0.00    +0.000 C 
ATOM     13  O   UNL     1       7.147   5.898  16.064  0.00  0.00    +0.000 OA
BRANCH  12  14
ATOM     14  C   UNL     1       7.911   7.123  17.995  0.00  0.00    +0.000 C 
BRANCH  14  16
ATOM     15  C   UNL     1       8.738   9.406  18.629  0.00  0.00    +0.000 C 
ATOM     16  C   UNL     1       7.908   8.607  17.634  0.00  0.00    +0.000 C 
ENDBRANCH  14  16
ENDBRANCH  12  14
ENDBRANCH   1  12
BRANCH   2  17
ATOM     17  O   UNL     1       4.627   7.941  16.642  0.00  0.00    +0.000 OA
ATOM     18  H   UNL     1       4.099   8.688  17.004  0.00  0.00    +0.000 HD
ENDBRANCH   2  17
BRANCH  11  19
ATOM     19  O   UNL     1       6.376   4.053  18.892  0.00  0.00    +0.000 OA
ATOM     20  H   UNL     1       6.285   3.815  19.832  0.00  0.00    +0.000 HD
ENDBRANCH  11  19
BRANCH   3  21
ATOM     21  C   UNL     1       2.091   7.658  17.836  0.00  0.00    +0.000 C 
BRANCH  21  22
ATOM     22  C   UNL     1       1.882   8.605  18.988  0.00  0.00    +0.000 C 
ATOM     23  C   UNL     1       0.952   9.573  19.121  0.00  0.00    +0.000 C 
ATOM     24  C   UNL     1      -0.057   9.971  18.077  0.00  0.00    +0.000 C 
ATOM     25  C   UNL     1       0.840  10.355  20.405  0.00  0.00    +0.000 C 
ENDBRANCH  21  22
ENDBRANCH   3  21
BRANCH   9  26
ATOM     26  C   UNL     1       4.623   2.203  20.135  0.00  0.00    +0.000 C 
BRANCH  26  27
ATOM     27  C   UNL     1       4.382   0.979  19.247  0.00  0.00    +0.000 C 
ATOM     28  C   UNL     1       3.770   1.389  17.913  0.00  0.00    +0.000 C 
ENDBRANCH  26  27
ENDBRANCH   9  26
TORSDOF 9
ENDMDL
