MODEL 1
REMARK VINA RESULT:      -6.9      0.000      0.000
REMARK  Name = 
REMARK  3 active torsions:
REMARK  status: ('A' for Active; 'I' for Inactive)
REMARK    1  A    between atoms: C_2  and  C_4
REMARK    2  A    between atoms: C_7  and  N_8
REMARK    3  A    between atoms: C_9  and  C_11
REMARK                            x       y       z     vdW  Elec       q    Type
REMARK                         _______ _______ _______ _____ _____    ______ ____
ROOT
ATOM      1  C   UNL     1       5.815   4.752  15.376  0.00  0.00    +0.000 A 
ATOM      2  C   UNL     1       5.302   5.950  15.873  0.00  0.00    +0.000 A 
ATOM      3  C   UNL     1       4.440   5.939  16.969  0.00  0.00    +0.000 A 
ATOM      4  C   UNL     1       4.061   4.740  17.580  0.00  0.00    +0.000 A 
ATOM      5  C   UNL     1       4.572   3.538  17.072  0.00  0.00    +0.000 A 
ATOM      6  C   UNL     1       5.439   3.542  15.969  0.00  0.00    +0.000 A 
ENDROOT
BRANCH   1   8
ATOM      7  N   UNL     1       7.857   5.515  14.302  0.00  0.00    +0.000 N 
ATOM      8  C   UNL     1       6.729   4.747  14.205  0.00  0.00    +0.000 C 
ATOM      9  O   UNL     1       6.500   4.071  13.212  0.00  0.00    +0.000 OA
ATOM     10  H   UNL     1       8.517   5.465  13.538  0.00  0.00    +0.000 HD
ATOM     11  H   UNL     1       8.178   5.904  15.178  0.00  0.00    +0.000 HD
ENDBRANCH   1   8
BRANCH   4  12
ATOM     12  N   UNL     1       3.177   4.685  18.680  0.00  0.00    +0.000 N 
ATOM     13  C   UNL     1       1.862   4.263  18.648  0.00  0.00    +0.000 C 
ATOM     14  O   UNL     1       1.235   3.882  17.668  0.00  0.00    +0.000 OA
ATOM     15  H   UNL     1       3.553   4.957  19.578  0.00  0.00    +0.000 HD
BRANCH  13  16
ATOM     16  C   UNL     1       1.181   4.262  19.977  0.00  0.00    +0.000 C 
ATOM     17  C   UNL     1       1.161   2.992  20.806  0.00  0.00    +0.000 C 
ATOM     18  C   UNL     1       2.018   4.148  21.232  0.00  0.00    +0.000 C 
ENDBRANCH  13  16
ENDBRANCH   4  12
TORSDOF 3
ENDMDL
MODEL 2
REMARK VINA RESULT:      -6.9      0.828      1.495
REMARK  Name = 
REMARK  3 active torsions:
REMARK  status: ('A' for Active; 'I' for Inactive)
REMARK    1  A    between atoms: C_2  and  C_4
REMARK    2  A    between atoms: C_7  and  N_8
REMARK    3  A    between atoms: C_9  and  C_11
REMARK                            x       y       z     vdW  Elec       q    Type
REMARK                         _______ _______ _______ _____ _____    ______ ____
ROOT
ATOM      1  C   UNL     1       5.858   4.769  15.381  0.00  0.00    +0.000 A 
ATOM      2  C   UNL     1       5.533   3.546  15.968  0.00  0.00    +0.000 A 
ATOM      3  C   UNL     1       4.648   3.502  17.045  0.00  0.00    +0.000 A 
ATOM      4  C   UNL     1       4.082   4.670  17.566  0.00  0.00    +0.000 A 
ATOM      5  C   UNL     1       4.417   5.896  16.978  0.00  0.00    +0.000 A 
ATOM      6  C   UNL     1       5.308   5.948  15.895  0.00  0.00    +0.000 A 
ENDROOT
BRANCH   1   8
ATOM      7  N   UNL     1       6.514   4.050  13.155  0.00  0.00    +0.000 N 
ATOM      8  C   UNL     1       6.805   4.833  14.238  0.00  0.00    +0.000 C 
ATOM      9  O   UNL     1       7.782   5.568  14.252  0.00  0.00    +0.000 OA
ATOM     10  H   UNL     1       7.116   4.137  12.348  0.00  0.00    +0.000 HD
ATOM     11  H   UNL     1       5.615   3.608  13.028  0.00  0.00    +0.000 HD
ENDBRANCH   1   8
BRANCH   4  12
ATOM     12  N   UNL     1       3.195   4.668  18.665  0.00  0.00    +0.000 N 
ATOM     13  C   UNL     1       1.883   4.236  18.653  0.00  0.00    +0.000 C 
ATOM     14  O   UNL     1       1.261   3.799  17.693  0.00  0.00    +0.000 OA
ATOM     15  H   UNL     1       3.568   4.989  19.548  0.00  0.00    +0.000 HD
BRANCH  13  16
ATOM     16  C   UNL     1       1.199   4.301  19.979  0.00  0.00    +0.000 C 
ATOM     17  C   UNL     1       1.131   3.060  20.847  0.00  0.00    +0.000 C 
ATOM     18  C   UNL     1       2.028   4.197  21.239  0.00  0.00    +0.000 C 
ENDBRANCH  13  16
ENDBRANCH   4  12
TORSDOF 3
ENDMDL
MODEL 3
REMARK VINA RESULT:      -6.7      1.581      1.685
REMARK  Name = 
REMARK  3 active torsions:
REMARK  status: ('A' for Active; 'I' for Inactive)
REMARK    1  A    between atoms: C_2  and  C_4
REMARK    2  A    between atoms: C_7  and  N_8
REMARK    3  A    between atoms: C_9  and  C_11
REMARK                            x       y       z     vdW  Elec       q    Type
REMARK                         _______ _______ _______ _____ _____    ______ ____
ROOT
ATOM      1  C   UNL     1       6.201   4.561  15.996  0.00  0.00    +0.000 A 
ATOM      2  C   UNL     1       6.735   4.934  17.229  0.00  0.00    +0.000 A 
ATOM      3  C   UNL     1       6.013   4.709  18.401  0.00  0.00    +0.000 A 
ATOM      4  C   UNL     1       4.743   4.124  18.367  0.00  0.00    +0.000 A 
ATOM      5  C   UNL     1       4.207   3.758  17.126  0.00  0.00    +0.000 A 
ATOM      6  C   UNL     1       4.928   3.982  15.943  0.00  0.00    +0.000 A 
ENDROOT
BRANCH   1   8
ATOM      7  N   UNL     1       6.552   4.097  13.637  0.00  0.00    +0.000 N 
ATOM      8  C   UNL     1       6.955   4.800  14.739  0.00  0.00    +0.000 C 
ATOM      9  O   UNL     1       7.874   5.605  14.684  0.00  0.00    +0.000 OA
ATOM     10  H   UNL     1       7.017   4.303  12.763  0.00  0.00    +0.000 HD
ATOM     11  H   UNL     1       5.674   3.600  13.599  0.00  0.00    +0.000 HD
ENDBRANCH   1   8
BRANCH   4  12
ATOM     12  N   UNL     1       3.973   3.895  19.529  0.00  0.00    +0.000 N 
ATOM     13  C   UNL     1       2.914   4.665  19.968  0.00  0.00    +0.000 C 
ATOM     14  O   UNL     1       2.472   5.679  19.442  0.00  0.00    +0.000 OA
ATOM     15  H   UNL     1       4.206   3.076  20.073  0.00  0.00    +0.000 HD
BRANCH  13  16
ATOM     16  C   UNL     1       2.249   4.154  21.204  0.00  0.00    +0.000 C 
ATOM     17  C   UNL     1       1.125   3.144  21.085  0.00  0.00    +0.000 C 
ATOM     18  C   UNL     1       2.463   2.713  21.611  0.00  0.00    +0.000 C 
ENDBRANCH  13  16
ENDBRANCH   4  12
TORSDOF 3
ENDMDL
MODEL 4
REMARK VINA RESULT:      -6.6      1.593      1.811
REMARK  Name = 
REMARK  3 active torsions:
REMARK  status: ('A' for Active; 'I' for Inactive)
REMARK    1  A    between atoms: C_2  and  C_4
REMARK    2  A    between atoms: C_7  and  N_8
REMARK    3  A    between atoms: C_9  and  C_11
REMARK                            x       y       z     vdW  Elec       q    Type
REMARK                         _______ _______ _______ _____ _____    ______ ____
ROOT
ATOM      1  C   UNL     1       6.113   4.432  15.946  0.00  0.00    +0.000 A 
ATOM      2  C   UNL     1       4.800   3.977  15.834  0.00  0.00    +0.000 A 
ATOM      3  C   UNL     1       4.029   3.778  16.979  0.00  0.00    +0.000 A 
ATOM      4  C   UNL     1       4.552   4.014  18.254  0.00  0.00    +0.000 A 
ATOM      5  C   UNL     1       5.874   4.463  18.362  0.00  0.00    +0.000 A 
ATOM      6  C   UNL     1       6.656   4.664  17.214  0.00  0.00    +0.000 A 
ENDROOT
BRANCH   1   8
ATOM      7  N   UNL     1       6.685   3.839  13.660  0.00  0.00    +0.000 N 
ATOM      8  C   UNL     1       6.949   4.642  14.736  0.00  0.00    +0.000 C 
ATOM      9  O   UNL     1       7.812   5.506  14.692  0.00  0.00    +0.000 OA
ATOM     10  H   UNL     1       7.203   4.019  12.811  0.00  0.00    +0.000 HD
ATOM     11  H   UNL     1       5.848   3.277  13.592  0.00  0.00    +0.000 HD
ENDBRANCH   1   8
BRANCH   4  12
ATOM     12  N   UNL     1       3.810   3.808  19.438  0.00  0.00    +0.000 N 
ATOM     13  C   UNL     1       2.903   4.689  19.993  0.00  0.00    +0.000 C 
ATOM     14  O   UNL     1       2.599   5.798  19.570  0.00  0.00    +0.000 OA
ATOM     15  H   UNL     1       3.938   2.921  19.905  0.00  0.00    +0.000 HD
BRANCH  13  16
ATOM     16  C   UNL     1       2.225   4.184  21.224  0.00  0.00    +0.000 C 
ATOM     17  C   UNL     1       1.125   3.147  21.099  0.00  0.00    +0.000 C 
ATOM     18  C   UNL     1       2.462   2.754  21.659  0.00  0.00    +0.000 C 
ENDBRANCH  13  16
ENDBRANCH   4  12
TORSDOF 3
ENDMDL
MODEL 5
REMARK VINA RESULT:      -6.5      1.430      1.466
REMARK  Name = 
REMARK  3 active torsions:
REMARK  status: ('A' for Active; 'I' for Inactive)
REMARK    1  A    between atoms: C_2  and  C_4
REMARK    2  A    between atoms: C_7  and  N_8
REMARK    3  A    between atoms: C_9  and  C_11
REMARK                            x       y       z     vdW  Elec       q    Type
REMARK                         _______ _______ _______ _____ _____    ______ ____
ROOT
ATOM      1  C   UNL     1       5.933   4.785  15.315  0.00  0.00    +0.000 A 
ATOM      2  C   UNL     1       5.635   5.998  15.935  0.00  0.00    +0.000 A 
ATOM      3  C   UNL     1       4.774   6.029  17.031  0.00  0.00    +0.000 A 
ATOM      4  C   UNL     1       4.183   4.860  17.521  0.00  0.00    +0.000 A 
ATOM      5  C   UNL     1       4.480   3.645  16.891  0.00  0.00    +0.000 A 
ATOM      6  C   UNL     1       5.344   3.606  15.786  0.00  0.00    +0.000 A 
ENDROOT
BRANCH   1   8
ATOM      7  N   UNL     1       6.604   3.756  13.218  0.00  0.00    +0.000 N 
ATOM      8  C   UNL     1       6.843   4.737  14.142  0.00  0.00    +0.000 C 
ATOM      9  O   UNL     1       7.746   5.548  13.994  0.00  0.00    +0.000 OA
ATOM     10  H   UNL     1       7.176   3.758  12.385  0.00  0.00    +0.000 HD
ATOM     11  H   UNL     1       5.748   3.220  13.202  0.00  0.00    +0.000 HD
ENDBRANCH   1   8
BRANCH   4  12
ATOM     12  N   UNL     1       3.293   4.852  18.618  0.00  0.00    +0.000 N 
ATOM     13  C   UNL     1       3.370   4.027  19.723  0.00  0.00    +0.000 C 
ATOM     14  O   UNL     1       4.204   3.157  19.935  0.00  0.00    +0.000 OA
ATOM     15  H   UNL     1       2.546   5.533  18.601  0.00  0.00    +0.000 HD
BRANCH  13  16
ATOM     16  C   UNL     1       2.320   4.277  20.755  0.00  0.00    +0.000 C 
ATOM     17  C   UNL     1       0.951   3.645  20.597  0.00  0.00    +0.000 C 
ATOM     18  C   UNL     1       1.888   3.140  21.655  0.00  0.00    +0.000 C 
ENDBRANCH  13  16
ENDBRANCH   4  12
TORSDOF 3
ENDMDL
MODEL 6
REMARK VINA RESULT:      -6.4      1.158      1.725
REMARK  Name = 
REMARK  3 active torsions:
REMARK  status: ('A' for Active; 'I' for Inactive)
REMARK    1  A    between atoms: C_2  and  C_4
REMARK    2  A    between atoms: C_7  and  N_8
REMARK    3  A    between atoms: C_9  and  C_11
REMARK                            x       y       z     vdW  Elec       q    Type
REMARK                         _______ _______ _______ _____ _____    ______ ____
ROOT
ATOM      1  C   UNL     1       5.904   4.792  15.157  0.00  0.00    +0.000 A 
ATOM      2  C   UNL     1       5.418   3.595  15.681  0.00  0.00    +0.000 A 
ATOM      3  C   UNL     1       4.538   3.611  16.764  0.00  0.00    +0.000 A 
ATOM      4  C   UNL     1       4.138   4.815  17.353  0.00  0.00    +0.000 A 
ATOM      5  C   UNL     1       4.635   6.015  16.828  0.00  0.00    +0.000 A 
ATOM      6  C   UNL     1       5.521   6.005  15.740  0.00  0.00    +0.000 A 
ENDROOT
BRANCH   1   8
ATOM      7  N   UNL     1       7.985   5.536  14.148  0.00  0.00    +0.000 N 
ATOM      8  C   UNL     1       6.847   4.790  14.009  0.00  0.00    +0.000 C 
ATOM      9  O   UNL     1       6.631   4.134  13.001  0.00  0.00    +0.000 OA
ATOM     10  H   UNL     1       8.662   5.487  13.399  0.00  0.00    +0.000 HD
ATOM     11  H   UNL     1       8.290   5.905  15.037  0.00  0.00    +0.000 HD
ENDBRANCH   1   8
BRANCH   4  12
ATOM     12  N   UNL     1       3.263   4.873  18.460  0.00  0.00    +0.000 N 
ATOM     13  C   UNL     1       3.375   4.140  19.625  0.00  0.00    +0.000 C 
ATOM     14  O   UNL     1       4.233   3.308  19.892  0.00  0.00    +0.000 OA
ATOM     15  H   UNL     1       2.500   5.533  18.401  0.00  0.00    +0.000 HD
BRANCH  13  16
ATOM     16  C   UNL     1       2.333   4.446  20.650  0.00  0.00    +0.000 C 
ATOM     17  C   UNL     1       0.967   3.798  20.544  0.00  0.00    +0.000 C 
ATOM     18  C   UNL     1       1.917   3.363  21.621  0.00  0.00    +0.000 C 
ENDBRANCH  13  16
ENDBRANCH   4  12
TORSDOF 3
ENDMDL
MODEL 7
REMARK VINA RESULT:      -6.3      1.683      1.880
REMARK  Name = 
REMARK  3 active torsions:
REMARK  status: ('A' for Active; 'I' for Inactive)
REMARK    1  A    between atoms: C_2  and  C_4
REMARK    2  A    between atoms: C_7  and  N_8
REMARK    3  A    between atoms: C_9  and  C_11
REMARK                            x       y       z     vdW  Elec       q    Type
REMARK                         _______ _______ _______ _____ _____    ______ ____
ROOT
ATOM      1  C   UNL     1       6.258   4.562  15.686  0.00  0.00    +0.000 A 
ATOM      2  C   UNL     1       4.877   4.374  15.633  0.00  0.00    +0.000 A 
ATOM      3  C   UNL     1       4.137   4.287  16.812  0.00  0.00    +0.000 A 
ATOM      4  C   UNL     1       4.756   4.371  18.063  0.00  0.00    +0.000 A 
ATOM      5  C   UNL     1       6.144   4.552  18.112  0.00  0.00    +0.000 A 
ATOM      6  C   UNL     1       6.895   4.639  16.929  0.00  0.00    +0.000 A 
ENDROOT
BRANCH   1   8
ATOM      7  N   UNL     1       6.738   3.773  13.439  0.00  0.00    +0.000 N 
ATOM      8  C   UNL     1       7.060   4.649  14.439  0.00  0.00    +0.000 C 
ATOM      9  O   UNL     1       7.947   5.479  14.301  0.00  0.00    +0.000 OA
ATOM     10  H   UNL     1       7.233   3.870  12.563  0.00  0.00    +0.000 HD
ATOM     11  H   UNL     1       5.883   3.235  13.440  0.00  0.00    +0.000 HD
ENDBRANCH   1   8
BRANCH   4  12
ATOM     12  N   UNL     1       4.045   4.271  19.279  0.00  0.00    +0.000 N 
ATOM     13  C   UNL     1       3.482   3.122  19.801  0.00  0.00    +0.000 C 
ATOM     14  O   UNL     1       3.487   2.006  19.298  0.00  0.00    +0.000 OA
ATOM     15  H   UNL     1       3.965   5.115  19.828  0.00  0.00    +0.000 HD
BRANCH  13  16
ATOM     16  C   UNL     1       2.833   3.302  21.134  0.00  0.00    +0.000 C 
ATOM     17  C   UNL     1       1.418   3.839  21.210  0.00  0.00    +0.000 C 
ATOM     18  C   UNL     1       1.686   2.396  21.521  0.00  0.00    +0.000 C 
ENDBRANCH  13  16
ENDBRANCH   4  12
TORSDOF 3
ENDMDL
MODEL 8
REMARK VINA RESULT:      -6.3      2.583      6.062
REMARK  Name = 
REMARK  3 active torsions:
REMARK  status: ('A' for Active; 'I' for Inactive)
REMARK    1  A    between atoms: C_2  and  C_4
REMARK    2  A    between atoms: C_7  and  N_8
REMARK    3  A    between atoms: C_9  and  C_11
REMARK                            x       y       z     vdW  Elec       q    Type
REMARK                         _______ _______ _______ _____ _____    ______ ____
ROOT
ATOM      1  C   UNL     1       2.307   3.748  18.900  0.00  0.00    +0.000 A 
ATOM      2  C   UNL     1       2.284   4.950  18.194  0.00  0.00    +0.000 A 
ATOM      3  C   UNL     1       3.471   5.641  17.951  0.00  0.00    +0.000 A 
ATOM      4  C   UNL     1       4.698   5.157  18.417  0.00  0.00    +0.000 A 
ATOM      5  C   UNL     1       4.715   3.953  19.132  0.00  0.00    +0.000 A 
ATOM      6  C   UNL     1       3.524   3.254  19.381  0.00  0.00    +0.000 A 
ENDROOT
BRANCH   1   8
ATOM      7  N   UNL     1       0.497   3.165  20.413  0.00  0.00    +0.000 N 
ATOM      8  C   UNL     1       1.049   3.005  19.172  0.00  0.00    +0.000 C 
ATOM      9  O   UNL     1       0.519   2.304  18.321  0.00  0.00    +0.000 OA
ATOM     10  H   UNL     1      -0.393   2.717  20.583  0.00  0.00    +0.000 HD
ATOM     11  H   UNL     1       0.787   3.895  21.048  0.00  0.00    +0.000 HD
ENDBRANCH   1   8
BRANCH   4  12
ATOM     12  N   UNL     1       5.919   5.835  18.207  0.00  0.00    +0.000 N 
ATOM     13  C   UNL     1       6.273   6.544  17.076  0.00  0.00    +0.000 C 
ATOM     14  O   UNL     1       5.603   6.693  16.061  0.00  0.00    +0.000 OA
ATOM     15  H   UNL     1       6.583   5.820  18.969  0.00  0.00    +0.000 HD
BRANCH  13  16
ATOM     16  C   UNL     1       7.610   7.205  17.153  0.00  0.00    +0.000 C 
ATOM     17  C   UNL     1       7.716   8.617  17.695  0.00  0.00    +0.000 C 
ATOM     18  C   UNL     1       8.223   7.464  18.511  0.00  0.00    +0.000 C 
ENDBRANCH  13  16
ENDBRANCH   4  12
TORSDOF 3
ENDMDL
MODEL 9
REMARK VINA RESULT:      -6.2      1.943      2.159
REMARK  Name = 
REMARK  3 active torsions:
REMARK  status: ('A' for Active; 'I' for Inactive)
REMARK    1  A    between atoms: C_2  and  C_4
REMARK    2  A    between atoms: C_7  and  N_8
REMARK    3  A    between atoms: C_9  and  C_11
REMARK                            x       y       z     vdW  Elec       q    Type
REMARK                         _______ _______ _______ _____ _____    ______ ____
ROOT
ATOM      1  C   UNL     1       6.121   4.464  15.847  0.00  0.00    +0.000 A 
ATOM      2  C   UNL     1       6.578   4.701  17.143  0.00  0.00    +0.000 A 
ATOM      3  C   UNL     1       5.768   4.397  18.237  0.00  0.00    +0.000 A 
ATOM      4  C   UNL     1       4.486   3.867  18.063  0.00  0.00    +0.000 A 
ATOM      5  C   UNL     1       4.027   3.638  16.760  0.00  0.00    +0.000 A 
ATOM      6  C   UNL     1       4.837   3.943  15.654  0.00  0.00    +0.000 A 
ENDROOT
BRANCH   1   8
ATOM      7  N   UNL     1       6.682   4.133  13.507  0.00  0.00    +0.000 N 
ATOM      8  C   UNL     1       6.969   4.789  14.672  0.00  0.00    +0.000 C 
ATOM      9  O   UNL     1       7.864   5.620  14.735  0.00  0.00    +0.000 OA
ATOM     10  H   UNL     1       7.211   4.397  12.687  0.00  0.00    +0.000 HD
ATOM     11  H   UNL     1       5.826   3.614  13.370  0.00  0.00    +0.000 HD
ENDBRANCH   1   8
BRANCH   4  12
ATOM     12  N   UNL     1       3.629   3.563  19.143  0.00  0.00    +0.000 N 
ATOM     13  C   UNL     1       3.877   2.645  20.146  0.00  0.00    +0.000 C 
ATOM     14  O   UNL     1       4.865   1.932  20.263  0.00  0.00    +0.000 OA
ATOM     15  H   UNL     1       2.766   4.086  19.199  0.00  0.00    +0.000 HD
BRANCH  13  16
ATOM     16  C   UNL     1       2.813   2.569  21.191  0.00  0.00    +0.000 C 
ATOM     17  C   UNL     1       2.226   3.849  21.755  0.00  0.00    +0.000 C 
ATOM     18  C   UNL     1       1.404   2.992  20.837  0.00  0.00    +0.000 C 
ENDBRANCH  13  16
ENDBRANCH   4  12
TORSDOF 3
ENDMDL
