MODEL 1
REMARK VINA RESULT:      -8.8      0.000      0.000
REMARK  Name = 
REMARK  6 active torsions:
REMARK  status: ('A' for Active; 'I' for Inactive)
REMARK    1  A    between atoms: C_2  and  C_4
REMARK    2  A    between atoms: C_7  and  C_8
REMARK    3  A    between atoms: C_8  and  N_9
REMARK    4  A    between atoms: C_12  and  O_13
REMARK    5  A    between atoms: O_13  and  C_14
REMARK    6  A    between atoms: C_14  and  C_15
REMARK                            x       y       z     vdW  Elec       q    Type
REMARK                         _______ _______ _______ _____ _____    ______ ____
ROOT
ATOM      1  N   UNL     1       6.470   5.387  17.331  0.00  0.00    +0.000 N 
ATOM      2  C   UNL     1       7.273   5.198  18.440  0.00  0.00    +0.000 A 
ATOM      3  C   UNL     1       8.031   6.183  18.930  0.00  0.00    +0.000 A 
ATOM      4  C   UNL     1       8.035   7.481  18.298  0.00  0.00    +0.000 A 
ATOM      5  C   UNL     1       7.305   7.685  17.189  0.00  0.00    +0.000 A 
ATOM      6  C   UNL     1       6.466   6.593  16.626  0.00  0.00    +0.000 A 
ATOM      7  O   UNL     1       5.796   6.807  15.619  0.00  0.00    +0.000 OA
ENDROOT
BRANCH   1   8
ATOM      8  C   UNL     1       5.462   4.372  17.011  0.00  0.00    +0.000 C 
BRANCH   8  12
ATOM      9  C   UNL     1       2.667   3.319  20.153  0.00  0.00    +0.000 A 
ATOM     10  C   UNL     1       3.626   2.406  19.708  0.00  0.00    +0.000 A 
ATOM     11  C   UNL     1       4.535   2.780  18.714  0.00  0.00    +0.000 A 
ATOM     12  C   UNL     1       4.486   4.057  18.122  0.00  0.00    +0.000 A 
ATOM     13  C   UNL     1       3.492   4.949  18.557  0.00  0.00    +0.000 A 
ATOM     14 CL   UNL     1       3.262   6.503  17.837  0.00  0.00    +0.000 Cl
ATOM     15  C   UNL     1       2.600   4.587  19.571  0.00  0.00    +0.000 A 
BRANCH   9  17
ATOM     16  N   UNL     1       0.371   2.852  20.820  0.00  0.00    +0.000 N 
ATOM     17  C   UNL     1       1.674   2.978  21.204  0.00  0.00    +0.000 C 
ATOM     18  O   UNL     1       2.012   2.780  22.363  0.00  0.00    +0.000 OA
ATOM     19  H   UNL     1      -0.271   2.509  21.526  0.00  0.00    +0.000 HD
ATOM     20  H   UNL     1       0.090   2.763  19.854  0.00  0.00    +0.000 HD
ENDBRANCH   9  17
ENDBRANCH   8  12
ENDBRANCH   1   8
BRANCH   4  21
ATOM     21  O   UNL     1       8.746   8.528  18.846  0.00  0.00    +0.000 OA
BRANCH  21  22
ATOM     22  C   UNL     1       8.572   9.815  18.250  0.00  0.00    +0.000 C 
BRANCH  22  23
ATOM     23  C   UNL     1       9.590  10.768  18.812  0.00  0.00    +0.000 A 
ATOM     24  C   UNL     1       9.621  11.060  20.182  0.00  0.00    +0.000 A 
ATOM     25  C   UNL     1      10.598  11.917  20.693  0.00  0.00    +0.000 A 
ATOM     26  C   UNL     1      11.551  12.478  19.842  0.00  0.00    +0.000 A 
ATOM     27  C   UNL     1      11.533  12.185  18.481  0.00  0.00    +0.000 A 
ATOM     28  C   UNL     1      10.557  11.331  17.968  0.00  0.00    +0.000 A 
ENDBRANCH  22  23
ENDBRANCH  21  22
ENDBRANCH   4  21
TORSDOF 6
ENDMDL
MODEL 2
REMARK VINA RESULT:      -8.4      1.469      1.982
REMARK  Name = 
REMARK  6 active torsions:
REMARK  status: ('A' for Active; 'I' for Inactive)
REMARK    1  A    between atoms: C_2  and  C_4
REMARK    2  A    between atoms: C_7  and  C_8
REMARK    3  A    between atoms: C_8  and  N_9
REMARK    4  A    between atoms: C_12  and  O_13
REMARK    5  A    between atoms: O_13  and  C_14
REMARK    6  A    between atoms: C_14  and  C_15
REMARK                            x       y       z     vdW  Elec       q    Type
REMARK                         _______ _______ _______ _____ _____    ______ ____
ROOT
ATOM      1  N   UNL     1       6.242   6.025  17.305  0.00  0.00    +0.000 N 
ATOM      2  C   UNL     1       6.186   7.339  16.881  0.00  0.00    +0.000 A 
ATOM      3  C   UNL     1       7.040   8.258  17.340  0.00  0.00    +0.000 A 
ATOM      4  C   UNL     1       8.049   7.895  18.307  0.00  0.00    +0.000 A 
ATOM      5  C   UNL     1       8.100   6.638  18.778  0.00  0.00    +0.000 A 
ATOM      6  C   UNL     1       7.146   5.608  18.285  0.00  0.00    +0.000 A 
ATOM      7  O   UNL     1       7.221   4.462  18.720  0.00  0.00    +0.000 OA
ENDROOT
BRANCH   1   8
ATOM      8  C   UNL     1       5.475   5.015  16.570  0.00  0.00    +0.000 C 
BRANCH   8  12
ATOM      9  C   UNL     1       2.060   3.262  18.586  0.00  0.00    +0.000 A 
ATOM     10  C   UNL     1       3.060   2.458  18.034  0.00  0.00    +0.000 A 
ATOM     11  C   UNL     1       4.166   3.048  17.414  0.00  0.00    +0.000 A 
ATOM     12  C   UNL     1       4.281   4.447  17.305  0.00  0.00    +0.000 A 
ATOM     13  C   UNL     1       3.248   5.239  17.834  0.00  0.00    +0.000 A 
ATOM     14 CL   UNL     1       3.222   6.959  17.671  0.00  0.00    +0.000 Cl
ATOM     15  C   UNL     1       2.156   4.652  18.480  0.00  0.00    +0.000 A 
BRANCH   9  17
ATOM     16  N   UNL     1       0.634   3.054  20.550  0.00  0.00    +0.000 N 
ATOM     17  C   UNL     1       0.862   2.693  19.254  0.00  0.00    +0.000 C 
ATOM     18  O   UNL     1       0.086   1.958  18.658  0.00  0.00    +0.000 OA
ATOM     19  H   UNL     1      -0.246   2.747  20.950  0.00  0.00    +0.000 HD
ATOM     20  H   UNL     1       1.098   3.835  20.992  0.00  0.00    +0.000 HD
ENDBRANCH   9  17
ENDBRANCH   8  12
ENDBRANCH   1   8
BRANCH   4  21
ATOM     21  O   UNL     1       8.990   8.815  18.721  0.00  0.00    +0.000 OA
BRANCH  21  22
ATOM     22  C   UNL     1       8.768  10.179  18.361  0.00  0.00    +0.000 C 
BRANCH  22  23
ATOM     23  C   UNL     1       9.963  11.001  18.757  0.00  0.00    +0.000 A 
ATOM     24  C   UNL     1      10.815  11.543  17.786  0.00  0.00    +0.000 A 
ATOM     25  C   UNL     1      11.898  12.337  18.169  0.00  0.00    +0.000 A 
ATOM     26  C   UNL     1      12.129  12.600  19.519  0.00  0.00    +0.000 A 
ATOM     27  C   UNL     1      11.281  12.072  20.490  0.00  0.00    +0.000 A 
ATOM     28  C   UNL     1      10.201  11.278  20.110  0.00  0.00    +0.000 A 
ENDBRANCH  22  23
ENDBRANCH  21  22
ENDBRANCH   4  21
TORSDOF 6
ENDMDL
MODEL 3
REMARK VINA RESULT:      -8.2      4.804      8.034
REMARK  Name = 
REMARK  6 active torsions:
REMARK  status: ('A' for Active; 'I' for Inactive)
REMARK    1  A    between atoms: C_2  and  C_4
REMARK    2  A    between atoms: C_7  and  C_8
REMARK    3  A    between atoms: C_8  and  N_9
REMARK    4  A    between atoms: C_12  and  O_13
REMARK    5  A    between atoms: O_13  and  C_14
REMARK    6  A    between atoms: C_14  and  C_15
REMARK                            x       y       z     vdW  Elec       q    Type
REMARK                         _______ _______ _______ _____ _____    ______ ____
ROOT
ATOM      1  N   UNL     1       3.733   4.875  18.417  0.00  0.00    +0.000 N 
ATOM      2  C   UNL     1       3.630   6.054  17.703  0.00  0.00    +0.000 A 
ATOM      3  C   UNL     1       2.971   7.110  18.188  0.00  0.00    +0.000 A 
ATOM      4  C   UNL     1       2.337   7.040  19.483  0.00  0.00    +0.000 A 
ATOM      5  C   UNL     1       2.374   5.894  20.182  0.00  0.00    +0.000 A 
ATOM      6  C   UNL     1       3.094   4.707  19.648  0.00  0.00    +0.000 A 
ATOM      7  O   UNL     1       3.126   3.674  20.312  0.00  0.00    +0.000 OA
ENDROOT
BRANCH   1   8
ATOM      8  C   UNL     1       4.690   3.861  17.967  0.00  0.00    +0.000 C 
BRANCH   8  12
ATOM      9  C   UNL     1       6.920   4.789  14.367  0.00  0.00    +0.000 A 
ATOM     10  C   UNL     1       5.660   4.191  14.298  0.00  0.00    +0.000 A 
ATOM     11  C   UNL     1       4.948   3.928  15.473  0.00  0.00    +0.000 A 
ATOM     12  C   UNL     1       5.490   4.227  16.737  0.00  0.00    +0.000 A 
ATOM     13  C   UNL     1       6.774   4.795  16.789  0.00  0.00    +0.000 A 
ATOM     14 CL   UNL     1       7.590   5.109  18.280  0.00  0.00    +0.000 Cl
ATOM     15  C   UNL     1       7.476   5.085  15.615  0.00  0.00    +0.000 A 
BRANCH   9  17
ATOM     16  N   UNL     1       7.347   4.494  11.988  0.00  0.00    +0.000 N 
ATOM     17  C   UNL     1       7.724   5.090  13.155  0.00  0.00    +0.000 C 
ATOM     18  O   UNL     1       8.665   5.872  13.189  0.00  0.00    +0.000 OA
ATOM     19  H   UNL     1       7.836   4.800  11.153  0.00  0.00    +0.000 HD
ATOM     20  H   UNL     1       6.449   4.049  11.863  0.00  0.00    +0.000 HD
ENDBRANCH   9  17
ENDBRANCH   8  12
ENDBRANCH   1   8
BRANCH   4  21
ATOM     21  O   UNL     1       1.730   8.151  20.030  0.00  0.00    +0.000 OA
BRANCH  21  22
ATOM     22  C   UNL     1       1.049   7.975  21.274  0.00  0.00    +0.000 C 
BRANCH  22  23
ATOM     23  C   UNL     1       0.260   9.214  21.592  0.00  0.00    +0.000 A 
ATOM     24  C   UNL     1      -0.028  10.157  20.598  0.00  0.00    +0.000 A 
ATOM     25  C   UNL     1      -0.795  11.283  20.901  0.00  0.00    +0.000 A 
ATOM     26  C   UNL     1      -1.285  11.468  22.195  0.00  0.00    +0.000 A 
ATOM     27  C   UNL     1      -1.011  10.530  23.187  0.00  0.00    +0.000 A 
ATOM     28  C   UNL     1      -0.243   9.406  22.886  0.00  0.00    +0.000 A 
ENDBRANCH  22  23
ENDBRANCH  21  22
ENDBRANCH   4  21
TORSDOF 6
ENDMDL
MODEL 4
REMARK VINA RESULT:      -8.1      5.236      8.598
REMARK  Name = 
REMARK  6 active torsions:
REMARK  status: ('A' for Active; 'I' for Inactive)
REMARK    1  A    between atoms: C_2  and  C_4
REMARK    2  A    between atoms: C_7  and  C_8
REMARK    3  A    between atoms: C_8  and  N_9
REMARK    4  A    between atoms: C_12  and  O_13
REMARK    5  A    between atoms: O_13  and  C_14
REMARK    6  A    between atoms: C_14  and  C_15
REMARK                            x       y       z     vdW  Elec       q    Type
REMARK                         _______ _______ _______ _____ _____    ______ ____
ROOT
ATOM      1  N   UNL     1       2.565   7.086  19.048  0.00  0.00    +0.000 N 
ATOM      2  C   UNL     1       2.634   7.771  17.850  0.00  0.00    +0.000 A 
ATOM      3  C   UNL     1       2.027   8.949  17.682  0.00  0.00    +0.000 A 
ATOM      4  C   UNL     1       1.270   9.538  18.761  0.00  0.00    +0.000 A 
ATOM      5  C   UNL     1       1.141   8.877  19.923  0.00  0.00    +0.000 A 
ATOM      6  C   UNL     1       1.801   7.557  20.118  0.00  0.00    +0.000 A 
ATOM      7  O   UNL     1       1.680   6.978  21.195  0.00  0.00    +0.000 OA
ENDROOT
BRANCH   1   8
ATOM      8  C   UNL     1       3.468   5.952  19.264  0.00  0.00    +0.000 C 
BRANCH   8  12
ATOM      9  C   UNL     1       5.968   5.017  15.847  0.00  0.00    +0.000 A 
ATOM     10  C   UNL     1       6.278   6.083  16.695  0.00  0.00    +0.000 A 
ATOM     11  C   UNL     1       5.472   6.347  17.806  0.00  0.00    +0.000 A 
ATOM     12  C   UNL     1       4.326   5.574  18.077  0.00  0.00    +0.000 A 
ATOM     13  C   UNL     1       4.010   4.529  17.193  0.00  0.00    +0.000 A 
ATOM     14 CL   UNL     1       2.576   3.578  17.357  0.00  0.00    +0.000 Cl
ATOM     15  C   UNL     1       4.830   4.246  16.097  0.00  0.00    +0.000 A 
BRANCH   9  17
ATOM     16  N   UNL     1       6.408   3.609  13.909  0.00  0.00    +0.000 N 
ATOM     17  C   UNL     1       6.785   4.691  14.650  0.00  0.00    +0.000 C 
ATOM     18  O   UNL     1       7.736   5.385  14.316  0.00  0.00    +0.000 OA
ATOM     19  H   UNL     1       6.907   3.471  13.036  0.00  0.00    +0.000 HD
ATOM     20  H   UNL     1       5.505   3.167  14.003  0.00  0.00    +0.000 HD
ENDBRANCH   9  17
ENDBRANCH   8  12
ENDBRANCH   1   8
BRANCH   4  21
ATOM     21  O   UNL     1       0.714  10.793  18.628  0.00  0.00    +0.000 OA
BRANCH  21  22
ATOM     22  C   UNL     1      -0.504  11.043  19.331  0.00  0.00    +0.000 C 
BRANCH  22  23
ATOM     23  C   UNL     1      -1.667  10.885  18.391  0.00  0.00    +0.000 A 
ATOM     24  C   UNL     1      -2.843  11.623  18.574  0.00  0.00    +0.000 A 
ATOM     25  C   UNL     1      -3.899  11.493  17.670  0.00  0.00    +0.000 A 
ATOM     26  C   UNL     1      -3.782  10.634  16.577  0.00  0.00    +0.000 A 
ATOM     27  C   UNL     1      -2.612   9.904  16.383  0.00  0.00    +0.000 A 
ATOM     28  C   UNL     1      -1.557  10.031  17.286  0.00  0.00    +0.000 A 
ENDBRANCH  22  23
ENDBRANCH  21  22
ENDBRANCH   4  21
TORSDOF 6
ENDMDL
MODEL 5
REMARK VINA RESULT:      -8.1      1.169      1.583
REMARK  Name = 
REMARK  6 active torsions:
REMARK  status: ('A' for Active; 'I' for Inactive)
REMARK    1  A    between atoms: C_2  and  C_4
REMARK    2  A    between atoms: C_7  and  C_8
REMARK    3  A    between atoms: C_8  and  N_9
REMARK    4  A    between atoms: C_12  and  O_13
REMARK    5  A    between atoms: O_13  and  C_14
REMARK    6  A    between atoms: C_14  and  C_15
REMARK                            x       y       z     vdW  Elec       q    Type
REMARK                         _______ _______ _______ _____ _____    ______ ____
ROOT
ATOM      1  N   UNL     1       6.619   5.981  17.924  0.00  0.00    +0.000 N 
ATOM      2  C   UNL     1       6.252   7.053  17.134  0.00  0.00    +0.000 A 
ATOM      3  C   UNL     1       6.920   8.209  17.170  0.00  0.00    +0.000 A 
ATOM      4  C   UNL     1       8.051   8.368  18.053  0.00  0.00    +0.000 A 
ATOM      5  C   UNL     1       8.404   7.364  18.871  0.00  0.00    +0.000 A 
ATOM      6  C   UNL     1       7.660   6.076  18.850  0.00  0.00    +0.000 A 
ATOM      7  O   UNL     1       8.011   5.166  19.598  0.00  0.00    +0.000 OA
ENDROOT
BRANCH   1   8
ATOM      8  C   UNL     1       6.034   4.666  17.643  0.00  0.00    +0.000 C 
BRANCH   8  12
ATOM      9  C   UNL     1       2.737   3.394  20.155  0.00  0.00    +0.000 A 
ATOM     10  C   UNL     1       3.936   2.679  20.125  0.00  0.00    +0.000 A 
ATOM     11  C   UNL     1       4.995   3.125  19.328  0.00  0.00    +0.000 A 
ATOM     12  C   UNL     1       4.869   4.275  18.524  0.00  0.00    +0.000 A 
ATOM     13  C   UNL     1       3.644   4.961  18.540  0.00  0.00    +0.000 A 
ATOM     14 CL   UNL     1       3.330   6.321  17.520  0.00  0.00    +0.000 Cl
ATOM     15  C   UNL     1       2.593   4.532  19.357  0.00  0.00    +0.000 A 
BRANCH   9  17
ATOM     16  N   UNL     1       0.353   2.948  20.377  0.00  0.00    +0.000 N 
ATOM     17  C   UNL     1       1.578   2.967  20.979  0.00  0.00    +0.000 C 
ATOM     18  O   UNL     1       1.716   2.609  22.141  0.00  0.00    +0.000 OA
ATOM     19  H   UNL     1      -0.404   2.546  20.921  0.00  0.00    +0.000 HD
ATOM     20  H   UNL     1       0.233   2.994  19.376  0.00  0.00    +0.000 HD
ENDBRANCH   9  17
ENDBRANCH   8  12
ENDBRANCH   1   8
BRANCH   4  21
ATOM     21  O   UNL     1       8.801   9.526  18.035  0.00  0.00    +0.000 OA
BRANCH  21  22
ATOM     22  C   UNL     1       9.221  10.049  19.295  0.00  0.00    +0.000 C 
BRANCH  22  23
ATOM     23  C   UNL     1      10.208  11.161  19.072  0.00  0.00    +0.000 A 
ATOM     24  C   UNL     1      10.810  11.815  20.155  0.00  0.00    +0.000 A 
ATOM     25  C   UNL     1      11.753  12.820  19.930  0.00  0.00    +0.000 A 
ATOM     26  C   UNL     1      12.105  13.169  18.625  0.00  0.00    +0.000 A 
ATOM     27  C   UNL     1      11.518  12.517  17.544  0.00  0.00    +0.000 A 
ATOM     28  C   UNL     1      10.574  11.515  17.767  0.00  0.00    +0.000 A 
ENDBRANCH  22  23
ENDBRANCH  21  22
ENDBRANCH   4  21
TORSDOF 6
ENDMDL
MODEL 6
REMARK VINA RESULT:      -8.0      4.657      7.907
REMARK  Name = 
REMARK  6 active torsions:
REMARK  status: ('A' for Active; 'I' for Inactive)
REMARK    1  A    between atoms: C_2  and  C_4
REMARK    2  A    between atoms: C_7  and  C_8
REMARK    3  A    between atoms: C_8  and  N_9
REMARK    4  A    between atoms: C_12  and  O_13
REMARK    5  A    between atoms: O_13  and  C_14
REMARK    6  A    between atoms: C_14  and  C_15
REMARK                            x       y       z     vdW  Elec       q    Type
REMARK                         _______ _______ _______ _____ _____    ______ ____
ROOT
ATOM      1  N   UNL     1       3.800   4.667  19.184  0.00  0.00    +0.000 N 
ATOM      2  C   UNL     1       3.777   5.977  18.745  0.00  0.00    +0.000 A 
ATOM      3  C   UNL     1       2.920   6.869  19.250  0.00  0.00    +0.000 A 
ATOM      4  C   UNL     1       1.982   6.476  20.274  0.00  0.00    +0.000 A 
ATOM      5  C   UNL     1       1.943   5.200  20.689  0.00  0.00    +0.000 A 
ATOM      6  C   UNL     1       2.883   4.194  20.125  0.00  0.00    +0.000 A 
ATOM      7  O   UNL     1       2.838   3.035  20.531  0.00  0.00    +0.000 OA
ENDROOT
BRANCH   1   8
ATOM      8  C   UNL     1       4.931   3.816  18.802  0.00  0.00    +0.000 C 
BRANCH   8  12
ATOM      9  C   UNL     1       6.690   4.623  14.923  0.00  0.00    +0.000 A 
ATOM     10  C   UNL     1       5.490   3.919  15.036  0.00  0.00    +0.000 A 
ATOM     11  C   UNL     1       4.928   3.696  16.296  0.00  0.00    +0.000 A 
ATOM     12  C   UNL     1       5.566   4.144  17.469  0.00  0.00    +0.000 A 
ATOM     13  C   UNL     1       6.791   4.819  17.339  0.00  0.00    +0.000 A 
ATOM     14 CL   UNL     1       7.721   5.323  18.705  0.00  0.00    +0.000 Cl
ATOM     15  C   UNL     1       7.340   5.067  16.078  0.00  0.00    +0.000 A 
BRANCH   9  17
ATOM     16  N   UNL     1       6.840   4.232  12.523  0.00  0.00    +0.000 N 
ATOM     17  C   UNL     1       7.336   4.888  13.612  0.00  0.00    +0.000 C 
ATOM     18  O   UNL     1       8.253   5.691  13.501  0.00  0.00    +0.000 OA
ATOM     19  H   UNL     1       7.218   4.511  11.624  0.00  0.00    +0.000 HD
ATOM     20  H   UNL     1       5.946   3.763  12.526  0.00  0.00    +0.000 HD
ENDBRANCH   9  17
ENDBRANCH   8  12
ENDBRANCH   1   8
BRANCH   4  21
ATOM     21  O   UNL     1       1.154   7.409  20.864  0.00  0.00    +0.000 OA
BRANCH  21  22
ATOM     22  C   UNL     1       1.263   8.757  20.407  0.00  0.00    +0.000 C 
BRANCH  22  23
ATOM     23  C   UNL     1       0.323   9.630  21.192  0.00  0.00    +0.000 A 
ATOM     24  C   UNL     1       0.020   9.338  22.528  0.00  0.00    +0.000 A 
ATOM     25  C   UNL     1      -0.824  10.180  23.255  0.00  0.00    +0.000 A 
ATOM     26  C   UNL     1      -1.361  11.319  22.655  0.00  0.00    +0.000 A 
ATOM     27  C   UNL     1      -1.057  11.620  21.329  0.00  0.00    +0.000 A 
ATOM     28  C   UNL     1      -0.216  10.780  20.602  0.00  0.00    +0.000 A 
ENDBRANCH  22  23
ENDBRANCH  21  22
ENDBRANCH   4  21
TORSDOF 6
ENDMDL
MODEL 7
REMARK VINA RESULT:      -8.0      4.592      7.979
REMARK  Name = 
REMARK  6 active torsions:
REMARK  status: ('A' for Active; 'I' for Inactive)
REMARK    1  A    between atoms: C_2  and  C_4
REMARK    2  A    between atoms: C_7  and  C_8
REMARK    3  A    between atoms: C_8  and  N_9
REMARK    4  A    between atoms: C_12  and  O_13
REMARK    5  A    between atoms: O_13  and  C_14
REMARK    6  A    between atoms: C_14  and  C_15
REMARK                            x       y       z     vdW  Elec       q    Type
REMARK                         _______ _______ _______ _____ _____    ______ ____
ROOT
ATOM      1  N   UNL     1       3.679   4.918  19.521  0.00  0.00    +0.000 N 
ATOM      2  C   UNL     1       3.603   6.219  19.060  0.00  0.00    +0.000 A 
ATOM      3  C   UNL     1       2.667   7.063  19.500  0.00  0.00    +0.000 A 
ATOM      4  C   UNL     1       1.695   6.627  20.475  0.00  0.00    +0.000 A 
ATOM      5  C   UNL     1       1.708   5.356  20.907  0.00  0.00    +0.000 A 
ATOM      6  C   UNL     1       2.739   4.402  20.415  0.00  0.00    +0.000 A 
ATOM      7  O   UNL     1       2.739   3.247  20.835  0.00  0.00    +0.000 OA
ENDROOT
BRANCH   1   8
ATOM      8  C   UNL     1       4.879   4.133  19.219  0.00  0.00    +0.000 C 
BRANCH   8  12
ATOM      9  C   UNL     1       6.481   4.606  15.217  0.00  0.00    +0.000 A 
ATOM     10  C   UNL     1       5.278   3.931  15.436  0.00  0.00    +0.000 A 
ATOM     11  C   UNL     1       4.768   3.817  16.732  0.00  0.00    +0.000 A 
ATOM     12  C   UNL     1       5.461   4.345  17.839  0.00  0.00    +0.000 A 
ATOM     13  C   UNL     1       6.687   4.989  17.604  0.00  0.00    +0.000 A 
ATOM     14 CL   UNL     1       7.681   5.584  18.886  0.00  0.00    +0.000 Cl
ATOM     15  C   UNL     1       7.185   5.128  16.305  0.00  0.00    +0.000 A 
BRANCH   9  17
ATOM     16  N   UNL     1       6.589   3.953  12.873  0.00  0.00    +0.000 N 
ATOM     17  C   UNL     1       7.073   4.756  13.864  0.00  0.00    +0.000 C 
ATOM     18  O   UNL     1       7.936   5.593  13.633  0.00  0.00    +0.000 OA
ATOM     19  H   UNL     1       6.924   4.150  11.936  0.00  0.00    +0.000 HD
ATOM     20  H   UNL     1       5.726   3.436  12.959  0.00  0.00    +0.000 HD
ENDBRANCH   9  17
ENDBRANCH   8  12
ENDBRANCH   1   8
BRANCH   4  21
ATOM     21  O   UNL     1       0.779   7.514  21.001  0.00  0.00    +0.000 OA
BRANCH  21  22
ATOM     22  C   UNL     1       1.291   8.574  21.811  0.00  0.00    +0.000 C 
BRANCH  22  23
ATOM     23  C   UNL     1       0.304   9.707  21.834  0.00  0.00    +0.000 A 
ATOM     24  C   UNL     1      -0.004  10.415  20.665  0.00  0.00    +0.000 A 
ATOM     25  C   UNL     1      -0.952  11.440  20.696  0.00  0.00    +0.000 A 
ATOM     26  C   UNL     1      -1.601  11.756  21.890  0.00  0.00    +0.000 A 
ATOM     27  C   UNL     1      -1.307  11.051  23.054  0.00  0.00    +0.000 A 
ATOM     28  C   UNL     1      -0.360  10.029  23.026  0.00  0.00    +0.000 A 
ENDBRANCH  22  23
ENDBRANCH  21  22
ENDBRANCH   4  21
TORSDOF 6
ENDMDL
MODEL 8
REMARK VINA RESULT:      -7.9      4.754      7.979
REMARK  Name = 
REMARK  6 active torsions:
REMARK  status: ('A' for Active; 'I' for Inactive)
REMARK    1  A    between atoms: C_2  and  C_4
REMARK    2  A    between atoms: C_7  and  C_8
REMARK    3  A    between atoms: C_8  and  N_9
REMARK    4  A    between atoms: C_12  and  O_13
REMARK    5  A    between atoms: O_13  and  C_14
REMARK    6  A    between atoms: C_14  and  C_15
REMARK                            x       y       z     vdW  Elec       q    Type
REMARK                         _______ _______ _______ _____ _____    ______ ____
ROOT
ATOM      1  N   UNL     1       3.646   4.959  19.624  0.00  0.00    +0.000 N 
ATOM      2  C   UNL     1       3.572   6.257  19.156  0.00  0.00    +0.000 A 
ATOM      3  C   UNL     1       2.615   7.094  19.564  0.00  0.00    +0.000 A 
ATOM      4  C   UNL     1       1.617   6.652  20.510  0.00  0.00    +0.000 A 
ATOM      5  C   UNL     1       1.629   5.383  20.947  0.00  0.00    +0.000 A 
ATOM      6  C   UNL     1       2.683   4.437  20.490  0.00  0.00    +0.000 A 
ATOM      7  O   UNL     1       2.681   3.284  20.915  0.00  0.00    +0.000 OA
ENDROOT
BRANCH   1   8
ATOM      8  C   UNL     1       4.862   4.184  19.362  0.00  0.00    +0.000 C 
BRANCH   8  12
ATOM      9  C   UNL     1       6.434   4.505  15.334  0.00  0.00    +0.000 A 
ATOM     10  C   UNL     1       7.194   4.901  16.436  0.00  0.00    +0.000 A 
ATOM     11  C   UNL     1       6.676   4.761  17.727  0.00  0.00    +0.000 A 
ATOM     12  C   UNL     1       5.380   4.253  17.943  0.00  0.00    +0.000 A 
ATOM     13  C   UNL     1       4.616   3.893  16.820  0.00  0.00    +0.000 A 
ATOM     14 CL   UNL     1       2.978   3.358  16.946  0.00  0.00    +0.000 Cl
ATOM     15  C   UNL     1       5.143   4.006  15.530  0.00  0.00    +0.000 A 
BRANCH   9  17
ATOM     16  N   UNL     1       7.913   5.548  13.704  0.00  0.00    +0.000 N 
ATOM     17  C   UNL     1       6.929   4.632  13.940  0.00  0.00    +0.000 C 
ATOM     18  O   UNL     1       6.502   3.920  13.041  0.00  0.00    +0.000 OA
ATOM     19  H   UNL     1       8.316   5.539  12.773  0.00  0.00    +0.000 HD
ATOM     20  H   UNL     1       8.458   5.970  14.442  0.00  0.00    +0.000 HD
ENDBRANCH   9  17
ENDBRANCH   8  12
ENDBRANCH   1   8
BRANCH   4  21
ATOM     21  O   UNL     1       0.677   7.533  21.004  0.00  0.00    +0.000 OA
BRANCH  21  22
ATOM     22  C   UNL     1       1.137   8.528  21.920  0.00  0.00    +0.000 C 
BRANCH  22  23
ATOM     23  C   UNL     1       0.200   9.704  21.892  0.00  0.00    +0.000 A 
ATOM     24  C   UNL     1      -0.113  10.344  20.686  0.00  0.00    +0.000 A 
ATOM     25  C   UNL     1      -1.014  11.410  20.673  0.00  0.00    +0.000 A 
ATOM     26  C   UNL     1      -1.613  11.835  21.859  0.00  0.00    +0.000 A 
ATOM     27  C   UNL     1      -1.314  11.197  23.061  0.00  0.00    +0.000 A 
ATOM     28  C   UNL     1      -0.412  10.134  23.077  0.00  0.00    +0.000 A 
ENDBRANCH  22  23
ENDBRANCH  21  22
ENDBRANCH   4  21
TORSDOF 6
ENDMDL
MODEL 9
REMARK VINA RESULT:      -7.8      0.962      1.228
REMARK  Name = 
REMARK  6 active torsions:
REMARK  status: ('A' for Active; 'I' for Inactive)
REMARK    1  A    between atoms: C_2  and  C_4
REMARK    2  A    between atoms: C_7  and  C_8
REMARK    3  A    between atoms: C_8  and  N_9
REMARK    4  A    between atoms: C_12  and  O_13
REMARK    5  A    between atoms: O_13  and  C_14
REMARK    6  A    between atoms: C_14  and  C_15
REMARK                            x       y       z     vdW  Elec       q    Type
REMARK                         _______ _______ _______ _____ _____    ______ ____
ROOT
ATOM      1  N   UNL     1       6.434   5.349  17.215  0.00  0.00    +0.000 N 
ATOM      2  C   UNL     1       7.237   5.193  18.328  0.00  0.00    +0.000 A 
ATOM      3  C   UNL     1       7.958   6.205  18.818  0.00  0.00    +0.000 A 
ATOM      4  C   UNL     1       7.920   7.500  18.181  0.00  0.00    +0.000 A 
ATOM      5  C   UNL     1       7.189   7.674  17.068  0.00  0.00    +0.000 A 
ATOM      6  C   UNL     1       6.392   6.551  16.505  0.00  0.00    +0.000 A 
ATOM      7  O   UNL     1       5.720   6.739  15.493  0.00  0.00    +0.000 OA
ENDROOT
BRANCH   1   8
ATOM      8  C   UNL     1       5.464   4.299  16.893  0.00  0.00    +0.000 C 
BRANCH   8  12
ATOM      9  C   UNL     1       2.548   3.306  19.944  0.00  0.00    +0.000 A 
ATOM     10  C   UNL     1       3.466   2.356  19.490  0.00  0.00    +0.000 A 
ATOM     11  C   UNL     1       4.415   2.709  18.526  0.00  0.00    +0.000 A 
ATOM     12  C   UNL     1       4.448   4.004  17.974  0.00  0.00    +0.000 A 
ATOM     13  C   UNL     1       3.494   4.936  18.417  0.00  0.00    +0.000 A 
ATOM     14 CL   UNL     1       3.364   6.521  17.742  0.00  0.00    +0.000 Cl
ATOM     15  C   UNL     1       2.562   4.593  19.401  0.00  0.00    +0.000 A 
BRANCH   9  17
ATOM     16  N   UNL     1       1.947   2.691  22.223  0.00  0.00    +0.000 N 
ATOM     17  C   UNL     1       1.516   2.989  20.963  0.00  0.00    +0.000 C 
ATOM     18  O   UNL     1       0.321   3.029  20.699  0.00  0.00    +0.000 OA
ATOM     19  H   UNL     1       1.225   2.591  22.929  0.00  0.00    +0.000 HD
ATOM     20  H   UNL     1       2.885   2.886  22.542  0.00  0.00    +0.000 HD
ENDBRANCH   9  17
ENDBRANCH   8  12
ENDBRANCH   1   8
BRANCH   4  21
ATOM     21  O   UNL     1       8.591   8.574  18.729  0.00  0.00    +0.000 OA
BRANCH  21  22
ATOM     22  C   UNL     1       8.681   9.758  17.936  0.00  0.00    +0.000 C 
BRANCH  22  23
ATOM     23  C   UNL     1       9.138  10.903  18.796  0.00  0.00    +0.000 A 
ATOM     24  C   UNL     1       9.027  12.226  18.350  0.00  0.00    +0.000 A 
ATOM     25  C   UNL     1       9.420  13.280  19.177  0.00  0.00    +0.000 A 
ATOM     26  C   UNL     1       9.917  13.019  20.454  0.00  0.00    +0.000 A 
ATOM     27  C   UNL     1      10.023  11.706  20.908  0.00  0.00    +0.000 A 
ATOM     28  C   UNL     1       9.632  10.653  20.083  0.00  0.00    +0.000 A 
ENDBRANCH  22  23
ENDBRANCH  21  22
ENDBRANCH   4  21
TORSDOF 6
ENDMDL
