MODEL 1
REMARK VINA RESULT:      -8.6      0.000      0.000
REMARK  Name = 
REMARK  13 active torsions:
REMARK  status: ('A' for Active; 'I' for Inactive)
REMARK    1  A    between atoms: C_1  and  C_2
REMARK    2  A    between atoms: C_5  and  C_6
REMARK    3  A    between atoms: C_7  and  C_8
REMARK    4  A    between atoms: C_10  and  O_11
REMARK    5  A    between atoms: O_11  and  C_12
REMARK    6  A    between atoms: C_12  and  C_13
REMARK    7  A    between atoms: C_13  and  C_14
REMARK    8  A    between atoms: C_14  and  C_15
REMARK    9  A    between atoms: C_15  and  C_16
REMARK   10  A    between atoms: C_16  and  C_17
REMARK   11  A    between atoms: N_19  and  O_20
REMARK   12  A    between atoms: C_22  and  C_23
REMARK   13  A    between atoms: C_23  and  C_25
REMARK                            x       y       z     vdW  Elec       q    Type
REMARK                         _______ _______ _______ _____ _____    ______ ____
ROOT
ATOM      1  C   UNL     1       4.741   6.330  17.792  0.00  0.00    +0.000 A 
ATOM      2  C   UNL     1       4.505   5.379  18.789  0.00  0.00    +0.000 A 
ATOM      3  C   UNL     1       3.388   5.465  19.621  0.00  0.00    +0.000 A 
ATOM      4  C   UNL     1       2.526   6.555  19.520  0.00  0.00    +0.000 A 
ATOM      5  C   UNL     1       2.741   7.516  18.532  0.00  0.00    +0.000 A 
ATOM      6  C   UNL     1       3.853   7.407  17.684  0.00  0.00    +0.000 A 
ENDROOT
BRANCH   1  13
ATOM      7  C   UNL     1       5.014   4.589  14.963  0.00  0.00    +0.000 C 
ATOM      8  C   UNL     1       6.004   5.442  15.665  0.00  0.00    +0.000 A 
ATOM      9  N   UNL     1       7.227   5.584  15.141  0.00  0.00    +0.000 NA
ATOM     10  O   UNL     1       7.902   6.441  15.980  0.00  0.00    +0.000 OA
ATOM     11  C   UNL     1       7.094   6.810  17.011  0.00  0.00    +0.000 A 
ATOM     12  C   UNL     1       7.717   7.718  17.998  0.00  0.00    +0.000 C 
ATOM     13  C   UNL     1       5.859   6.201  16.866  0.00  0.00    +0.000 A 
ENDBRANCH   1  13
BRANCH   5  14
ATOM     14  C   UNL     1       1.770   8.639  18.422  0.00  0.00    +0.000 C 
ATOM     15  O   UNL     1       1.539   9.117  17.315  0.00  0.00    +0.000 OA
BRANCH  14  16
ATOM     16  C   UNL     1       1.073   9.192  19.610  0.00  0.00    +0.000 A 
ATOM     17  C   UNL     1       0.165  10.242  19.422  0.00  0.00    +0.000 A 
ATOM     18  C   UNL     1      -0.542  10.759  20.508  0.00  0.00    +0.000 A 
ATOM     19  C   UNL     1      -0.341  10.234  21.785  0.00  0.00    +0.000 A 
ATOM     20  C   UNL     1       0.587   9.213  21.984  0.00  0.00    +0.000 A 
ATOM     21  C   UNL     1       1.310   8.707  20.904  0.00  0.00    +0.000 A 
ENDBRANCH  14  16
ENDBRANCH   5  14
BRANCH   3  22
ATOM     22  O   UNL     1       3.232   4.424  20.493  0.00  0.00    +0.000 OA
BRANCH  22  23
ATOM     23  C   UNL     1       2.095   4.525  21.352  0.00  0.00    +0.000 C 
BRANCH  23  24
ATOM     24  C   UNL     1       1.193   3.325  21.089  0.00  0.00    +0.000 C 
BRANCH  24  25
ATOM     25  C   UNL     1       0.806   3.247  19.615  0.00  0.00    +0.000 C 
BRANCH  25  26
ATOM     26  C   UNL     1       1.194   1.898  19.018  0.00  0.00    +0.000 C 
BRANCH  26  27
ATOM     27  C   UNL     1       2.062   2.062  17.773  0.00  0.00    +0.000 C 
BRANCH  27  28
ATOM     28  C   UNL     1       3.530   2.158  18.126  0.00  0.00    +0.000 C 
ATOM     29  O   UNL     1       4.419   2.484  17.340  0.00  0.00    +0.000 OA
ATOM     30  N   UNL     1       3.807   1.833  19.429  0.00  0.00    +0.000 N 
ATOM     31  H   UNL     1       3.117   1.675  20.156  0.00  0.00    +0.000 HD
BRANCH  30  32
ATOM     32  O   UNL     1       5.157   1.947  19.828  0.00  0.00    +0.000 OA
ATOM     33  H   UNL     1       5.488   2.660  19.237  0.00  0.00    +0.000 HD
ENDBRANCH  30  32
ENDBRANCH  27  28
ENDBRANCH  26  27
ENDBRANCH  25  26
ENDBRANCH  24  25
ENDBRANCH  23  24
ENDBRANCH  22  23
ENDBRANCH   3  22
TORSDOF 11
ENDMDL
MODEL 2
REMARK VINA RESULT:      -8.6      1.620      2.291
REMARK  Name = 
REMARK  13 active torsions:
REMARK  status: ('A' for Active; 'I' for Inactive)
REMARK    1  A    between atoms: C_1  and  C_2
REMARK    2  A    between atoms: C_5  and  C_6
REMARK    3  A    between atoms: C_7  and  C_8
REMARK    4  A    between atoms: C_10  and  O_11
REMARK    5  A    between atoms: O_11  and  C_12
REMARK    6  A    between atoms: C_12  and  C_13
REMARK    7  A    between atoms: C_13  and  C_14
REMARK    8  A    between atoms: C_14  and  C_15
REMARK    9  A    between atoms: C_15  and  C_16
REMARK   10  A    between atoms: C_16  and  C_17
REMARK   11  A    between atoms: N_19  and  O_20
REMARK   12  A    between atoms: C_22  and  C_23
REMARK   13  A    between atoms: C_23  and  C_25
REMARK                            x       y       z     vdW  Elec       q    Type
REMARK                         _______ _______ _______ _____ _____    ______ ____
ROOT
ATOM      1  C   UNL     1       4.271   5.337  17.428  0.00  0.00    +0.000 A 
ATOM      2  C   UNL     1       3.286   4.346  17.419  0.00  0.00    +0.000 A 
ATOM      3  C   UNL     1       1.941   4.661  17.615  0.00  0.00    +0.000 A 
ATOM      4  C   UNL     1       1.567   5.971  17.904  0.00  0.00    +0.000 A 
ATOM      5  C   UNL     1       2.533   6.977  17.919  0.00  0.00    +0.000 A 
ATOM      6  C   UNL     1       3.879   6.654  17.695  0.00  0.00    +0.000 A 
ENDROOT
BRANCH   1  13
ATOM      7  C   UNL     1       6.949   5.403  19.411  0.00  0.00    +0.000 C 
ATOM      8  C   UNL     1       6.829   5.073  17.970  0.00  0.00    +0.000 A 
ATOM      9  N   UNL     1       7.930   4.739  17.287  0.00  0.00    +0.000 NA
ATOM     10  O   UNL     1       7.511   4.461  16.006  0.00  0.00    +0.000 OA
ATOM     11  C   UNL     1       6.165   4.632  15.913  0.00  0.00    +0.000 A 
ATOM     12  C   UNL     1       5.595   4.383  14.570  0.00  0.00    +0.000 C 
ATOM     13  C   UNL     1       5.667   5.026  17.142  0.00  0.00    +0.000 A 
ENDBRANCH   1  13
BRANCH   5  14
ATOM     14  C   UNL     1       2.089   8.374  18.182  0.00  0.00    +0.000 C 
ATOM     15  O   UNL     1       2.297   9.233  17.330  0.00  0.00    +0.000 OA
BRANCH  14  16
ATOM     16  C   UNL     1       1.400   8.753  19.440  0.00  0.00    +0.000 A 
ATOM     17  C   UNL     1       0.507   9.832  19.413  0.00  0.00    +0.000 A 
ATOM     18  C   UNL     1      -0.192  10.192  20.566  0.00  0.00    +0.000 A 
ATOM     19  C   UNL     1       0.001   9.479  21.749  0.00  0.00    +0.000 A 
ATOM     20  C   UNL     1       0.914   8.426  21.792  0.00  0.00    +0.000 A 
ATOM     21  C   UNL     1       1.630   8.077  20.647  0.00  0.00    +0.000 A 
ENDBRANCH  14  16
ENDBRANCH   5  14
BRANCH   3  22
ATOM     22  O   UNL     1       1.074   3.611  17.493  0.00  0.00    +0.000 OA
BRANCH  22  23
ATOM     23  C   UNL     1       0.579   3.095  18.730  0.00  0.00    +0.000 C 
BRANCH  23  24
ATOM     24  C   UNL     1       1.239   3.869  19.865  0.00  0.00    +0.000 C 
BRANCH  24  25
ATOM     25  C   UNL     1       1.305   3.024  21.134  0.00  0.00    +0.000 C 
BRANCH  25  26
ATOM     26  C   UNL     1       2.750   2.790  21.561  0.00  0.00    +0.000 C 
BRANCH  26  27
ATOM     27  C   UNL     1       3.725   3.043  20.412  0.00  0.00    +0.000 C 
BRANCH  27  28
ATOM     28  C   UNL     1       4.156   1.752  19.753  0.00  0.00    +0.000 C 
ATOM     29  O   UNL     1       3.648   1.282  18.736  0.00  0.00    +0.000 OA
ATOM     30  N   UNL     1       5.184   1.117  20.402  0.00  0.00    +0.000 N 
ATOM     31  H   UNL     1       5.725   1.503  21.168  0.00  0.00    +0.000 HD
BRANCH  30  32
ATOM     32  O   UNL     1       5.658  -0.073  19.807  0.00  0.00    +0.000 OA
ATOM     33  H   UNL     1       4.835  -0.605  19.725  0.00  0.00    +0.000 HD
ENDBRANCH  30  32
ENDBRANCH  27  28
ENDBRANCH  26  27
ENDBRANCH  25  26
ENDBRANCH  24  25
ENDBRANCH  23  24
ENDBRANCH  22  23
ENDBRANCH   3  22
TORSDOF 11
ENDMDL
MODEL 3
REMARK VINA RESULT:      -8.4      1.453      1.867
REMARK  Name = 
REMARK  13 active torsions:
REMARK  status: ('A' for Active; 'I' for Inactive)
REMARK    1  A    between atoms: C_1  and  C_2
REMARK    2  A    between atoms: C_5  and  C_6
REMARK    3  A    between atoms: C_7  and  C_8
REMARK    4  A    between atoms: C_10  and  O_11
REMARK    5  A    between atoms: O_11  and  C_12
REMARK    6  A    between atoms: C_12  and  C_13
REMARK    7  A    between atoms: C_13  and  C_14
REMARK    8  A    between atoms: C_14  and  C_15
REMARK    9  A    between atoms: C_15  and  C_16
REMARK   10  A    between atoms: C_16  and  C_17
REMARK   11  A    between atoms: N_19  and  O_20
REMARK   12  A    between atoms: C_22  and  C_23
REMARK   13  A    between atoms: C_23  and  C_25
REMARK                            x       y       z     vdW  Elec       q    Type
REMARK                         _______ _______ _______ _____ _____    ______ ____
ROOT
ATOM      1  C   UNL     1       4.422   5.369  17.311  0.00  0.00    +0.000 A 
ATOM      2  C   UNL     1       3.508   4.317  17.421  0.00  0.00    +0.000 A 
ATOM      3  C   UNL     1       2.163   4.554  17.709  0.00  0.00    +0.000 A 
ATOM      4  C   UNL     1       1.724   5.850  17.970  0.00  0.00    +0.000 A 
ATOM      5  C   UNL     1       2.618   6.916  17.865  0.00  0.00    +0.000 A 
ATOM      6  C   UNL     1       3.962   6.669  17.551  0.00  0.00    +0.000 A 
ENDROOT
BRANCH   1  13
ATOM      7  C   UNL     1       5.732   4.437  14.392  0.00  0.00    +0.000 C 
ATOM      8  C   UNL     1       6.386   4.712  15.694  0.00  0.00    +0.000 A 
ATOM      9  N   UNL     1       7.715   4.586  15.793  0.00  0.00    +0.000 NA
ATOM     10  O   UNL     1       8.033   4.930  17.087  0.00  0.00    +0.000 OA
ATOM     11  C   UNL     1       6.902   5.256  17.770  0.00  0.00    +0.000 A 
ATOM     12  C   UNL     1       7.113   5.625  19.187  0.00  0.00    +0.000 C 
ATOM     13  C   UNL     1       5.809   5.136  16.930  0.00  0.00    +0.000 A 
ENDBRANCH   1  13
BRANCH   5  14
ATOM     14  C   UNL     1       2.101   8.292  18.103  0.00  0.00    +0.000 C 
ATOM     15  O   UNL     1       2.231   9.135  17.219  0.00  0.00    +0.000 OA
BRANCH  14  16
ATOM     16  C   UNL     1       1.431   8.670  19.372  0.00  0.00    +0.000 A 
ATOM     17  C   UNL     1       0.559   9.766  19.366  0.00  0.00    +0.000 A 
ATOM     18  C   UNL     1      -0.122  10.125  20.529  0.00  0.00    +0.000 A 
ATOM     19  C   UNL     1       0.069   9.395  21.703  0.00  0.00    +0.000 A 
ATOM     20  C   UNL     1       0.961   8.325  21.724  0.00  0.00    +0.000 A 
ATOM     21  C   UNL     1       1.660   7.975  20.568  0.00  0.00    +0.000 A 
ENDBRANCH  14  16
ENDBRANCH   5  14
BRANCH   3  22
ATOM     22  O   UNL     1       1.363   3.446  17.701  0.00  0.00    +0.000 OA
BRANCH  22  23
ATOM     23  C   UNL     1       0.394   3.397  18.749  0.00  0.00    +0.000 C 
BRANCH  23  24
ATOM     24  C   UNL     1       0.988   4.081  19.976  0.00  0.00    +0.000 C 
BRANCH  24  25
ATOM     25  C   UNL     1       1.222   3.076  21.100  0.00  0.00    +0.000 C 
BRANCH  25  26
ATOM     26  C   UNL     1       2.633   3.205  21.664  0.00  0.00    +0.000 C 
BRANCH  26  27
ATOM     27  C   UNL     1       3.471   1.962  21.373  0.00  0.00    +0.000 C 
BRANCH  27  28
ATOM     28  C   UNL     1       4.170   2.062  20.035  0.00  0.00    +0.000 C 
ATOM     29  O   UNL     1       5.180   2.733  19.822  0.00  0.00    +0.000 OA
ATOM     30  N   UNL     1       3.567   1.334  19.041  0.00  0.00    +0.000 N 
ATOM     31  H   UNL     1       2.812   0.671  19.173  0.00  0.00    +0.000 HD
BRANCH  30  32
ATOM     32  O   UNL     1       4.201   1.356  17.780  0.00  0.00    +0.000 OA
ATOM     33  H   UNL     1       4.238   2.318  17.583  0.00  0.00    +0.000 HD
ENDBRANCH  30  32
ENDBRANCH  27  28
ENDBRANCH  26  27
ENDBRANCH  25  26
ENDBRANCH  24  25
ENDBRANCH  23  24
ENDBRANCH  22  23
ENDBRANCH   3  22
TORSDOF 11
ENDMDL
MODEL 4
REMARK VINA RESULT:      -8.3      1.591      2.235
REMARK  Name = 
REMARK  13 active torsions:
REMARK  status: ('A' for Active; 'I' for Inactive)
REMARK    1  A    between atoms: C_1  and  C_2
REMARK    2  A    between atoms: C_5  and  C_6
REMARK    3  A    between atoms: C_7  and  C_8
REMARK    4  A    between atoms: C_10  and  O_11
REMARK    5  A    between atoms: O_11  and  C_12
REMARK    6  A    between atoms: C_12  and  C_13
REMARK    7  A    between atoms: C_13  and  C_14
REMARK    8  A    between atoms: C_14  and  C_15
REMARK    9  A    between atoms: C_15  and  C_16
REMARK   10  A    between atoms: C_16  and  C_17
REMARK   11  A    between atoms: N_19  and  O_20
REMARK   12  A    between atoms: C_22  and  C_23
REMARK   13  A    between atoms: C_23  and  C_25
REMARK                            x       y       z     vdW  Elec       q    Type
REMARK                         _______ _______ _______ _____ _____    ______ ____
ROOT
ATOM      1  C   UNL     1       4.341   5.642  17.370  0.00  0.00    +0.000 A 
ATOM      2  C   UNL     1       3.288   4.731  17.487  0.00  0.00    +0.000 A 
ATOM      3  C   UNL     1       1.977   5.163  17.694  0.00  0.00    +0.000 A 
ATOM      4  C   UNL     1       1.709   6.518  17.869  0.00  0.00    +0.000 A 
ATOM      5  C   UNL     1       2.744   7.446  17.756  0.00  0.00    +0.000 A 
ATOM      6  C   UNL     1       4.054   7.004  17.522  0.00  0.00    +0.000 A 
ENDROOT
BRANCH   1  13
ATOM      7  C   UNL     1       5.674   4.532  14.525  0.00  0.00    +0.000 C 
ATOM      8  C   UNL     1       6.281   4.700  15.868  0.00  0.00    +0.000 A 
ATOM      9  N   UNL     1       7.567   4.375  16.046  0.00  0.00    +0.000 NA
ATOM     10  O   UNL     1       7.852   4.662  17.361  0.00  0.00    +0.000 OA
ATOM     11  C   UNL     1       6.743   5.153  17.978  0.00  0.00    +0.000 A 
ATOM     12  C   UNL     1       6.918   5.481  19.410  0.00  0.00    +0.000 C 
ATOM     13  C   UNL     1       5.698   5.202  17.072  0.00  0.00    +0.000 A 
ENDBRANCH   1  13
BRANCH   5  14
ATOM     14  C   UNL     1       2.411   8.891  17.898  0.00  0.00    +0.000 C 
ATOM     15  O   UNL     1       3.211   9.727  17.487  0.00  0.00    +0.000 OA
BRANCH  14  16
ATOM     16  C   UNL     1       1.141   9.345  18.516  0.00  0.00    +0.000 A 
ATOM     17  C   UNL     1       1.113   9.561  19.900  0.00  0.00    +0.000 A 
ATOM     18  C   UNL     1      -0.050  10.030  20.512  0.00  0.00    +0.000 A 
ATOM     19  C   UNL     1      -1.188  10.281  19.746  0.00  0.00    +0.000 A 
ATOM     20  C   UNL     1      -1.177  10.036  18.374  0.00  0.00    +0.000 A 
ATOM     21  C   UNL     1      -0.023   9.547  17.761  0.00  0.00    +0.000 A 
ENDBRANCH  14  16
ENDBRANCH   5  14
BRANCH   3  22
ATOM     22  O   UNL     1       1.033   4.173  17.702  0.00  0.00    +0.000 OA
BRANCH  22  23
ATOM     23  C   UNL     1       1.481   2.921  18.222  0.00  0.00    +0.000 C 
BRANCH  23  24
ATOM     24  C   UNL     1       0.712   2.640  19.508  0.00  0.00    +0.000 C 
BRANCH  24  25
ATOM     25  C   UNL     1       1.121   3.612  20.611  0.00  0.00    +0.000 C 
BRANCH  25  26
ATOM     26  C   UNL     1       2.300   3.069  21.410  0.00  0.00    +0.000 C 
BRANCH  26  27
ATOM     27  C   UNL     1       3.631   3.367  20.723  0.00  0.00    +0.000 C 
BRANCH  27  28
ATOM     28  C   UNL     1       4.410   2.099  20.447  0.00  0.00    +0.000 C 
ATOM     29  O   UNL     1       5.203   1.581  21.233  0.00  0.00    +0.000 OA
ATOM     30  N   UNL     1       4.165   1.559  19.211  0.00  0.00    +0.000 N 
ATOM     31  H   UNL     1       3.442   1.862  18.569  0.00  0.00    +0.000 HD
BRANCH  30  32
ATOM     32  O   UNL     1       4.832   0.350  18.915  0.00  0.00    +0.000 OA
ATOM     33  H   UNL     1       5.766   0.570  19.129  0.00  0.00    +0.000 HD
ENDBRANCH  30  32
ENDBRANCH  27  28
ENDBRANCH  26  27
ENDBRANCH  25  26
ENDBRANCH  24  25
ENDBRANCH  23  24
ENDBRANCH  22  23
ENDBRANCH   3  22
TORSDOF 11
ENDMDL
MODEL 5
REMARK VINA RESULT:      -8.3      3.083      8.400
REMARK  Name = 
REMARK  13 active torsions:
REMARK  status: ('A' for Active; 'I' for Inactive)
REMARK    1  A    between atoms: C_1  and  C_2
REMARK    2  A    between atoms: C_5  and  C_6
REMARK    3  A    between atoms: C_7  and  C_8
REMARK    4  A    between atoms: C_10  and  O_11
REMARK    5  A    between atoms: O_11  and  C_12
REMARK    6  A    between atoms: C_12  and  C_13
REMARK    7  A    between atoms: C_13  and  C_14
REMARK    8  A    between atoms: C_14  and  C_15
REMARK    9  A    between atoms: C_15  and  C_16
REMARK   10  A    between atoms: C_16  and  C_17
REMARK   11  A    between atoms: N_19  and  O_20
REMARK   12  A    between atoms: C_22  and  C_23
REMARK   13  A    between atoms: C_23  and  C_25
REMARK                            x       y       z     vdW  Elec       q    Type
REMARK                         _______ _______ _______ _____ _____    ______ ____
ROOT
ATOM      1  C   UNL     1       3.498   4.872  18.284  0.00  0.00    +0.000 A 
ATOM      2  C   UNL     1       3.046   6.164  18.001  0.00  0.00    +0.000 A 
ATOM      3  C   UNL     1       3.744   7.000  17.128  0.00  0.00    +0.000 A 
ATOM      4  C   UNL     1       4.955   6.581  16.581  0.00  0.00    +0.000 A 
ATOM      5  C   UNL     1       5.425   5.295  16.849  0.00  0.00    +0.000 A 
ATOM      6  C   UNL     1       4.703   4.454  17.708  0.00  0.00    +0.000 A 
ENDROOT
BRANCH   1  13
ATOM      7  C   UNL     1       1.549   5.501  20.913  0.00  0.00    +0.000 C 
ATOM      8  C   UNL     1       1.912   4.213  20.274  0.00  0.00    +0.000 A 
ATOM      9  N   UNL     1       1.418   3.075  20.777  0.00  0.00    +0.000 NA
ATOM     10  O   UNL     1       1.895   2.067  19.971  0.00  0.00    +0.000 OA
ATOM     11  C   UNL     1       2.680   2.590  18.991  0.00  0.00    +0.000 A 
ATOM     12  C   UNL     1       3.273   1.596  18.069  0.00  0.00    +0.000 C 
ATOM     13  C   UNL     1       2.731   3.966  19.130  0.00  0.00    +0.000 A 
ENDBRANCH   1  13
BRANCH   5  14
ATOM     14  C   UNL     1       6.697   4.865  16.207  0.00  0.00    +0.000 C 
ATOM     15  O   UNL     1       7.686   4.684  16.912  0.00  0.00    +0.000 OA
BRANCH  14  16
ATOM     16  C   UNL     1       6.802   4.647  14.742  0.00  0.00    +0.000 A 
ATOM     17  C   UNL     1       5.939   3.720  14.143  0.00  0.00    +0.000 A 
ATOM     18  C   UNL     1       5.978   3.519  12.763  0.00  0.00    +0.000 A 
ATOM     19  C   UNL     1       6.879   4.238  11.978  0.00  0.00    +0.000 A 
ATOM     20  C   UNL     1       7.764   5.136  12.573  0.00  0.00    +0.000 A 
ATOM     21  C   UNL     1       7.743   5.325  13.955  0.00  0.00    +0.000 A 
ENDBRANCH  14  16
ENDBRANCH   5  14
BRANCH   3  22
ATOM     22  O   UNL     1       3.147   8.202  16.872  0.00  0.00    +0.000 OA
BRANCH  22  23
ATOM     23  C   UNL     1       2.643   8.880  18.025  0.00  0.00    +0.000 C 
BRANCH  23  24
ATOM     24  C   UNL     1       1.164   9.167  17.797  0.00  0.00    +0.000 C 
BRANCH  24  25
ATOM     25  C   UNL     1       0.700  10.343  18.651  0.00  0.00    +0.000 C 
BRANCH  25  26
ATOM     26  C   UNL     1      -0.778  10.212  19.007  0.00  0.00    +0.000 C 
BRANCH  26  27
ATOM     27  C   UNL     1      -1.559  11.474  18.645  0.00  0.00    +0.000 C 
BRANCH  27  28
ATOM     28  C   UNL     1      -2.592  11.201  17.575  0.00  0.00    +0.000 C 
ATOM     29  O   UNL     1      -3.650  10.600  17.761  0.00  0.00    +0.000 OA
ATOM     30  N   UNL     1      -2.245  11.680  16.338  0.00  0.00    +0.000 N 
ATOM     31  H   UNL     1      -1.455  12.284  16.141  0.00  0.00    +0.000 HD
BRANCH  30  32
ATOM     32  O   UNL     1      -3.193  11.493  15.307  0.00  0.00    +0.000 OA
ATOM     33  H   UNL     1      -2.819  10.726  14.819  0.00  0.00    +0.000 HD
ENDBRANCH  30  32
ENDBRANCH  27  28
ENDBRANCH  26  27
ENDBRANCH  25  26
ENDBRANCH  24  25
ENDBRANCH  23  24
ENDBRANCH  22  23
ENDBRANCH   3  22
TORSDOF 11
ENDMDL
MODEL 6
REMARK VINA RESULT:      -8.2      1.179      2.103
REMARK  Name = 
REMARK  13 active torsions:
REMARK  status: ('A' for Active; 'I' for Inactive)
REMARK    1  A    between atoms: C_1  and  C_2
REMARK    2  A    between atoms: C_5  and  C_6
REMARK    3  A    between atoms: C_7  and  C_8
REMARK    4  A    between atoms: C_10  and  O_11
REMARK    5  A    between atoms: O_11  and  C_12
REMARK    6  A    between atoms: C_12  and  C_13
REMARK    7  A    between atoms: C_13  and  C_14
REMARK    8  A    between atoms: C_14  and  C_15
REMARK    9  A    between atoms: C_15  and  C_16
REMARK   10  A    between atoms: C_16  and  C_17
REMARK   11  A    between atoms: N_19  and  O_20
REMARK   12  A    between atoms: C_22  and  C_23
REMARK   13  A    between atoms: C_23  and  C_25
REMARK                            x       y       z     vdW  Elec       q    Type
REMARK                         _______ _______ _______ _____ _____    ______ ____
ROOT
ATOM      1  C   UNL     1       4.442   6.075  17.124  0.00  0.00    +0.000 A 
ATOM      2  C   UNL     1       3.698   4.950  17.493  0.00  0.00    +0.000 A 
ATOM      3  C   UNL     1       2.422   5.076  18.045  0.00  0.00    +0.000 A 
ATOM      4  C   UNL     1       1.900   6.340  18.313  0.00  0.00    +0.000 A 
ATOM      5  C   UNL     1       2.625   7.476  17.954  0.00  0.00    +0.000 A 
ATOM      6  C   UNL     1       3.895   7.338  17.376  0.00  0.00    +0.000 A 
ENDROOT
BRANCH   1  13
ATOM      7  C   UNL     1       7.413   7.330  17.963  0.00  0.00    +0.000 C 
ATOM      8  C   UNL     1       7.015   6.499  16.800  0.00  0.00    +0.000 A 
ATOM      9  N   UNL     1       7.943   6.157  15.898  0.00  0.00    +0.000 NA
ATOM     10  O   UNL     1       7.296   5.374  14.969  0.00  0.00    +0.000 OA
ATOM     11  C   UNL     1       5.984   5.248  15.303  0.00  0.00    +0.000 A 
ATOM     12  C   UNL     1       5.174   4.442  14.363  0.00  0.00    +0.000 C 
ATOM     13  C   UNL     1       5.739   5.948  16.471  0.00  0.00    +0.000 A 
ENDBRANCH   1  13
BRANCH   5  14
ATOM     14  C   UNL     1       2.013   8.809  18.210  0.00  0.00    +0.000 C 
ATOM     15  O   UNL     1       2.122   9.685  17.356  0.00  0.00    +0.000 OA
BRANCH  14  16
ATOM     16  C   UNL     1       1.274   9.105  19.462  0.00  0.00    +0.000 A 
ATOM     17  C   UNL     1       0.255  10.065  19.424  0.00  0.00    +0.000 A 
ATOM     18  C   UNL     1      -0.491  10.340  20.571  0.00  0.00    +0.000 A 
ATOM     19  C   UNL     1      -0.219   9.661  21.759  0.00  0.00    +0.000 A 
ATOM     20  C   UNL     1       0.817   8.730  21.812  0.00  0.00    +0.000 A 
ATOM     21  C   UNL     1       1.579   8.467  20.673  0.00  0.00    +0.000 A 
ENDBRANCH  14  16
ENDBRANCH   5  14
BRANCH   3  22
ATOM     22  O   UNL     1       1.771   3.897  18.278  0.00  0.00    +0.000 OA
BRANCH  22  23
ATOM     23  C   UNL     1       1.028   3.851  19.496  0.00  0.00    +0.000 C 
BRANCH  23  24
ATOM     24  C   UNL     1       1.826   4.587  20.567  0.00  0.00    +0.000 C 
BRANCH  24  25
ATOM     25  C   UNL     1       2.089   3.683  21.768  0.00  0.00    +0.000 C 
BRANCH  25  26
ATOM     26  C   UNL     1       2.348   2.247  21.326  0.00  0.00    +0.000 C 
BRANCH  26  27
ATOM     27  C   UNL     1       3.842   1.947  21.233  0.00  0.00    +0.000 C 
BRANCH  27  28
ATOM     28  C   UNL     1       4.384   2.242  19.851  0.00  0.00    +0.000 C 
ATOM     29  O   UNL     1       5.258   3.073  19.606  0.00  0.00    +0.000 OA
ATOM     30  N   UNL     1       3.801   1.496  18.859  0.00  0.00    +0.000 N 
ATOM     31  H   UNL     1       3.169   0.716  19.002  0.00  0.00    +0.000 HD
BRANCH  30  32
ATOM     32  O   UNL     1       4.299   1.698  17.552  0.00  0.00    +0.000 OA
ATOM     33  H   UNL     1       3.921   0.931  17.066  0.00  0.00    +0.000 HD
ENDBRANCH  30  32
ENDBRANCH  27  28
ENDBRANCH  26  27
ENDBRANCH  25  26
ENDBRANCH  24  25
ENDBRANCH  23  24
ENDBRANCH  22  23
ENDBRANCH   3  22
TORSDOF 11
ENDMDL
MODEL 7
REMARK VINA RESULT:      -8.1      2.941      8.164
REMARK  Name = 
REMARK  13 active torsions:
REMARK  status: ('A' for Active; 'I' for Inactive)
REMARK    1  A    between atoms: C_1  and  C_2
REMARK    2  A    between atoms: C_5  and  C_6
REMARK    3  A    between atoms: C_7  and  C_8
REMARK    4  A    between atoms: C_10  and  O_11
REMARK    5  A    between atoms: O_11  and  C_12
REMARK    6  A    between atoms: C_12  and  C_13
REMARK    7  A    between atoms: C_13  and  C_14
REMARK    8  A    between atoms: C_14  and  C_15
REMARK    9  A    between atoms: C_15  and  C_16
REMARK   10  A    between atoms: C_16  and  C_17
REMARK   11  A    between atoms: N_19  and  O_20
REMARK   12  A    between atoms: C_22  and  C_23
REMARK   13  A    between atoms: C_23  and  C_25
REMARK                            x       y       z     vdW  Elec       q    Type
REMARK                         _______ _______ _______ _____ _____    ______ ____
ROOT
ATOM      1  C   UNL     1       3.456   4.942  18.297  0.00  0.00    +0.000 A 
ATOM      2  C   UNL     1       2.933   6.225  18.110  0.00  0.00    +0.000 A 
ATOM      3  C   UNL     1       3.586   7.163  17.309  0.00  0.00    +0.000 A 
ATOM      4  C   UNL     1       4.821   6.857  16.743  0.00  0.00    +0.000 A 
ATOM      5  C   UNL     1       5.363   5.583  16.916  0.00  0.00    +0.000 A 
ATOM      6  C   UNL     1       4.686   4.639  17.702  0.00  0.00    +0.000 A 
ENDROOT
BRANCH   1  13
ATOM      7  C   UNL     1       3.397   1.626  17.976  0.00  0.00    +0.000 C 
ATOM      8  C   UNL     1       2.680   2.511  18.926  0.00  0.00    +0.000 A 
ATOM      9  N   UNL     1       1.858   1.965  19.830  0.00  0.00    +0.000 NA
ATOM     10  O   UNL     1       1.370   3.012  20.579  0.00  0.00    +0.000 OA
ATOM     11  C   UNL     1       1.888   4.185  20.126  0.00  0.00    +0.000 A 
ATOM     12  C   UNL     1       1.419   5.392  20.841  0.00  0.00    +0.000 C 
ATOM     13  C   UNL     1       2.739   3.932  19.064  0.00  0.00    +0.000 A 
ENDBRANCH   1  13
BRANCH   5  14
ATOM     14  C   UNL     1       6.661   5.276  16.254  0.00  0.00    +0.000 C 
ATOM     15  O   UNL     1       7.697   5.375  16.906  0.00  0.00    +0.000 OA
BRANCH  14  16
ATOM     16  C   UNL     1       6.736   4.852  14.834  0.00  0.00    +0.000 A 
ATOM     17  C   UNL     1       5.800   3.922  14.365  0.00  0.00    +0.000 A 
ATOM     18  C   UNL     1       5.811   3.531  13.026  0.00  0.00    +0.000 A 
ATOM     19  C   UNL     1       6.759   4.064  12.152  0.00  0.00    +0.000 A 
ATOM     20  C   UNL     1       7.715   4.964  12.620  0.00  0.00    +0.000 A 
ATOM     21  C   UNL     1       7.720   5.341  13.963  0.00  0.00    +0.000 A 
ENDBRANCH  14  16
ENDBRANCH   5  14
BRANCH   3  22
ATOM     22  O   UNL     1       2.922   8.346  17.141  0.00  0.00    +0.000 OA
BRANCH  22  23
ATOM     23  C   UNL     1       2.266   8.838  18.310  0.00  0.00    +0.000 C 
BRANCH  23  24
ATOM     24  C   UNL     1       1.589  10.157  17.954  0.00  0.00    +0.000 C 
BRANCH  24  25
ATOM     25  C   UNL     1       0.839  10.726  19.155  0.00  0.00    +0.000 C 
BRANCH  25  26
ATOM     26  C   UNL     1      -0.550  10.108  19.276  0.00  0.00    +0.000 C 
BRANCH  26  27
ATOM     27  C   UNL     1      -1.636  11.064  18.788  0.00  0.00    +0.000 C 
BRANCH  27  28
ATOM     28  C   UNL     1      -2.066  10.742  17.373  0.00  0.00    +0.000 C 
ATOM     29  O   UNL     1      -1.920   9.647  16.830  0.00  0.00    +0.000 OA
ATOM     30  N   UNL     1      -2.640  11.800  16.717  0.00  0.00    +0.000 N 
ATOM     31  H   UNL     1      -2.900  12.684  17.139  0.00  0.00    +0.000 HD
BRANCH  30  32
ATOM     32  O   UNL     1      -3.101  11.545  15.406  0.00  0.00    +0.000 OA
ATOM     33  H   UNL     1      -3.943  11.065  15.572  0.00  0.00    +0.000 HD
ENDBRANCH  30  32
ENDBRANCH  27  28
ENDBRANCH  26  27
ENDBRANCH  25  26
ENDBRANCH  24  25
ENDBRANCH  23  24
ENDBRANCH  22  23
ENDBRANCH   3  22
TORSDOF 11
ENDMDL
MODEL 8
REMARK VINA RESULT:      -8.0      1.636      2.513
REMARK  Name = 
REMARK  13 active torsions:
REMARK  status: ('A' for Active; 'I' for Inactive)
REMARK    1  A    between atoms: C_1  and  C_2
REMARK    2  A    between atoms: C_5  and  C_6
REMARK    3  A    between atoms: C_7  and  C_8
REMARK    4  A    between atoms: C_10  and  O_11
REMARK    5  A    between atoms: O_11  and  C_12
REMARK    6  A    between atoms: C_12  and  C_13
REMARK    7  A    between atoms: C_13  and  C_14
REMARK    8  A    between atoms: C_14  and  C_15
REMARK    9  A    between atoms: C_15  and  C_16
REMARK   10  A    between atoms: C_16  and  C_17
REMARK   11  A    between atoms: N_19  and  O_20
REMARK   12  A    between atoms: C_22  and  C_23
REMARK   13  A    between atoms: C_23  and  C_25
REMARK                            x       y       z     vdW  Elec       q    Type
REMARK                         _______ _______ _______ _____ _____    ______ ____
ROOT
ATOM      1  C   UNL     1       4.444   5.486  17.312  0.00  0.00    +0.000 A 
ATOM      2  C   UNL     1       3.540   4.433  17.478  0.00  0.00    +0.000 A 
ATOM      3  C   UNL     1       2.205   4.670  17.809  0.00  0.00    +0.000 A 
ATOM      4  C   UNL     1       1.770   5.970  18.059  0.00  0.00    +0.000 A 
ATOM      5  C   UNL     1       2.654   7.036  17.898  0.00  0.00    +0.000 A 
ATOM      6  C   UNL     1       3.987   6.789  17.540  0.00  0.00    +0.000 A 
ENDROOT
BRANCH   1  13
ATOM      7  C   UNL     1       5.662   4.611  14.335  0.00  0.00    +0.000 C 
ATOM      8  C   UNL     1       6.356   4.850  15.625  0.00  0.00    +0.000 A 
ATOM      9  N   UNL     1       7.686   4.711  15.682  0.00  0.00    +0.000 NA
ATOM     10  O   UNL     1       8.044   5.022  16.974  0.00  0.00    +0.000 OA
ATOM     11  C   UNL     1       6.936   5.341  17.696  0.00  0.00    +0.000 A 
ATOM     12  C   UNL     1       7.190   5.675  19.115  0.00  0.00    +0.000 C 
ATOM     13  C   UNL     1       5.818   5.250  16.886  0.00  0.00    +0.000 A 
ENDBRANCH   1  13
BRANCH   5  14
ATOM     14  C   UNL     1       2.139   8.415  18.124  0.00  0.00    +0.000 C 
ATOM     15  O   UNL     1       2.331   9.268  17.261  0.00  0.00    +0.000 OA
BRANCH  14  16
ATOM     16  C   UNL     1       1.400   8.784  19.357  0.00  0.00    +0.000 A 
ATOM     17  C   UNL     1       0.463   9.823  19.287  0.00  0.00    +0.000 A 
ATOM     18  C   UNL     1      -0.282  10.170  20.414  0.00  0.00    +0.000 A 
ATOM     19  C   UNL     1      -0.092   9.484  21.614  0.00  0.00    +0.000 A 
ATOM     20  C   UNL     1       0.863   8.472  21.699  0.00  0.00    +0.000 A 
ATOM     21  C   UNL     1       1.625   8.137  20.580  0.00  0.00    +0.000 A 
ENDBRANCH  14  16
ENDBRANCH   5  14
BRANCH   3  22
ATOM     22  O   UNL     1       1.412   3.558  17.855  0.00  0.00    +0.000 OA
BRANCH  22  23
ATOM     23  C   UNL     1       2.083   2.329  17.575  0.00  0.00    +0.000 C 
BRANCH  23  24
ATOM     24  C   UNL     1       2.403   1.651  18.902  0.00  0.00    +0.000 C 
BRANCH  24  25
ATOM     25  C   UNL     1       3.895   1.738  19.212  0.00  0.00    +0.000 C 
BRANCH  25  26
ATOM     26  C   UNL     1       4.132   2.336  20.594  0.00  0.00    +0.000 C 
BRANCH  26  27
ATOM     27  C   UNL     1       2.852   2.359  21.426  0.00  0.00    +0.000 C 
BRANCH  27  28
ATOM     28  C   UNL     1       2.075   3.640  21.215  0.00  0.00    +0.000 C 
ATOM     29  O   UNL     1       2.521   4.769  21.419  0.00  0.00    +0.000 OA
ATOM     30  N   UNL     1       0.792   3.442  20.775  0.00  0.00    +0.000 N 
ATOM     31  H   UNL     1       0.403   2.556  20.474  0.00  0.00    +0.000 HD
BRANCH  30  32
ATOM     32  O   UNL     1       0.033   4.606  20.520  0.00  0.00    +0.000 OA
ATOM     33  H   UNL     1      -0.141   4.531  19.555  0.00  0.00    +0.000 HD
ENDBRANCH  30  32
ENDBRANCH  27  28
ENDBRANCH  26  27
ENDBRANCH  25  26
ENDBRANCH  24  25
ENDBRANCH  23  24
ENDBRANCH  22  23
ENDBRANCH   3  22
TORSDOF 11
ENDMDL
MODEL 9
REMARK VINA RESULT:      -8.0      3.485      8.833
REMARK  Name = 
REMARK  13 active torsions:
REMARK  status: ('A' for Active; 'I' for Inactive)
REMARK    1  A    between atoms: C_1  and  C_2
REMARK    2  A    between atoms: C_5  and  C_6
REMARK    3  A    between atoms: C_7  and  C_8
REMARK    4  A    between atoms: C_10  and  O_11
REMARK    5  A    between atoms: O_11  and  C_12
REMARK    6  A    between atoms: C_12  and  C_13
REMARK    7  A    between atoms: C_13  and  C_14
REMARK    8  A    between atoms: C_14  and  C_15
REMARK    9  A    between atoms: C_15  and  C_16
REMARK   10  A    between atoms: C_16  and  C_17
REMARK   11  A    between atoms: N_19  and  O_20
REMARK   12  A    between atoms: C_22  and  C_23
REMARK   13  A    between atoms: C_23  and  C_25
REMARK                            x       y       z     vdW  Elec       q    Type
REMARK                         _______ _______ _______ _____ _____    ______ ____
ROOT
ATOM      1  C   UNL     1       4.855   4.249  17.113  0.00  0.00    +0.000 A 
ATOM      2  C   UNL     1       5.922   4.423  17.999  0.00  0.00    +0.000 A 
ATOM      3  C   UNL     1       7.210   4.697  17.537  0.00  0.00    +0.000 A 
ATOM      4  C   UNL     1       7.469   4.723  16.169  0.00  0.00    +0.000 A 
ATOM      5  C   UNL     1       6.420   4.553  15.265  0.00  0.00    +0.000 A 
ATOM      6  C   UNL     1       5.124   4.303  15.740  0.00  0.00    +0.000 A 
ENDROOT
BRANCH   1  13
ATOM      7  C   UNL     1       2.415   6.445  17.686  0.00  0.00    +0.000 C 
ATOM      8  C   UNL     1       2.444   4.973  17.867  0.00  0.00    +0.000 A 
ATOM      9  N   UNL     1       1.353   4.353  18.331  0.00  0.00    +0.000 NA
ATOM     10  O   UNL     1       1.662   3.013  18.362  0.00  0.00    +0.000 OA
ATOM     11  C   UNL     1       2.936   2.822  17.925  0.00  0.00    +0.000 A 
ATOM     12  C   UNL     1       3.396   1.416  17.933  0.00  0.00    +0.000 C 
ATOM     13  C   UNL     1       3.494   4.044  17.591  0.00  0.00    +0.000 A 
ENDBRANCH   1  13
BRANCH   5  14
ATOM     14  C   UNL     1       6.725   4.638  13.810  0.00  0.00    +0.000 C 
ATOM     15  O   UNL     1       7.582   5.431  13.430  0.00  0.00    +0.000 OA
BRANCH  14  16
ATOM     16  C   UNL     1       6.027   3.791  12.812  0.00  0.00    +0.000 A 
ATOM     17  C   UNL     1       6.702   2.680  12.291  0.00  0.00    +0.000 A 
ATOM     18  C   UNL     1       6.064   1.835  11.383  0.00  0.00    +0.000 A 
ATOM     19  C   UNL     1       4.752   2.099  10.988  0.00  0.00    +0.000 A 
ATOM     20  C   UNL     1       4.087   3.222  11.476  0.00  0.00    +0.000 A 
ATOM     21  C   UNL     1       4.729   4.081  12.368  0.00  0.00    +0.000 A 
ENDBRANCH  14  16
ENDBRANCH   5  14
BRANCH   3  22
ATOM     22  O   UNL     1       8.140   4.931  18.512  0.00  0.00    +0.000 OA
BRANCH  22  23
ATOM     23  C   UNL     1       7.961   6.152  19.232  0.00  0.00    +0.000 C 
BRANCH  23  24
ATOM     24  C   UNL     1       7.996   7.301  18.231  0.00  0.00    +0.000 C 
BRANCH  24  25
ATOM     25  C   UNL     1       8.712   8.513  18.819  0.00  0.00    +0.000 C 
BRANCH  25  26
ATOM     26  C   UNL     1       8.244   9.802  18.152  0.00  0.00    +0.000 C 
BRANCH  26  27
ATOM     27  C   UNL     1       9.405  10.765  17.912  0.00  0.00    +0.000 C 
BRANCH  27  28
ATOM     28  C   UNL     1      10.021  11.229  19.213  0.00  0.00    +0.000 C 
ATOM     29  O   UNL     1       9.387  11.478  20.238  0.00  0.00    +0.000 OA
ATOM     30  N   UNL     1      11.385  11.365  19.161  0.00  0.00    +0.000 N 
ATOM     31  H   UNL     1      11.978  11.064  18.395  0.00  0.00    +0.000 HD
BRANCH  30  32
ATOM     32  O   UNL     1      12.020  11.754  20.361  0.00  0.00    +0.000 OA
ATOM     33  H   UNL     1      11.281  12.166  20.862  0.00  0.00    +0.000 HD
ENDBRANCH  30  32
ENDBRANCH  27  28
ENDBRANCH  26  27
ENDBRANCH  25  26
ENDBRANCH  24  25
ENDBRANCH  23  24
ENDBRANCH  22  23
ENDBRANCH   3  22
TORSDOF 11
ENDMDL
