MODEL 1
REMARK VINA RESULT:      -7.5      0.000      0.000
REMARK  Name = 
REMARK  11 active torsions:
REMARK  status: ('A' for Active; 'I' for Inactive)
REMARK    1  A    between atoms: C_1  and  C_2
REMARK    2  A    between atoms: C_2  and  C_3
REMARK    3  A    between atoms: C_2  and  C_4
REMARK    4  A    between atoms: C_2  and  N_5
REMARK    5  A    between atoms: C_6  and  C_8
REMARK    6  A    between atoms: C_8  and  N_9
REMARK    7  A    between atoms: N_9  and  C_10
REMARK    8  A    between atoms: C_10  and  C_11
REMARK    9  A    between atoms: C_11  and  N_12
REMARK   10  A    between atoms: N_12  and  C_13
REMARK   11  A    between atoms: C_24  and  C_26
REMARK                            x       y       z     vdW  Elec       q    Type
REMARK                         _______ _______ _______ _____ _____    ______ ____
ROOT
ATOM      1  N   UNL     1       6.074   5.453  17.060  0.00  0.00    +0.000 N 
ATOM      2  C   UNL     1       7.056   4.724  16.359  0.00  0.00    +0.000 C 
ATOM      3  O   UNL     1       7.884   4.032  16.961  0.00  0.00    +0.000 OA
ENDROOT
BRANCH   2   4
ATOM      4  C   UNL     1       7.132   4.730  14.857  0.00  0.00    +0.000 A 
ATOM      5  C   UNL     1       6.310   3.872  14.140  0.00  0.00    +0.000 A 
ATOM      6  N   UNL     1       6.303   3.815  12.778  0.00  0.00    +0.000 NA
ATOM      7  C   UNL     1       7.168   4.646  12.160  0.00  0.00    +0.000 A 
ATOM      8  C   UNL     1       8.005   5.494  12.865  0.00  0.00    +0.000 A 
ATOM      9  N   UNL     1       8.010   5.556  14.217  0.00  0.00    +0.000 NA
ENDBRANCH   2   4
BRANCH   1  10
ATOM     10  C   UNL     1       6.104   5.388  18.532  0.00  0.00    +0.000 C 
BRANCH  10  12
ATOM     11  N   UNL     1       4.238   3.782  18.386  0.00  0.00    +0.000 N 
ATOM     12  C   UNL     1       5.286   4.246  19.178  0.00  0.00    +0.000 C 
ATOM     13  O   UNL     1       5.486   3.869  20.330  0.00  0.00    +0.000 OA
ATOM     14  H   UNL     1       4.303   3.980  17.395  0.00  0.00    +0.000 HD
BRANCH  11  16
ATOM     15  C   UNL     1       2.864   2.932  20.279  0.00  0.00    +0.000 C 
ATOM     16  C   UNL     1       3.240   2.770  18.796  0.00  0.00    +0.000 C 
ATOM     17  C   UNL     1       3.744   1.342  18.534  0.00  0.00    +0.000 C 
ATOM     18  C   UNL     1       1.951   2.974  17.971  0.00  0.00    +0.000 C 
ENDBRANCH  11  16
ENDBRANCH  10  12
ENDBRANCH   1  10
BRANCH   1  19
ATOM     19  C   UNL     1       5.094   6.297  16.361  0.00  0.00    +0.000 C 
BRANCH  19  20
ATOM     20  C   UNL     1       4.421   7.499  17.057  0.00  0.00    +0.000 C 
BRANCH  20  21
ATOM     21  N   UNL     1       2.950   7.418  17.162  0.00  0.00    +0.000 N 
ATOM     22  H   UNL     1       2.619   6.557  16.723  0.00  0.00    +0.000 HD
BRANCH  21  23
ATOM     23  C   UNL     1       2.388   7.508  18.456  0.00  0.00    +0.000 A 
ATOM     24  C   UNL     1       2.364   6.415  19.326  0.00  0.00    +0.000 A 
ATOM     25  C   UNL     1       1.864   6.594  20.597  0.00  0.00    +0.000 A 
ATOM     26  N   UNL     1       1.354   7.759  21.048  0.00  0.00    +0.000 NA
ATOM     27  C   UNL     1       1.310   8.796  20.198  0.00  0.00    +0.000 A 
ATOM     28  C   UNL     1       0.801   9.998  20.663  0.00  0.00    +0.000 A 
ATOM     29  C   UNL     1       0.725  11.118  19.838  0.00  0.00    +0.000 A 
ATOM     30 CL   UNL     1       0.137  12.608  20.470  0.00  0.00    +0.000 Cl
ATOM     31  C   UNL     1       1.129  11.046  18.513  0.00  0.00    +0.000 A 
ATOM     32  C   UNL     1       1.653   9.849  18.029  0.00  0.00    +0.000 A 
ATOM     33  C   UNL     1       1.776   8.717  18.868  0.00  0.00    +0.000 A 
ENDBRANCH  21  23
ENDBRANCH  20  21
ENDBRANCH  19  20
ENDBRANCH   1  19
TORSDOF 8
ENDMDL
MODEL 2
REMARK VINA RESULT:      -7.4      1.720      2.427
REMARK  Name = 
REMARK  11 active torsions:
REMARK  status: ('A' for Active; 'I' for Inactive)
REMARK    1  A    between atoms: C_1  and  C_2
REMARK    2  A    between atoms: C_2  and  C_3
REMARK    3  A    between atoms: C_2  and  C_4
REMARK    4  A    between atoms: C_2  and  N_5
REMARK    5  A    between atoms: C_6  and  C_8
REMARK    6  A    between atoms: C_8  and  N_9
REMARK    7  A    between atoms: N_9  and  C_10
REMARK    8  A    between atoms: C_10  and  C_11
REMARK    9  A    between atoms: C_11  and  N_12
REMARK   10  A    between atoms: N_12  and  C_13
REMARK   11  A    between atoms: C_24  and  C_26
REMARK                            x       y       z     vdW  Elec       q    Type
REMARK                         _______ _______ _______ _____ _____    ______ ____
ROOT
ATOM      1  N   UNL     1       5.122   5.235  18.044  0.00  0.00    +0.000 N 
ATOM      2  C   UNL     1       6.297   4.699  17.478  0.00  0.00    +0.000 C 
ATOM      3  O   UNL     1       7.182   4.214  18.190  0.00  0.00    +0.000 OA
ENDROOT
BRANCH   2   4
ATOM      4  C   UNL     1       6.522   4.665  15.991  0.00  0.00    +0.000 A 
ATOM      5  C   UNL     1       5.827   3.738  15.227  0.00  0.00    +0.000 A 
ATOM      6  N   UNL     1       5.959   3.641  13.874  0.00  0.00    +0.000 NA
ATOM      7  C   UNL     1       6.831   4.506  13.315  0.00  0.00    +0.000 A 
ATOM      8  C   UNL     1       7.542   5.424  14.068  0.00  0.00    +0.000 A 
ATOM      9  N   UNL     1       7.409   5.525  15.411  0.00  0.00    +0.000 NA
ENDBRANCH   2   4
BRANCH   1  10
ATOM     10  C   UNL     1       5.015   5.231  19.513  0.00  0.00    +0.000 C 
BRANCH  10  12
ATOM     11  N   UNL     1       3.234   3.545  19.774  0.00  0.00    +0.000 N 
ATOM     12  C   UNL     1       3.636   4.840  20.093  0.00  0.00    +0.000 C 
ATOM     13  O   UNL     1       2.924   5.647  20.686  0.00  0.00    +0.000 OA
ATOM     14  H   UNL     1       3.967   2.903  19.498  0.00  0.00    +0.000 HD
BRANCH  11  16
ATOM     15  C   UNL     1       0.778   3.941  19.841  0.00  0.00    +0.000 C 
ATOM     16  C   UNL     1       1.923   2.950  20.112  0.00  0.00    +0.000 C 
ATOM     17  C   UNL     1       1.877   2.479  21.574  0.00  0.00    +0.000 C 
ATOM     18  C   UNL     1       1.685   1.718  19.212  0.00  0.00    +0.000 C 
ENDBRANCH  11  16
ENDBRANCH  10  12
ENDBRANCH   1  10
BRANCH   1  19
ATOM     19  C   UNL     1       4.068   5.832  17.211  0.00  0.00    +0.000 C 
BRANCH  19  20
ATOM     20  C   UNL     1       3.637   7.304  17.387  0.00  0.00    +0.000 C 
BRANCH  20  21
ATOM     21  N   UNL     1       2.473   7.514  18.272  0.00  0.00    +0.000 N 
ATOM     22  H   UNL     1       2.633   7.049  19.168  0.00  0.00    +0.000 HD
BRANCH  21  23
ATOM     23  C   UNL     1       2.084   8.849  18.522  0.00  0.00    +0.000 A 
ATOM     24  C   UNL     1       2.413   9.888  17.648  0.00  0.00    +0.000 A 
ATOM     25  C   UNL     1       1.940  11.154  17.919  0.00  0.00    +0.000 A 
ATOM     26  N   UNL     1       1.206  11.465  19.007  0.00  0.00    +0.000 NA
ATOM     27  C   UNL     1       0.942  10.489  19.888  0.00  0.00    +0.000 A 
ATOM     28  C   UNL     1       0.174  10.803  20.998  0.00  0.00    +0.000 A 
ATOM     29  C   UNL     1      -0.140   9.840  21.954  0.00  0.00    +0.000 A 
ATOM     30 CL   UNL     1      -1.141  10.258  23.291  0.00  0.00    +0.000 Cl
ATOM     31  C   UNL     1       0.339   8.543  21.833  0.00  0.00    +0.000 A 
ATOM     32  C   UNL     1       1.104   8.206  20.719  0.00  0.00    +0.000 A 
ATOM     33  C   UNL     1       1.394   9.162  19.719  0.00  0.00    +0.000 A 
ENDBRANCH  21  23
ENDBRANCH  20  21
ENDBRANCH  19  20
ENDBRANCH   1  19
TORSDOF 8
ENDMDL
MODEL 3
REMARK VINA RESULT:      -7.4      2.441      3.612
REMARK  Name = 
REMARK  11 active torsions:
REMARK  status: ('A' for Active; 'I' for Inactive)
REMARK    1  A    between atoms: C_1  and  C_2
REMARK    2  A    between atoms: C_2  and  C_3
REMARK    3  A    between atoms: C_2  and  C_4
REMARK    4  A    between atoms: C_2  and  N_5
REMARK    5  A    between atoms: C_6  and  C_8
REMARK    6  A    between atoms: C_8  and  N_9
REMARK    7  A    between atoms: N_9  and  C_10
REMARK    8  A    between atoms: C_10  and  C_11
REMARK    9  A    between atoms: C_11  and  N_12
REMARK   10  A    between atoms: N_12  and  C_13
REMARK   11  A    between atoms: C_24  and  C_26
REMARK                            x       y       z     vdW  Elec       q    Type
REMARK                         _______ _______ _______ _____ _____    ______ ____
ROOT
ATOM      1  N   UNL     1       4.728   5.115  17.316  0.00  0.00    +0.000 N 
ATOM      2  C   UNL     1       6.136   5.096  17.271  0.00  0.00    +0.000 C 
ATOM      3  O   UNL     1       6.747   4.092  16.891  0.00  0.00    +0.000 OA
ENDROOT
BRANCH   2   4
ATOM      4  C   UNL     1       6.963   6.293  17.655  0.00  0.00    +0.000 A 
ATOM      5  C   UNL     1       7.776   6.216  18.777  0.00  0.00    +0.000 A 
ATOM      6  N   UNL     1       8.566   7.245  19.195  0.00  0.00    +0.000 NA
ATOM      7  C   UNL     1       8.498   8.367  18.447  0.00  0.00    +0.000 A 
ATOM      8  C   UNL     1       7.679   8.461  17.336  0.00  0.00    +0.000 A 
ATOM      9  N   UNL     1       6.897   7.439  16.917  0.00  0.00    +0.000 NA
ENDBRANCH   2   4
BRANCH   1  10
ATOM     10  C   UNL     1       4.021   3.880  16.934  0.00  0.00    +0.000 C 
BRANCH  10  12
ATOM     11  N   UNL     1       2.879   3.343  19.053  0.00  0.00    +0.000 N 
ATOM     12  C   UNL     1       2.705   3.587  17.692  0.00  0.00    +0.000 C 
ATOM     13  O   UNL     1       1.628   3.477  17.113  0.00  0.00    +0.000 OA
ATOM     14  H   UNL     1       3.739   3.684  19.464  0.00  0.00    +0.000 HD
BRANCH  11  16
ATOM     15  C   UNL     1       1.043   1.714  19.465  0.00  0.00    +0.000 C 
ATOM     16  C   UNL     1       1.809   2.940  19.991  0.00  0.00    +0.000 C 
ATOM     17  C   UNL     1       0.832   4.095  20.262  0.00  0.00    +0.000 C 
ATOM     18  C   UNL     1       2.449   2.537  21.338  0.00  0.00    +0.000 C 
ENDBRANCH  11  16
ENDBRANCH  10  12
ENDBRANCH   1  10
BRANCH   1  19
ATOM     19  C   UNL     1       3.987   6.295  17.785  0.00  0.00    +0.000 C 
BRANCH  19  20
ATOM     20  C   UNL     1       3.850   6.618  19.288  0.00  0.00    +0.000 C 
BRANCH  20  21
ATOM     21  N   UNL     1       2.475   6.905  19.744  0.00  0.00    +0.000 N 
ATOM     22  H   UNL     1       2.418   6.802  20.759  0.00  0.00    +0.000 HD
BRANCH  21  23
ATOM     23  C   UNL     1       1.924   8.158  19.389  0.00  0.00    +0.000 A 
ATOM     24  C   UNL     1       2.122   8.718  18.125  0.00  0.00    +0.000 A 
ATOM     25  C   UNL     1       1.498   9.909  17.825  0.00  0.00    +0.000 A 
ATOM     26  N   UNL     1       0.731  10.596  18.696  0.00  0.00    +0.000 NA
ATOM     27  C   UNL     1       0.590  10.102  19.935  0.00  0.00    +0.000 A 
ATOM     28  C   UNL     1      -0.209  10.798  20.827  0.00  0.00    +0.000 A 
ATOM     29  C   UNL     1      -0.402  10.344  22.130  0.00  0.00    +0.000 A 
ATOM     30 CL   UNL     1      -1.446  11.209  23.191  0.00  0.00    +0.000 Cl
ATOM     31  C   UNL     1       0.232   9.194  22.577  0.00  0.00    +0.000 A 
ATOM     32  C   UNL     1       1.032   8.475  21.692  0.00  0.00    +0.000 A 
ATOM     33  C   UNL     1       1.202   8.901  20.355  0.00  0.00    +0.000 A 
ENDBRANCH  21  23
ENDBRANCH  20  21
ENDBRANCH  19  20
ENDBRANCH   1  19
TORSDOF 8
ENDMDL
MODEL 4
REMARK VINA RESULT:      -7.3      2.717      5.832
REMARK  Name = 
REMARK  11 active torsions:
REMARK  status: ('A' for Active; 'I' for Inactive)
REMARK    1  A    between atoms: C_1  and  C_2
REMARK    2  A    between atoms: C_2  and  C_3
REMARK    3  A    between atoms: C_2  and  C_4
REMARK    4  A    between atoms: C_2  and  N_5
REMARK    5  A    between atoms: C_6  and  C_8
REMARK    6  A    between atoms: C_8  and  N_9
REMARK    7  A    between atoms: N_9  and  C_10
REMARK    8  A    between atoms: C_10  and  C_11
REMARK    9  A    between atoms: C_11  and  N_12
REMARK   10  A    between atoms: N_12  and  C_13
REMARK   11  A    between atoms: C_24  and  C_26
REMARK                            x       y       z     vdW  Elec       q    Type
REMARK                         _______ _______ _______ _____ _____    ______ ____
ROOT
ATOM      1  N   UNL     1       2.925   6.283  18.548  0.00  0.00    +0.000 N 
ATOM      2  C   UNL     1       2.781   4.886  18.423  0.00  0.00    +0.000 C 
ATOM      3  O   UNL     1       3.004   4.317  17.350  0.00  0.00    +0.000 OA
ENDROOT
BRANCH   2   4
ATOM      4  C   UNL     1       2.378   4.020  19.585  0.00  0.00    +0.000 A 
ATOM      5  C   UNL     1       3.368   3.407  20.341  0.00  0.00    +0.000 A 
ATOM      6  N   UNL     1       3.098   2.614  21.416  0.00  0.00    +0.000 NA
ATOM      7  C   UNL     1       1.788   2.446  21.696  0.00  0.00    +0.000 A 
ATOM      8  C   UNL     1       0.792   3.039  20.940  0.00  0.00    +0.000 A 
ATOM      9  N   UNL     1       1.058   3.830  19.875  0.00  0.00    +0.000 NA
ENDBRANCH   2   4
BRANCH   1  10
ATOM     10  C   UNL     1       3.308   7.035  17.340  0.00  0.00    +0.000 C 
BRANCH  10  12
ATOM     11  N   UNL     1       5.657   6.487  17.856  0.00  0.00    +0.000 N 
ATOM     12  C   UNL     1       4.761   6.836  16.847  0.00  0.00    +0.000 C 
ATOM     13  O   UNL     1       5.097   7.074  15.691  0.00  0.00    +0.000 OA
ATOM     14  H   UNL     1       5.254   6.092  18.697  0.00  0.00    +0.000 HD
BRANCH  11  16
ATOM     15  C   UNL     1       7.762   5.722  18.941  0.00  0.00    +0.000 C 
ATOM     16  C   UNL     1       7.118   6.334  17.685  0.00  0.00    +0.000 C 
ATOM     17  C   UNL     1       7.790   7.675  17.350  0.00  0.00    +0.000 C 
ATOM     18  C   UNL     1       7.388   5.365  16.514  0.00  0.00    +0.000 C 
ENDBRANCH  11  16
ENDBRANCH  10  12
ENDBRANCH   1  10
BRANCH   1  19
ATOM     19  C   UNL     1       2.646   6.978  19.813  0.00  0.00    +0.000 C 
BRANCH  19  20
ATOM     20  C   UNL     1       1.367   7.819  20.006  0.00  0.00    +0.000 C 
BRANCH  20  21
ATOM     21  N   UNL     1       1.382   9.141  19.347  0.00  0.00    +0.000 N 
ATOM     22  H   UNL     1       1.271   9.025  18.338  0.00  0.00    +0.000 HD
BRANCH  21  23
ATOM     23  C   UNL     1       0.442  10.097  19.795  0.00  0.00    +0.000 A 
ATOM     24  C   UNL     1       0.580  10.748  21.023  0.00  0.00    +0.000 A 
ATOM     25  C   UNL     1      -0.336  11.718  21.363  0.00  0.00    +0.000 A 
ATOM     26  N   UNL     1      -1.393  12.057  20.596  0.00  0.00    +0.000 NA
ATOM     27  C   UNL     1      -1.574  11.391  19.446  0.00  0.00    +0.000 A 
ATOM     28  C   UNL     1      -2.649  11.748  18.648  0.00  0.00    +0.000 A 
ATOM     29  C   UNL     1      -2.900  11.101  17.441  0.00  0.00    +0.000 A 
ATOM     30 CL   UNL     1      -4.214  11.610  16.453  0.00  0.00    +0.000 Cl
ATOM     31  C   UNL     1      -2.090  10.054  17.021  0.00  0.00    +0.000 A 
ATOM     32  C   UNL     1      -0.998   9.688  17.804  0.00  0.00    +0.000 A 
ATOM     33  C   UNL     1      -0.708  10.365  19.011  0.00  0.00    +0.000 A 
ENDBRANCH  21  23
ENDBRANCH  20  21
ENDBRANCH  19  20
ENDBRANCH   1  19
TORSDOF 8
ENDMDL
MODEL 5
REMARK VINA RESULT:      -7.3      2.034      5.351
REMARK  Name = 
REMARK  11 active torsions:
REMARK  status: ('A' for Active; 'I' for Inactive)
REMARK    1  A    between atoms: C_1  and  C_2
REMARK    2  A    between atoms: C_2  and  C_3
REMARK    3  A    between atoms: C_2  and  C_4
REMARK    4  A    between atoms: C_2  and  N_5
REMARK    5  A    between atoms: C_6  and  C_8
REMARK    6  A    between atoms: C_8  and  N_9
REMARK    7  A    between atoms: N_9  and  C_10
REMARK    8  A    between atoms: C_10  and  C_11
REMARK    9  A    between atoms: C_11  and  N_12
REMARK   10  A    between atoms: N_12  and  C_13
REMARK   11  A    between atoms: C_24  and  C_26
REMARK                            x       y       z     vdW  Elec       q    Type
REMARK                         _______ _______ _______ _____ _____    ______ ____
ROOT
ATOM      1  N   UNL     1       4.710   4.305  17.122  0.00  0.00    +0.000 N 
ATOM      2  C   UNL     1       4.160   3.091  17.581  0.00  0.00    +0.000 C 
ATOM      3  O   UNL     1       4.711   2.013  17.341  0.00  0.00    +0.000 OA
ENDROOT
BRANCH   2   4
ATOM      4  C   UNL     1       2.900   3.047  18.402  0.00  0.00    +0.000 A 
ATOM      5  C   UNL     1       2.999   2.887  19.777  0.00  0.00    +0.000 A 
ATOM      6  N   UNL     1       1.915   2.846  20.601  0.00  0.00    +0.000 NA
ATOM      7  C   UNL     1       0.718   2.957  19.987  0.00  0.00    +0.000 A 
ATOM      8  C   UNL     1       0.605   3.100  18.615  0.00  0.00    +0.000 A 
ATOM      9  N   UNL     1       1.681   3.146  17.795  0.00  0.00    +0.000 NA
ENDBRANCH   2   4
BRANCH   1  10
ATOM     10  C   UNL     1       5.938   4.229  16.312  0.00  0.00    +0.000 C 
BRANCH  10  12
ATOM     11  N   UNL     1       6.035   3.437  13.979  0.00  0.00    +0.000 N 
ATOM     12  C   UNL     1       5.777   4.530  14.803  0.00  0.00    +0.000 C 
ATOM     13  O   UNL     1       5.549   5.661  14.382  0.00  0.00    +0.000 OA
ATOM     14  H   UNL     1       5.980   2.523  14.413  0.00  0.00    +0.000 HD
BRANCH  11  16
ATOM     15  C   UNL     1       7.072   4.498  11.980  0.00  0.00    +0.000 C 
ATOM     16  C   UNL     1       6.054   3.468  12.500  0.00  0.00    +0.000 C 
ATOM     17  C   UNL     1       4.661   3.768  11.924  0.00  0.00    +0.000 C 
ATOM     18  C   UNL     1       6.494   2.084  11.975  0.00  0.00    +0.000 C 
ENDBRANCH  11  16
ENDBRANCH  10  12
ENDBRANCH   1  10
BRANCH   1  19
ATOM     19  C   UNL     1       4.056   5.596  17.383  0.00  0.00    +0.000 C 
BRANCH  19  20
ATOM     20  C   UNL     1       3.953   6.175  18.810  0.00  0.00    +0.000 C 
BRANCH  20  21
ATOM     21  N   UNL     1       2.586   6.525  19.246  0.00  0.00    +0.000 N 
ATOM     22  H   UNL     1       2.472   6.304  20.237  0.00  0.00    +0.000 HD
BRANCH  21  23
ATOM     23  C   UNL     1       2.161   7.856  19.031  0.00  0.00    +0.000 A 
ATOM     24  C   UNL     1       2.470   8.548  17.858  0.00  0.00    +0.000 A 
ATOM     25  C   UNL     1       1.963   9.817  17.686  0.00  0.00    +0.000 A 
ATOM     26  N   UNL     1       1.211  10.457  18.606  0.00  0.00    +0.000 NA
ATOM     27  C   UNL     1       0.965   9.828  19.764  0.00  0.00    +0.000 A 
ATOM     28  C   UNL     1       0.180  10.477  20.704  0.00  0.00    +0.000 A 
ATOM     29  C   UNL     1      -0.118   9.885  21.929  0.00  0.00    +0.000 A 
ATOM     30 CL   UNL     1      -1.141  10.701  23.047  0.00  0.00    +0.000 Cl
ATOM     31  C   UNL     1       0.395   8.637  22.252  0.00  0.00    +0.000 A 
ATOM     32  C   UNL     1       1.178   7.965  21.317  0.00  0.00    +0.000 A 
ATOM     33  C   UNL     1       1.453   8.535  20.053  0.00  0.00    +0.000 A 
ENDBRANCH  21  23
ENDBRANCH  20  21
ENDBRANCH  19  20
ENDBRANCH   1  19
TORSDOF 8
ENDMDL
MODEL 6
REMARK VINA RESULT:      -7.3      1.922      3.024
REMARK  Name = 
REMARK  11 active torsions:
REMARK  status: ('A' for Active; 'I' for Inactive)
REMARK    1  A    between atoms: C_1  and  C_2
REMARK    2  A    between atoms: C_2  and  C_3
REMARK    3  A    between atoms: C_2  and  C_4
REMARK    4  A    between atoms: C_2  and  N_5
REMARK    5  A    between atoms: C_6  and  C_8
REMARK    6  A    between atoms: C_8  and  N_9
REMARK    7  A    between atoms: N_9  and  C_10
REMARK    8  A    between atoms: C_10  and  C_11
REMARK    9  A    between atoms: C_11  and  N_12
REMARK   10  A    between atoms: N_12  and  C_13
REMARK   11  A    between atoms: C_24  and  C_26
REMARK                            x       y       z     vdW  Elec       q    Type
REMARK                         _______ _______ _______ _____ _____    ______ ____
ROOT
ATOM      1  N   UNL     1       4.250   6.005  18.433  0.00  0.00    +0.000 N 
ATOM      2  C   UNL     1       5.361   5.165  18.217  0.00  0.00    +0.000 C 
ATOM      3  O   UNL     1       5.893   4.562  19.153  0.00  0.00    +0.000 OA
ENDROOT
BRANCH   2   4
ATOM      4  C   UNL     1       5.935   4.941  16.844  0.00  0.00    +0.000 A 
ATOM      5  C   UNL     1       7.024   5.700  16.440  0.00  0.00    +0.000 A 
ATOM      6  N   UNL     1       7.617   5.559  15.221  0.00  0.00    +0.000 NA
ATOM      7  C   UNL     1       7.062   4.631  14.412  0.00  0.00    +0.000 A 
ATOM      8  C   UNL     1       5.966   3.880  14.798  0.00  0.00    +0.000 A 
ATOM      9  N   UNL     1       5.379   4.015  16.010  0.00  0.00    +0.000 NA
ENDBRANCH   2   4
BRANCH   1  10
ATOM     10  C   UNL     1       3.782   6.165  19.821  0.00  0.00    +0.000 C 
BRANCH  10  12
ATOM     11  N   UNL     1       2.837   3.887  19.826  0.00  0.00    +0.000 N 
ATOM     12  C   UNL     1       2.668   5.193  20.279  0.00  0.00    +0.000 C 
ATOM     13  O   UNL     1       1.677   5.578  20.894  0.00  0.00    +0.000 OA
ATOM     14  H   UNL     1       3.774   3.627  19.542  0.00  0.00    +0.000 HD
BRANCH  11  16
ATOM     15  C   UNL     1       1.540   2.606  21.521  0.00  0.00    +0.000 C 
ATOM     16  C   UNL     1       1.876   2.781  20.030  0.00  0.00    +0.000 C 
ATOM     17  C   UNL     1       2.405   1.460  19.451  0.00  0.00    +0.000 C 
ATOM     18  C   UNL     1       0.558   3.122  19.301  0.00  0.00    +0.000 C 
ENDBRANCH  11  16
ENDBRANCH  10  12
ENDBRANCH   1  10
BRANCH   1  19
ATOM     19  C   UNL     1       3.616   6.745  17.333  0.00  0.00    +0.000 C 
BRANCH  19  20
ATOM     20  C   UNL     1       3.221   8.230  17.480  0.00  0.00    +0.000 C 
BRANCH  20  21
ATOM     21  N   UNL     1       1.979   8.475  18.241  0.00  0.00    +0.000 N 
ATOM     22  H   UNL     1       1.949   7.863  19.059  0.00  0.00    +0.000 HD
BRANCH  21  23
ATOM     23  C   UNL     1       1.729   9.801  18.663  0.00  0.00    +0.000 A 
ATOM     24  C   UNL     1       2.232  10.902  17.966  0.00  0.00    +0.000 A 
ATOM     25  C   UNL     1       1.891  12.166  18.394  0.00  0.00    +0.000 A 
ATOM     26  N   UNL     1       1.126  12.412  19.478  0.00  0.00    +0.000 NA
ATOM     27  C   UNL     1       0.694  11.363  20.194  0.00  0.00    +0.000 A 
ATOM     28  C   UNL     1      -0.104  11.613  21.299  0.00  0.00    +0.000 A 
ATOM     29  C   UNL     1      -0.589  10.573  22.089  0.00  0.00    +0.000 A 
ATOM     30 CL   UNL     1      -1.622  10.921  23.421  0.00  0.00    +0.000 Cl
ATOM     31  C   UNL     1      -0.255   9.256  21.805  0.00  0.00    +0.000 A 
ATOM     32  C   UNL     1       0.538   8.985  20.693  0.00  0.00    +0.000 A 
ATOM     33  C   UNL     1       1.002  10.028  19.857  0.00  0.00    +0.000 A 
ENDBRANCH  21  23
ENDBRANCH  20  21
ENDBRANCH  19  20
ENDBRANCH   1  19
TORSDOF 8
ENDMDL
MODEL 7
REMARK VINA RESULT:      -7.2      2.734      5.821
REMARK  Name = 
REMARK  11 active torsions:
REMARK  status: ('A' for Active; 'I' for Inactive)
REMARK    1  A    between atoms: C_1  and  C_2
REMARK    2  A    between atoms: C_2  and  C_3
REMARK    3  A    between atoms: C_2  and  C_4
REMARK    4  A    between atoms: C_2  and  N_5
REMARK    5  A    between atoms: C_6  and  C_8
REMARK    6  A    between atoms: C_8  and  N_9
REMARK    7  A    between atoms: N_9  and  C_10
REMARK    8  A    between atoms: C_10  and  C_11
REMARK    9  A    between atoms: C_11  and  N_12
REMARK   10  A    between atoms: N_12  and  C_13
REMARK   11  A    between atoms: C_24  and  C_26
REMARK                            x       y       z     vdW  Elec       q    Type
REMARK                         _______ _______ _______ _____ _____    ______ ____
ROOT
ATOM      1  N   UNL     1       2.938   6.344  18.552  0.00  0.00    +0.000 N 
ATOM      2  C   UNL     1       2.793   4.949  18.414  0.00  0.00    +0.000 C 
ATOM      3  O   UNL     1       3.025   4.390  17.337  0.00  0.00    +0.000 OA
ENDROOT
BRANCH   2   4
ATOM      4  C   UNL     1       2.376   4.072  19.563  0.00  0.00    +0.000 A 
ATOM      5  C   UNL     1       1.028   3.801  19.747  0.00  0.00    +0.000 A 
ATOM      6  N   UNL     1       0.559   3.010  20.753  0.00  0.00    +0.000 NA
ATOM      7  C   UNL     1       1.500   2.511  21.582  0.00  0.00    +0.000 A 
ATOM      8  C   UNL     1       2.846   2.787  21.419  0.00  0.00    +0.000 A 
ATOM      9  N   UNL     1       3.314   3.569  20.418  0.00  0.00    +0.000 NA
ENDBRANCH   2   4
BRANCH   1  10
ATOM     10  C   UNL     1       3.334   7.106  17.356  0.00  0.00    +0.000 C 
BRANCH  10  12
ATOM     11  N   UNL     1       5.672   6.477  17.826  0.00  0.00    +0.000 N 
ATOM     12  C   UNL     1       4.769   6.856  16.835  0.00  0.00    +0.000 C 
ATOM     13  O   UNL     1       5.091   7.083  15.672  0.00  0.00    +0.000 OA
ATOM     14  H   UNL     1       5.272   6.097  18.676  0.00  0.00    +0.000 HD
BRANCH  11  16
ATOM     15  C   UNL     1       7.395   5.377  16.405  0.00  0.00    +0.000 C 
ATOM     16  C   UNL     1       7.123   6.273  17.627  0.00  0.00    +0.000 C 
ATOM     17  C   UNL     1       7.785   5.672  18.877  0.00  0.00    +0.000 C 
ATOM     18  C   UNL     1       7.788   7.638  17.350  0.00  0.00    +0.000 C 
ENDBRANCH  11  16
ENDBRANCH  10  12
ENDBRANCH   1  10
BRANCH   1  19
ATOM     19  C   UNL     1       2.647   7.028  19.821  0.00  0.00    +0.000 C 
BRANCH  19  20
ATOM     20  C   UNL     1       1.361   7.859  20.014  0.00  0.00    +0.000 C 
BRANCH  20  21
ATOM     21  N   UNL     1       1.356   9.171  19.334  0.00  0.00    +0.000 N 
ATOM     22  H   UNL     1       1.227   9.039  18.329  0.00  0.00    +0.000 HD
BRANCH  21  23
ATOM     23  C   UNL     1       0.420  10.129  19.786  0.00  0.00    +0.000 A 
ATOM     24  C   UNL     1       0.569  10.786  21.009  0.00  0.00    +0.000 A 
ATOM     25  C   UNL     1      -0.345  11.758  21.353  0.00  0.00    +0.000 A 
ATOM     26  N   UNL     1      -1.408  12.092  20.593  0.00  0.00    +0.000 NA
ATOM     27  C   UNL     1      -1.599  11.421  19.448  0.00  0.00    +0.000 A 
ATOM     28  C   UNL     1      -2.682  11.773  18.659  0.00  0.00    +0.000 A 
ATOM     29  C   UNL     1      -2.942  11.120  17.456  0.00  0.00    +0.000 A 
ATOM     30 CL   UNL     1      -4.266  11.624  16.478  0.00  0.00    +0.000 Cl
ATOM     31  C   UNL     1      -2.136  10.072  17.035  0.00  0.00    +0.000 A 
ATOM     32  C   UNL     1      -1.038   9.709  17.810  0.00  0.00    +0.000 A 
ATOM     33  C   UNL     1      -0.737  10.392  19.011  0.00  0.00    +0.000 A 
ENDBRANCH  21  23
ENDBRANCH  20  21
ENDBRANCH  19  20
ENDBRANCH   1  19
TORSDOF 8
ENDMDL
MODEL 8
REMARK VINA RESULT:      -7.2      1.995      5.275
REMARK  Name = 
REMARK  11 active torsions:
REMARK  status: ('A' for Active; 'I' for Inactive)
REMARK    1  A    between atoms: C_1  and  C_2
REMARK    2  A    between atoms: C_2  and  C_3
REMARK    3  A    between atoms: C_2  and  C_4
REMARK    4  A    between atoms: C_2  and  N_5
REMARK    5  A    between atoms: C_6  and  C_8
REMARK    6  A    between atoms: C_8  and  N_9
REMARK    7  A    between atoms: N_9  and  C_10
REMARK    8  A    between atoms: C_10  and  C_11
REMARK    9  A    between atoms: C_11  and  N_12
REMARK   10  A    between atoms: N_12  and  C_13
REMARK   11  A    between atoms: C_24  and  C_26
REMARK                            x       y       z     vdW  Elec       q    Type
REMARK                         _______ _______ _______ _____ _____    ______ ____
ROOT
ATOM      1  N   UNL     1       5.104   4.337  17.442  0.00  0.00    +0.000 N 
ATOM      2  C   UNL     1       4.219   3.278  17.728  0.00  0.00    +0.000 C 
ATOM      3  O   UNL     1       4.356   2.173  17.192  0.00  0.00    +0.000 OA
ENDROOT
BRANCH   2   4
ATOM      4  C   UNL     1       3.088   3.426  18.709  0.00  0.00    +0.000 A 
ATOM      5  C   UNL     1       1.785   3.447  18.233  0.00  0.00    +0.000 A 
ATOM      6  N   UNL     1       0.698   3.567  19.047  0.00  0.00    +0.000 NA
ATOM      7  C   UNL     1       0.972   3.680  20.364  0.00  0.00    +0.000 A 
ATOM      8  C   UNL     1       2.268   3.677  20.849  0.00  0.00    +0.000 A 
ATOM      9  N   UNL     1       3.348   3.553  20.043  0.00  0.00    +0.000 NA
ENDBRANCH   2   4
BRANCH   1  10
ATOM     10  C   UNL     1       6.165   4.085  16.452  0.00  0.00    +0.000 C 
BRANCH  10  12
ATOM     11  N   UNL     1       6.196   3.366  14.094  0.00  0.00    +0.000 N 
ATOM     12  C   UNL     1       5.799   4.368  14.976  0.00  0.00    +0.000 C 
ATOM     13  O   UNL     1       5.300   5.432  14.618  0.00  0.00    +0.000 OA
ATOM     14  H   UNL     1       6.375   2.455  14.499  0.00  0.00    +0.000 HD
BRANCH  11  16
ATOM     15  C   UNL     1       4.641   3.839  12.208  0.00  0.00    +0.000 C 
ATOM     16  C   UNL     1       6.064   3.422  12.621  0.00  0.00    +0.000 C 
ATOM     17  C   UNL     1       6.428   2.079  11.970  0.00  0.00    +0.000 C 
ATOM     18  C   UNL     1       7.032   4.492  12.071  0.00  0.00    +0.000 C 
ENDBRANCH  11  16
ENDBRANCH  10  12
ENDBRANCH   1  10
BRANCH   1  19
ATOM     19  C   UNL     1       4.944   5.663  18.057  0.00  0.00    +0.000 C 
BRANCH  19  20
ATOM     20  C   UNL     1       3.839   6.638  17.596  0.00  0.00    +0.000 C 
BRANCH  20  21
ATOM     21  N   UNL     1       2.773   6.888  18.587  0.00  0.00    +0.000 N 
ATOM     22  H   UNL     1       3.110   6.656  19.523  0.00  0.00    +0.000 HD
BRANCH  21  23
ATOM     23  C   UNL     1       2.212   8.185  18.620  0.00  0.00    +0.000 A 
ATOM     24  C   UNL     1       2.357   9.078  17.555  0.00  0.00    +0.000 A 
ATOM     25  C   UNL     1       1.725  10.300  17.627  0.00  0.00    +0.000 A 
ATOM     26  N   UNL     1       1.000  10.710  18.688  0.00  0.00    +0.000 NA
ATOM     27  C   UNL     1       0.910   9.888  19.744  0.00  0.00    +0.000 A 
ATOM     28  C   UNL     1       0.152  10.301  20.828  0.00  0.00    +0.000 A 
ATOM     29  C   UNL     1       0.014   9.500  21.959  0.00  0.00    +0.000 A 
ATOM     30 CL   UNL     1      -0.980  10.025  23.263  0.00  0.00    +0.000 Cl
ATOM     31  C   UNL     1       0.663   8.276  22.040  0.00  0.00    +0.000 A 
ATOM     32  C   UNL     1       1.421   7.839  20.956  0.00  0.00    +0.000 A 
ATOM     33  C   UNL     1       1.535   8.623  19.785  0.00  0.00    +0.000 A 
ENDBRANCH  21  23
ENDBRANCH  20  21
ENDBRANCH  19  20
ENDBRANCH   1  19
TORSDOF 8
ENDMDL
MODEL 9
REMARK VINA RESULT:      -7.2      0.992      1.347
REMARK  Name = 
REMARK  11 active torsions:
REMARK  status: ('A' for Active; 'I' for Inactive)
REMARK    1  A    between atoms: C_1  and  C_2
REMARK    2  A    between atoms: C_2  and  C_3
REMARK    3  A    between atoms: C_2  and  C_4
REMARK    4  A    between atoms: C_2  and  N_5
REMARK    5  A    between atoms: C_6  and  C_8
REMARK    6  A    between atoms: C_8  and  N_9
REMARK    7  A    between atoms: N_9  and  C_10
REMARK    8  A    between atoms: C_10  and  C_11
REMARK    9  A    between atoms: C_11  and  N_12
REMARK   10  A    between atoms: N_12  and  C_13
REMARK   11  A    between atoms: C_24  and  C_26
REMARK                            x       y       z     vdW  Elec       q    Type
REMARK                         _______ _______ _______ _____ _____    ______ ____
ROOT
ATOM      1  N   UNL     1       5.446   5.061  17.694  0.00  0.00    +0.000 N 
ATOM      2  C   UNL     1       6.531   4.433  17.050  0.00  0.00    +0.000 C 
ATOM      3  O   UNL     1       7.345   3.758  17.689  0.00  0.00    +0.000 OA
ENDROOT
BRANCH   2   4
ATOM      4  C   UNL     1       6.740   4.529  15.564  0.00  0.00    +0.000 A 
ATOM      5  C   UNL     1       7.689   5.416  15.075  0.00  0.00    +0.000 A 
ATOM      6  N   UNL     1       7.954   5.564  13.746  0.00  0.00    +0.000 NA
ATOM      7  C   UNL     1       7.216   4.792  12.920  0.00  0.00    +0.000 A 
ATOM      8  C   UNL     1       6.256   3.915  13.395  0.00  0.00    +0.000 A 
ATOM      9  N   UNL     1       5.994   3.764  14.715  0.00  0.00    +0.000 NA
ENDBRANCH   2   4
BRANCH   1  10
ATOM     10  C   UNL     1       5.349   4.914  19.157  0.00  0.00    +0.000 C 
BRANCH  10  12
ATOM     11  N   UNL     1       3.150   3.926  19.674  0.00  0.00    +0.000 N 
ATOM     12  C   UNL     1       4.525   3.708  19.666  0.00  0.00    +0.000 C 
ATOM     13  O   UNL     1       5.057   2.698  20.119  0.00  0.00    +0.000 OA
ATOM     14  H   UNL     1       2.809   4.670  19.077  0.00  0.00    +0.000 HD
BRANCH  11  16
ATOM     15  C   UNL     1       2.458   2.586  21.654  0.00  0.00    +0.000 C 
ATOM     16  C   UNL     1       2.139   2.984  20.203  0.00  0.00    +0.000 C 
ATOM     17  C   UNL     1       2.025   1.728  19.325  0.00  0.00    +0.000 C 
ATOM     18  C   UNL     1       0.761   3.680  20.212  0.00  0.00    +0.000 C 
ENDBRANCH  11  16
ENDBRANCH  10  12
ENDBRANCH   1  10
BRANCH   1  19
ATOM     19  C   UNL     1       4.480   5.884  16.952  0.00  0.00    +0.000 C 
BRANCH  19  20
ATOM     20  C   UNL     1       4.235   7.365  17.314  0.00  0.00    +0.000 C 
BRANCH  20  21
ATOM     21  N   UNL     1       2.814   7.765  17.382  0.00  0.00    +0.000 N 
ATOM     22  H   UNL     1       2.244   7.109  16.845  0.00  0.00    +0.000 HD
BRANCH  21  23
ATOM     23  C   UNL     1       2.244   7.907  18.668  0.00  0.00    +0.000 A 
ATOM     24  C   UNL     1       2.285   6.876  19.610  0.00  0.00    +0.000 A 
ATOM     25  C   UNL     1       1.771   7.109  20.866  0.00  0.00    +0.000 A 
ATOM     26  N   UNL     1       1.189   8.268  21.238  0.00  0.00    +0.000 NA
ATOM     27  C   UNL     1       1.083   9.241  20.320  0.00  0.00    +0.000 A 
ATOM     28  C   UNL     1       0.500  10.438  20.704  0.00  0.00    +0.000 A 
ATOM     29  C   UNL     1       0.357  11.492  19.805  0.00  0.00    +0.000 A 
ATOM     30 CL   UNL     1      -0.324  12.981  20.335  0.00  0.00    +0.000 Cl
ATOM     31  C   UNL     1       0.769  11.356  18.487  0.00  0.00    +0.000 A 
ATOM     32  C   UNL     1       1.367  10.164  18.085  0.00  0.00    +0.000 A 
ATOM     33  C   UNL     1       1.557   9.101  18.998  0.00  0.00    +0.000 A 
ENDBRANCH  21  23
ENDBRANCH  20  21
ENDBRANCH  19  20
ENDBRANCH   1  19
TORSDOF 8
ENDMDL
