MODEL 1
REMARK VINA RESULT:      -8.5      0.000      0.000
REMARK  Name = 
REMARK  5 active torsions:
REMARK  status: ('A' for Active; 'I' for Inactive)
REMARK    1  A    between atoms: N_3  and  C_4
REMARK    2  A    between atoms: C_4  and  C_5
REMARK    3  A    between atoms: N_7  and  C_8
REMARK    4  A    between atoms: C_11  and  N_12
REMARK    5  A    between atoms: N_24  and  C_25
REMARK                            x       y       z     vdW  Elec       q    Type
REMARK                         _______ _______ _______ _____ _____    ______ ____
ROOT
ATOM      1  C   UNL     1       4.281   4.362  19.839  0.00  0.00    +0.000 C 
ATOM      2  C   UNL     1       4.038   5.677  19.131  0.00  0.00    +0.000 C 
ATOM      3  N   UNL     1       2.740   6.055  19.604  0.00  0.00    +0.000 N 
ATOM      4  C   UNL     1       2.097   4.944  20.127  0.00  0.00    +0.000 C 
ATOM      5  O   UNL     1       0.944   4.831  20.504  0.00  0.00    +0.000 OA
ATOM      6  O   UNL     1       2.962   3.881  20.150  0.00  0.00    +0.000 OA
ENDROOT
BRANCH   3   7
ATOM      7  C   UNL     1       2.188   7.347  19.433  0.00  0.00    +0.000 A 
ATOM      8  C   UNL     1       2.188   7.984  18.189  0.00  0.00    +0.000 A 
ATOM      9  C   UNL     1       1.626   9.261  18.018  0.00  0.00    +0.000 A 
ATOM     10  C   UNL     1       1.045   9.955  19.083  0.00  0.00    +0.000 A 
ATOM     11  C   UNL     1       1.057   9.298  20.327  0.00  0.00    +0.000 A 
ATOM     12  F   UNL     1       0.577   9.918  21.419  0.00  0.00    +0.000 F 
ATOM     13  C   UNL     1       1.606   8.025  20.507  0.00  0.00    +0.000 A 
BRANCH  10  14
ATOM     14  N   UNL     1       0.540  11.240  18.949  0.00  0.00    +0.000 N 
ATOM     15  C   UNL     1      -0.902  11.517  19.024  0.00  0.00    +0.000 C 
ATOM     16  C   UNL     1      -1.188  12.815  18.249  0.00  0.00    +0.000 C 
ATOM     17  O   UNL     1      -0.417  13.918  18.756  0.00  0.00    +0.000 OA
ATOM     18  C   UNL     1       0.992  13.629  18.664  0.00  0.00    +0.000 C 
ATOM     19  C   UNL     1       1.358  12.363  19.454  0.00  0.00    +0.000 C 
ENDBRANCH  10  14
ENDBRANCH   3   7
BRANCH   1  20
ATOM     20  C   UNL     1       4.993   3.331  18.966  0.00  0.00    +0.000 C 
BRANCH  20  23
ATOM     21  O   UNL     1       6.845   4.140  17.087  0.00  0.00    +0.000 OA
ATOM     22  C   UNL     1       5.712   3.904  16.689  0.00  0.00    +0.000 C 
ATOM     23  N   UNL     1       4.702   3.530  17.553  0.00  0.00    +0.000 N 
ATOM     24  N   UNL     1       5.251   3.976  15.393  0.00  0.00    +0.000 N 
ATOM     25  H   UNL     1       4.010   2.904  17.161  0.00  0.00    +0.000 HD
ATOM     26  H   UNL     1       4.248   4.026  15.290  0.00  0.00    +0.000 HD
BRANCH  24  27
ATOM     27  C   UNL     1       6.021   4.199  14.234  0.00  0.00    +0.000 A 
ATOM     28  C   UNL     1       7.080   5.108  14.180  0.00  0.00    +0.000 A 
ATOM     29  C   UNL     1       7.821   5.266  13.005  0.00  0.00    +0.000 A 
ATOM     30  C   UNL     1       7.512   4.518  11.874  0.00  0.00    +0.000 A 
ATOM     31  C   UNL     1       6.459   3.607  11.917  0.00  0.00    +0.000 A 
ATOM     32  C   UNL     1       5.721   3.442  13.093  0.00  0.00    +0.000 A 
ENDBRANCH  24  27
ENDBRANCH  20  23
ENDBRANCH   1  20
TORSDOF 5
ENDMDL
MODEL 2
REMARK VINA RESULT:      -8.5      0.916      1.262
REMARK  Name = 
REMARK  5 active torsions:
REMARK  status: ('A' for Active; 'I' for Inactive)
REMARK    1  A    between atoms: N_3  and  C_4
REMARK    2  A    between atoms: C_4  and  C_5
REMARK    3  A    between atoms: N_7  and  C_8
REMARK    4  A    between atoms: C_11  and  N_12
REMARK    5  A    between atoms: N_24  and  C_25
REMARK                            x       y       z     vdW  Elec       q    Type
REMARK                         _______ _______ _______ _____ _____    ______ ____
ROOT
ATOM      1  C   UNL     1       4.251   4.304  19.951  0.00  0.00    +0.000 C 
ATOM      2  C   UNL     1       4.018   5.683  19.375  0.00  0.00    +0.000 C 
ATOM      3  N   UNL     1       2.681   5.979  19.797  0.00  0.00    +0.000 N 
ATOM      4  C   UNL     1       2.038   4.804  20.152  0.00  0.00    +0.000 C 
ATOM      5  O   UNL     1       0.866   4.626  20.437  0.00  0.00    +0.000 OA
ATOM      6  O   UNL     1       2.930   3.764  20.119  0.00  0.00    +0.000 OA
ENDROOT
BRANCH   3   7
ATOM      7  C   UNL     1       2.105   7.271  19.730  0.00  0.00    +0.000 A 
ATOM      8  C   UNL     1       1.443   7.834  20.825  0.00  0.00    +0.000 A 
ATOM      9  C   UNL     1       0.884   9.122  20.761  0.00  0.00    +0.000 A 
ATOM     10  C   UNL     1       0.959   9.897  19.601  0.00  0.00    +0.000 A 
ATOM     11  C   UNL     1       1.626   9.312  18.509  0.00  0.00    +0.000 A 
ATOM     12  F   UNL     1       1.690   9.960  17.334  0.00  0.00    +0.000 F 
ATOM     13  C   UNL     1       2.193   8.035  18.565  0.00  0.00    +0.000 A 
BRANCH  10  14
ATOM     14  N   UNL     1       0.361  11.145  19.498  0.00  0.00    +0.000 N 
ATOM     15  C   UNL     1      -0.897  11.341  18.762  0.00  0.00    +0.000 C 
ATOM     16  C   UNL     1      -0.965  12.806  18.298  0.00  0.00    +0.000 C 
ATOM     17  O   UNL     1      -0.856  13.720  19.403  0.00  0.00    +0.000 OA
ATOM     18  C   UNL     1       0.387  13.517  20.102  0.00  0.00    +0.000 C 
ATOM     19  C   UNL     1       0.504  12.079  20.633  0.00  0.00    +0.000 C 
ENDBRANCH  10  14
ENDBRANCH   3   7
BRANCH   1  20
ATOM     20  C   UNL     1       5.047   3.390  19.022  0.00  0.00    +0.000 C 
BRANCH  20  23
ATOM     21  O   UNL     1       6.901   4.078  17.097  0.00  0.00    +0.000 OA
ATOM     22  C   UNL     1       5.741   3.944  16.732  0.00  0.00    +0.000 C 
ATOM     23  N   UNL     1       4.731   3.639  17.622  0.00  0.00    +0.000 N 
ATOM     24  N   UNL     1       5.248   4.078  15.453  0.00  0.00    +0.000 N 
ATOM     25  H   UNL     1       3.977   3.079  17.243  0.00  0.00    +0.000 HD
ATOM     26  H   UNL     1       4.250   4.213  15.383  0.00  0.00    +0.000 HD
BRANCH  24  27
ATOM     27  C   UNL     1       5.998   4.258  14.273  0.00  0.00    +0.000 A 
ATOM     28  C   UNL     1       7.080   5.135  14.180  0.00  0.00    +0.000 A 
ATOM     29  C   UNL     1       7.799   5.251  12.986  0.00  0.00    +0.000 A 
ATOM     30  C   UNL     1       7.444   4.492  11.876  0.00  0.00    +0.000 A 
ATOM     31  C   UNL     1       6.367   3.613  11.959  0.00  0.00    +0.000 A 
ATOM     32  C   UNL     1       5.651   3.490  13.154  0.00  0.00    +0.000 A 
ENDBRANCH  24  27
ENDBRANCH  20  23
ENDBRANCH   1  20
TORSDOF 5
ENDMDL
MODEL 3
REMARK VINA RESULT:      -8.4      0.295      1.271
REMARK  Name = 
REMARK  5 active torsions:
REMARK  status: ('A' for Active; 'I' for Inactive)
REMARK    1  A    between atoms: N_3  and  C_4
REMARK    2  A    between atoms: C_4  and  C_5
REMARK    3  A    between atoms: N_7  and  C_8
REMARK    4  A    between atoms: C_11  and  N_12
REMARK    5  A    between atoms: N_24  and  C_25
REMARK                            x       y       z     vdW  Elec       q    Type
REMARK                         _______ _______ _______ _____ _____    ______ ____
ROOT
ATOM      1  C   UNL     1       4.314   4.473  19.850  0.00  0.00    +0.000 C 
ATOM      2  C   UNL     1       4.060   5.799  19.167  0.00  0.00    +0.000 C 
ATOM      3  N   UNL     1       2.756   6.154  19.642  0.00  0.00    +0.000 N 
ATOM      4  C   UNL     1       2.123   5.025  20.139  0.00  0.00    +0.000 C 
ATOM      5  O   UNL     1       0.970   4.892  20.509  0.00  0.00    +0.000 OA
ATOM      6  O   UNL     1       3.000   3.971  20.145  0.00  0.00    +0.000 OA
ENDROOT
BRANCH   3   7
ATOM      7  C   UNL     1       2.190   7.443  19.494  0.00  0.00    +0.000 A 
ATOM      8  C   UNL     1       2.217   8.118  18.271  0.00  0.00    +0.000 A 
ATOM      9  C   UNL     1       1.642   9.392  18.123  0.00  0.00    +0.000 A 
ATOM     10  C   UNL     1       1.019  10.044  19.190  0.00  0.00    +0.000 A 
ATOM     11  C   UNL     1       1.004   9.349  20.414  0.00  0.00    +0.000 A 
ATOM     12  F   UNL     1       0.483   9.927  21.509  0.00  0.00    +0.000 F 
ATOM     13  C   UNL     1       1.566   8.078  20.570  0.00  0.00    +0.000 A 
BRANCH  10  14
ATOM     14  N   UNL     1       0.500  11.326  19.081  0.00  0.00    +0.000 N 
ATOM     15  C   UNL     1       1.324  12.459  18.637  0.00  0.00    +0.000 C 
ATOM     16  C   UNL     1       0.712  13.755  19.198  0.00  0.00    +0.000 C 
ATOM     17  O   UNL     1      -0.659  13.914  18.794  0.00  0.00    +0.000 OA
ATOM     18  C   UNL     1      -1.449  12.798  19.249  0.00  0.00    +0.000 C 
ATOM     19  C   UNL     1      -0.918  11.469  18.689  0.00  0.00    +0.000 C 
ENDBRANCH  10  14
ENDBRANCH   3   7
BRANCH   1  20
ATOM     20  C   UNL     1       5.042   3.468  18.959  0.00  0.00    +0.000 C 
BRANCH  20  23
ATOM     21  O   UNL     1       6.906   4.082  17.020  0.00  0.00    +0.000 OA
ATOM     22  C   UNL     1       5.746   3.944  16.655  0.00  0.00    +0.000 C 
ATOM     23  N   UNL     1       4.731   3.673  17.551  0.00  0.00    +0.000 N 
ATOM     24  N   UNL     1       5.259   4.039  15.371  0.00  0.00    +0.000 N 
ATOM     25  H   UNL     1       3.975   3.107  17.187  0.00  0.00    +0.000 HD
ATOM     26  H   UNL     1       4.262   4.178  15.293  0.00  0.00    +0.000 HD
BRANCH  24  27
ATOM     27  C   UNL     1       6.014   4.176  14.188  0.00  0.00    +0.000 A 
ATOM     28  C   UNL     1       5.767   3.433  13.032  0.00  0.00    +0.000 A 
ATOM     29  C   UNL     1       6.537   3.634  11.882  0.00  0.00    +0.000 A 
ATOM     30  C   UNL     1       7.559   4.577  11.877  0.00  0.00    +0.000 A 
ATOM     31  C   UNL     1       7.812   5.325  13.024  0.00  0.00    +0.000 A 
ATOM     32  C   UNL     1       7.039   5.131  14.173  0.00  0.00    +0.000 A 
ENDBRANCH  24  27
ENDBRANCH  20  23
ENDBRANCH   1  20
TORSDOF 5
ENDMDL
MODEL 4
REMARK VINA RESULT:      -8.0      3.713     11.271
REMARK  Name = 
REMARK  5 active torsions:
REMARK  status: ('A' for Active; 'I' for Inactive)
REMARK    1  A    between atoms: N_3  and  C_4
REMARK    2  A    between atoms: C_4  and  C_5
REMARK    3  A    between atoms: N_7  and  C_8
REMARK    4  A    between atoms: C_11  and  N_12
REMARK    5  A    between atoms: N_24  and  C_25
REMARK                            x       y       z     vdW  Elec       q    Type
REMARK                         _______ _______ _______ _____ _____    ______ ____
ROOT
ATOM      1  C   UNL     1      -0.211  13.028  19.521  0.00  0.00    +0.000 C 
ATOM      2  C   UNL     1       0.543  11.858  20.115  0.00  0.00    +0.000 C 
ATOM      3  N   UNL     1       0.315  10.817  19.157  0.00  0.00    +0.000 N 
ATOM      4  C   UNL     1      -0.777  11.146  18.369  0.00  0.00    +0.000 C 
ATOM      5  O   UNL     1      -1.357  10.468  17.539  0.00  0.00    +0.000 OA
ATOM      6  O   UNL     1      -1.193  12.418  18.668  0.00  0.00    +0.000 OA
ENDROOT
BRANCH   3   7
ATOM      7  C   UNL     1       1.037   9.600  19.133  0.00  0.00    +0.000 A 
ATOM      8  C   UNL     1       1.767   9.205  18.008  0.00  0.00    +0.000 A 
ATOM      9  C   UNL     1       2.495   8.003  17.991  0.00  0.00    +0.000 A 
ATOM     10  C   UNL     1       2.522   7.146  19.094  0.00  0.00    +0.000 A 
ATOM     11  C   UNL     1       1.780   7.560  20.216  0.00  0.00    +0.000 A 
ATOM     12  F   UNL     1       1.698   6.768  21.298  0.00  0.00    +0.000 F 
ATOM     13  C   UNL     1       1.059   8.758  20.246  0.00  0.00    +0.000 A 
BRANCH  10  14
ATOM     14  N   UNL     1       3.185   5.927  19.076  0.00  0.00    +0.000 N 
ATOM     15  C   UNL     1       2.455   4.651  19.074  0.00  0.00    +0.000 C 
ATOM     16  C   UNL     1       3.371   3.567  19.669  0.00  0.00    +0.000 C 
ATOM     17  O   UNL     1       4.611   3.463  18.948  0.00  0.00    +0.000 OA
ATOM     18  C   UNL     1       5.312   4.721  18.972  0.00  0.00    +0.000 C 
ATOM     19  C   UNL     1       4.469   5.846  18.351  0.00  0.00    +0.000 C 
ENDBRANCH  10  14
ENDBRANCH   3   7
BRANCH   1  20
ATOM     20  C   UNL     1      -0.923  13.879  20.570  0.00  0.00    +0.000 C 
BRANCH  20  23
ATOM     21  O   UNL     1      -2.790  12.360  21.919  0.00  0.00    +0.000 OA
ATOM     22  C   UNL     1      -3.211  13.156  21.089  0.00  0.00    +0.000 C 
ATOM     23  N   UNL     1      -2.359  13.936  20.334  0.00  0.00    +0.000 N 
ATOM     24  N   UNL     1      -4.525  13.400  20.760  0.00  0.00    +0.000 N 
ATOM     25  H   UNL     1      -2.720  14.846  20.078  0.00  0.00    +0.000 HD
ATOM     26  H   UNL     1      -4.673  13.866  19.877  0.00  0.00    +0.000 HD
BRANCH  24  27
ATOM     27  C   UNL     1      -5.668  12.888  21.407  0.00  0.00    +0.000 A 
ATOM     28  C   UNL     1      -6.511  11.935  20.832  0.00  0.00    +0.000 A 
ATOM     29  C   UNL     1      -7.617  11.449  21.537  0.00  0.00    +0.000 A 
ATOM     30  C   UNL     1      -7.890  11.909  22.820  0.00  0.00    +0.000 A 
ATOM     31  C   UNL     1      -7.054  12.859  23.404  0.00  0.00    +0.000 A 
ATOM     32  C   UNL     1      -5.944  13.341  22.704  0.00  0.00    +0.000 A 
ENDBRANCH  24  27
ENDBRANCH  20  23
ENDBRANCH   1  20
TORSDOF 5
ENDMDL
MODEL 5
REMARK VINA RESULT:      -7.9      2.875      3.520
REMARK  Name = 
REMARK  5 active torsions:
REMARK  status: ('A' for Active; 'I' for Inactive)
REMARK    1  A    between atoms: N_3  and  C_4
REMARK    2  A    between atoms: C_4  and  C_5
REMARK    3  A    between atoms: N_7  and  C_8
REMARK    4  A    between atoms: C_11  and  N_12
REMARK    5  A    between atoms: N_24  and  C_25
REMARK                            x       y       z     vdW  Elec       q    Type
REMARK                         _______ _______ _______ _____ _____    ______ ____
ROOT
ATOM      1  C   UNL     1       2.524   6.681  18.730  0.00  0.00    +0.000 C 
ATOM      2  C   UNL     1       2.155   7.455  19.976  0.00  0.00    +0.000 C 
ATOM      3  N   UNL     1       1.591   8.659  19.444  0.00  0.00    +0.000 N 
ATOM      4  C   UNL     1       1.984   8.808  18.123  0.00  0.00    +0.000 C 
ATOM      5  O   UNL     1       1.820   9.757  17.375  0.00  0.00    +0.000 OA
ATOM      6  O   UNL     1       2.664   7.689  17.717  0.00  0.00    +0.000 OA
ENDROOT
BRANCH   3   7
ATOM      7  C   UNL     1       0.854   9.590  20.215  0.00  0.00    +0.000 A 
ATOM      8  C   UNL     1       0.572  10.874  19.740  0.00  0.00    +0.000 A 
ATOM      9  C   UNL     1      -0.172  11.791  20.501  0.00  0.00    +0.000 A 
ATOM     10  C   UNL     1      -0.662  11.465  21.768  0.00  0.00    +0.000 A 
ATOM     11  C   UNL     1      -0.366  10.169  22.230  0.00  0.00    +0.000 A 
ATOM     12  F   UNL     1      -0.742   9.793  23.464  0.00  0.00    +0.000 F 
ATOM     13  C   UNL     1       0.367   9.246  21.478  0.00  0.00    +0.000 A 
BRANCH  10  14
ATOM     14  N   UNL     1      -1.346  12.376  22.561  0.00  0.00    +0.000 N 
ATOM     15  C   UNL     1      -0.869  13.755  22.742  0.00  0.00    +0.000 C 
ATOM     16  C   UNL     1      -1.415  14.287  24.078  0.00  0.00    +0.000 C 
ATOM     17  O   UNL     1      -2.851  14.217  24.131  0.00  0.00    +0.000 OA
ATOM     18  C   UNL     1      -3.294  12.857  23.962  0.00  0.00    +0.000 C 
ATOM     19  C   UNL     1      -2.818  12.274  22.623  0.00  0.00    +0.000 C 
ENDBRANCH  10  14
ENDBRANCH   3   7
BRANCH   1  20
ATOM     20  C   UNL     1       3.843   5.922  18.863  0.00  0.00    +0.000 C 
BRANCH  20  23
ATOM     21  O   UNL     1       5.235   6.525  16.558  0.00  0.00    +0.000 OA
ATOM     22  C   UNL     1       4.788   5.390  16.660  0.00  0.00    +0.000 C 
ATOM     23  N   UNL     1       4.046   4.998  17.755  0.00  0.00    +0.000 N 
ATOM     24  N   UNL     1       4.919   4.359  15.757  0.00  0.00    +0.000 N 
ATOM     25  H   UNL     1       4.143   4.024  18.016  0.00  0.00    +0.000 HD
ATOM     26  H   UNL     1       4.262   3.600  15.866  0.00  0.00    +0.000 HD
BRANCH  24  27
ATOM     27  C   UNL     1       5.712   4.350  14.592  0.00  0.00    +0.000 A 
ATOM     28  C   UNL     1       6.955   4.980  14.507  0.00  0.00    +0.000 A 
ATOM     29  C   UNL     1       7.705   4.915  13.328  0.00  0.00    +0.000 A 
ATOM     30  C   UNL     1       7.220   4.220  12.225  0.00  0.00    +0.000 A 
ATOM     31  C   UNL     1       5.982   3.586  12.300  0.00  0.00    +0.000 A 
ATOM     32  C   UNL     1       5.234   3.645  13.480  0.00  0.00    +0.000 A 
ENDBRANCH  24  27
ENDBRANCH  20  23
ENDBRANCH   1  20
TORSDOF 5
ENDMDL
MODEL 6
REMARK VINA RESULT:      -7.8      3.968     11.727
REMARK  Name = 
REMARK  5 active torsions:
REMARK  status: ('A' for Active; 'I' for Inactive)
REMARK    1  A    between atoms: N_3  and  C_4
REMARK    2  A    between atoms: C_4  and  C_5
REMARK    3  A    between atoms: N_7  and  C_8
REMARK    4  A    between atoms: C_11  and  N_12
REMARK    5  A    between atoms: N_24  and  C_25
REMARK                            x       y       z     vdW  Elec       q    Type
REMARK                         _______ _______ _______ _____ _____    ______ ____
ROOT
ATOM      1  C   UNL     1      -0.484  13.193  19.146  0.00  0.00    +0.000 C 
ATOM      2  C   UNL     1       0.393  12.129  19.768  0.00  0.00    +0.000 C 
ATOM      3  N   UNL     1       0.086  10.970  18.985  0.00  0.00    +0.000 N 
ATOM      4  C   UNL     1      -1.115  11.167  18.320  0.00  0.00    +0.000 C 
ATOM      5  O   UNL     1      -1.769  10.373  17.666  0.00  0.00    +0.000 OA
ATOM      6  O   UNL     1      -1.543  12.454  18.516  0.00  0.00    +0.000 OA
ENDROOT
BRANCH   3   7
ATOM      7  C   UNL     1       0.852   9.779  19.010  0.00  0.00    +0.000 A 
ATOM      8  C   UNL     1       1.579   9.354  17.895  0.00  0.00    +0.000 A 
ATOM      9  C   UNL     1       2.351   8.180  17.926  0.00  0.00    +0.000 A 
ATOM     10  C   UNL     1       2.424   7.381  19.070  0.00  0.00    +0.000 A 
ATOM     11  C   UNL     1       1.682   7.824  20.181  0.00  0.00    +0.000 A 
ATOM     12  F   UNL     1       1.643   7.084  21.301  0.00  0.00    +0.000 F 
ATOM     13  C   UNL     1       0.918   8.995  20.163  0.00  0.00    +0.000 A 
BRANCH  10  14
ATOM     14  N   UNL     1       3.129   6.187  19.102  0.00  0.00    +0.000 N 
ATOM     15  C   UNL     1       2.446   4.885  19.109  0.00  0.00    +0.000 C 
ATOM     16  C   UNL     1       3.381   3.849  19.758  0.00  0.00    +0.000 C 
ATOM     17  O   UNL     1       4.646   3.774  19.078  0.00  0.00    +0.000 OA
ATOM     18  C   UNL     1       5.301   5.057  19.093  0.00  0.00    +0.000 C 
ATOM     19  C   UNL     1       4.438   6.135  18.419  0.00  0.00    +0.000 C 
ENDBRANCH  10  14
ENDBRANCH   3   7
BRANCH   1  20
ATOM     20  C   UNL     1      -1.087  14.151  20.172  0.00  0.00    +0.000 C 
BRANCH  20  23
ATOM     21  O   UNL     1      -2.631  13.739  22.421  0.00  0.00    +0.000 OA
ATOM     22  C   UNL     1      -3.221  13.913  21.362  0.00  0.00    +0.000 C 
ATOM     23  N   UNL     1      -2.542  14.090  20.174  0.00  0.00    +0.000 N 
ATOM     24  N   UNL     1      -4.583  13.948  21.163  0.00  0.00    +0.000 N 
ATOM     25  H   UNL     1      -3.002  14.690  19.500  0.00  0.00    +0.000 HD
ATOM     26  H   UNL     1      -4.887  13.818  20.209  0.00  0.00    +0.000 HD
BRANCH  24  27
ATOM     27  C   UNL     1      -5.583  13.933  22.156  0.00  0.00    +0.000 A 
ATOM     28  C   UNL     1      -6.188  12.761  22.616  0.00  0.00    +0.000 A 
ATOM     29  C   UNL     1      -7.158  12.810  23.621  0.00  0.00    +0.000 A 
ATOM     30  C   UNL     1      -7.533  14.029  24.176  0.00  0.00    +0.000 A 
ATOM     31  C   UNL     1      -6.935  15.204  23.727  0.00  0.00    +0.000 A 
ATOM     32  C   UNL     1      -5.959  15.156  22.726  0.00  0.00    +0.000 A 
ENDBRANCH  24  27
ENDBRANCH  20  23
ENDBRANCH   1  20
TORSDOF 5
ENDMDL
MODEL 7
REMARK VINA RESULT:      -7.8      1.288      1.813
REMARK  Name = 
REMARK  5 active torsions:
REMARK  status: ('A' for Active; 'I' for Inactive)
REMARK    1  A    between atoms: N_3  and  C_4
REMARK    2  A    between atoms: C_4  and  C_5
REMARK    3  A    between atoms: N_7  and  C_8
REMARK    4  A    between atoms: C_11  and  N_12
REMARK    5  A    between atoms: N_24  and  C_25
REMARK                            x       y       z     vdW  Elec       q    Type
REMARK                         _______ _______ _______ _____ _____    ______ ____
ROOT
ATOM      1  C   UNL     1       4.001   4.173  19.424  0.00  0.00    +0.000 C 
ATOM      2  C   UNL     1       3.978   5.670  19.647  0.00  0.00    +0.000 C 
ATOM      3  N   UNL     1       2.666   6.035  19.200  0.00  0.00    +0.000 N 
ATOM      4  C   UNL     1       2.155   5.026  18.399  0.00  0.00    +0.000 C 
ATOM      5  O   UNL     1       1.134   5.018  17.732  0.00  0.00    +0.000 OA
ATOM      6  O   UNL     1       3.007   3.953  18.410  0.00  0.00    +0.000 OA
ENDROOT
BRANCH   3   7
ATOM      7  C   UNL     1       2.071   7.293  19.457  0.00  0.00    +0.000 A 
ATOM      8  C   UNL     1       1.520   7.600  20.704  0.00  0.00    +0.000 A 
ATOM      9  C   UNL     1       0.942   8.855  20.962  0.00  0.00    +0.000 A 
ATOM     10  C   UNL     1       0.887   9.852  19.985  0.00  0.00    +0.000 A 
ATOM     11  C   UNL     1       1.445   9.523  18.735  0.00  0.00    +0.000 A 
ATOM     12  F   UNL     1       1.378  10.398  17.718  0.00  0.00    +0.000 F 
ATOM     13  C   UNL     1       2.029   8.280  18.471  0.00  0.00    +0.000 A 
BRANCH  10  14
ATOM     14  N   UNL     1       0.267  11.074  20.199  0.00  0.00    +0.000 N 
ATOM     15  C   UNL     1       1.037  12.321  20.321  0.00  0.00    +0.000 C 
ATOM     16  C   UNL     1       0.208  13.325  21.142  0.00  0.00    +0.000 C 
ATOM     17  O   UNL     1      -1.081  13.561  20.549  0.00  0.00    +0.000 OA
ATOM     18  C   UNL     1      -1.820  12.329  20.449  0.00  0.00    +0.000 C 
ATOM     19  C   UNL     1      -1.067  11.290  19.603  0.00  0.00    +0.000 C 
ENDBRANCH  10  14
ENDBRANCH   3   7
BRANCH   1  20
ATOM     20  C   UNL     1       5.349   3.662  18.920  0.00  0.00    +0.000 C 
BRANCH  20  23
ATOM     21  O   UNL     1       6.478   5.165  16.900  0.00  0.00    +0.000 OA
ATOM     22  C   UNL     1       5.926   4.121  16.578  0.00  0.00    +0.000 C 
ATOM     23  N   UNL     1       5.298   3.315  17.506  0.00  0.00    +0.000 N 
ATOM     24  N   UNL     1       5.820   3.591  15.312  0.00  0.00    +0.000 N 
ATOM     25  H   UNL     1       5.321   2.324  17.302  0.00  0.00    +0.000 HD
ATOM     26  H   UNL     1       5.103   2.890  15.192  0.00  0.00    +0.000 HD
BRANCH  24  27
ATOM     27  C   UNL     1       6.444   4.067  14.140  0.00  0.00    +0.000 A 
ATOM     28  C   UNL     1       7.382   5.101  14.139  0.00  0.00    +0.000 A 
ATOM     29  C   UNL     1       7.984   5.511  12.945  0.00  0.00    +0.000 A 
ATOM     30  C   UNL     1       7.655   4.893  11.744  0.00  0.00    +0.000 A 
ATOM     31  C   UNL     1       6.721   3.859  11.734  0.00  0.00    +0.000 A 
ATOM     32  C   UNL     1       6.123   3.442  12.928  0.00  0.00    +0.000 A 
ENDBRANCH  24  27
ENDBRANCH  20  23
ENDBRANCH   1  20
TORSDOF 5
ENDMDL
MODEL 8
REMARK VINA RESULT:      -7.7      3.859     11.523
REMARK  Name = 
REMARK  5 active torsions:
REMARK  status: ('A' for Active; 'I' for Inactive)
REMARK    1  A    between atoms: N_3  and  C_4
REMARK    2  A    between atoms: C_4  and  C_5
REMARK    3  A    between atoms: N_7  and  C_8
REMARK    4  A    between atoms: C_11  and  N_12
REMARK    5  A    between atoms: N_24  and  C_25
REMARK                            x       y       z     vdW  Elec       q    Type
REMARK                         _______ _______ _______ _____ _____    ______ ____
ROOT
ATOM      1  C   UNL     1      -0.085  12.695  19.342  0.00  0.00    +0.000 C 
ATOM      2  C   UNL     1       0.726  11.593  19.988  0.00  0.00    +0.000 C 
ATOM      3  N   UNL     1       0.483  10.475  19.125  0.00  0.00    +0.000 N 
ATOM      4  C   UNL     1      -0.652  10.716  18.367  0.00  0.00    +0.000 C 
ATOM      5  O   UNL     1      -1.251   9.962  17.620  0.00  0.00    +0.000 OA
ATOM      6  O   UNL     1      -1.089  11.997  18.586  0.00  0.00    +0.000 OA
ENDROOT
BRANCH   3   7
ATOM      7  C   UNL     1       1.236   9.278  19.160  0.00  0.00    +0.000 A 
ATOM      8  C   UNL     1       1.221   8.436  20.276  0.00  0.00    +0.000 A 
ATOM      9  C   UNL     1       1.958   7.240  20.303  0.00  0.00    +0.000 A 
ATOM     10  C   UNL     1       2.743   6.838  19.219  0.00  0.00    +0.000 A 
ATOM     11  C   UNL     1       2.748   7.699  18.107  0.00  0.00    +0.000 A 
ATOM     12  F   UNL     1       3.525   7.423  17.046  0.00  0.00    +0.000 F 
ATOM     13  C   UNL     1       2.012   8.887  18.066  0.00  0.00    +0.000 A 
BRANCH  10  14
ATOM     14  N   UNL     1       3.526   5.693  19.249  0.00  0.00    +0.000 N 
ATOM     15  C   UNL     1       4.995   5.759  19.226  0.00  0.00    +0.000 C 
ATOM     16  C   UNL     1       5.532   4.437  18.651  0.00  0.00    +0.000 C 
ATOM     17  O   UNL     1       5.071   3.302  19.405  0.00  0.00    +0.000 OA
ATOM     18  C   UNL     1       3.631   3.252  19.406  0.00  0.00    +0.000 C 
ATOM     19  C   UNL     1       3.025   4.529  20.009  0.00  0.00    +0.000 C 
ENDBRANCH  10  14
ENDBRANCH   3   7
BRANCH   1  20
ATOM     20  C   UNL     1      -0.772  13.608  20.356  0.00  0.00    +0.000 C 
BRANCH  20  23
ATOM     21  O   UNL     1      -2.790  12.856  22.079  0.00  0.00    +0.000 OA
ATOM     22  C   UNL     1      -3.123  13.374  21.022  0.00  0.00    +0.000 C 
ATOM     23  N   UNL     1      -2.194  13.752  20.074  0.00  0.00    +0.000 N 
ATOM     24  N   UNL     1      -4.403  13.649  20.594  0.00  0.00    +0.000 N 
ATOM     25  H   UNL     1      -2.446  14.562  19.522  0.00  0.00    +0.000 HD
ATOM     26  H   UNL     1      -4.506  13.809  19.603  0.00  0.00    +0.000 HD
BRANCH  24  27
ATOM     27  C   UNL     1      -5.591  13.520  21.343  0.00  0.00    +0.000 A 
ATOM     28  C   UNL     1      -6.351  12.349  21.378  0.00  0.00    +0.000 A 
ATOM     29  C   UNL     1      -7.508  12.277  22.160  0.00  0.00    +0.000 A 
ATOM     30  C   UNL     1      -7.915  13.372  22.914  0.00  0.00    +0.000 A 
ATOM     31  C   UNL     1      -7.163  14.544  22.889  0.00  0.00    +0.000 A 
ATOM     32  C   UNL     1      -6.002  14.616  22.112  0.00  0.00    +0.000 A 
ENDBRANCH  24  27
ENDBRANCH  20  23
ENDBRANCH   1  20
TORSDOF 5
ENDMDL
MODEL 9
REMARK VINA RESULT:      -7.6      3.880     11.270
REMARK  Name = 
REMARK  5 active torsions:
REMARK  status: ('A' for Active; 'I' for Inactive)
REMARK    1  A    between atoms: N_3  and  C_4
REMARK    2  A    between atoms: C_4  and  C_5
REMARK    3  A    between atoms: N_7  and  C_8
REMARK    4  A    between atoms: C_11  and  N_12
REMARK    5  A    between atoms: N_24  and  C_25
REMARK                            x       y       z     vdW  Elec       q    Type
REMARK                         _______ _______ _______ _____ _____    ______ ____
ROOT
ATOM      1  C   UNL     1       0.769  11.719  20.888  0.00  0.00    +0.000 C 
ATOM      2  C   UNL     1       1.068  10.291  21.290  0.00  0.00    +0.000 C 
ATOM      3  N   UNL     1       1.000   9.592  20.042  0.00  0.00    +0.000 N 
ATOM      4  C   UNL     1       0.309  10.361  19.119  0.00  0.00    +0.000 C 
ATOM      5  O   UNL     1      -0.066  10.062  17.998  0.00  0.00    +0.000 OA
ATOM      6  O   UNL     1       0.041  11.593  19.656  0.00  0.00    +0.000 OA
ENDROOT
BRANCH   3   7
ATOM      7  C   UNL     1       1.469   8.269  19.856  0.00  0.00    +0.000 A 
ATOM      8  C   UNL     1       1.193   7.258  20.781  0.00  0.00    +0.000 A 
ATOM      9  C   UNL     1       1.647   5.942  20.588  0.00  0.00    +0.000 A 
ATOM     10  C   UNL     1       2.399   5.584  19.466  0.00  0.00    +0.000 A 
ATOM     11  C   UNL     1       2.670   6.616  18.549  0.00  0.00    +0.000 A 
ATOM     12  F   UNL     1       3.440   6.375  17.474  0.00  0.00    +0.000 F 
ATOM     13  C   UNL     1       2.215   7.926  18.727  0.00  0.00    +0.000 A 
BRANCH  10  14
ATOM     14  N   UNL     1       2.910   4.306  19.287  0.00  0.00    +0.000 N 
ATOM     15  C   UNL     1       3.183   3.416  20.425  0.00  0.00    +0.000 C 
ATOM     16  C   UNL     1       4.265   2.406  20.004  0.00  0.00    +0.000 C 
ATOM     17  O   UNL     1       3.872   1.661  18.838  0.00  0.00    +0.000 OA
ATOM     18  C   UNL     1       3.619   2.552  17.734  0.00  0.00    +0.000 C 
ATOM     19  C   UNL     1       2.514   3.565  18.072  0.00  0.00    +0.000 C 
ENDBRANCH  10  14
ENDBRANCH   3   7
BRANCH   1  20
ATOM     20  C   UNL     1      -0.097  12.461  21.904  0.00  0.00    +0.000 C 
BRANCH  20  23
ATOM     21  O   UNL     1      -2.476  11.796  23.134  0.00  0.00    +0.000 OA
ATOM     22  C   UNL     1      -2.546  12.415  22.081  0.00  0.00    +0.000 C 
ATOM     23  N   UNL     1      -1.417  12.763  21.367  0.00  0.00    +0.000 N 
ATOM     24  N   UNL     1      -3.687  12.844  21.440  0.00  0.00    +0.000 N 
ATOM     25  H   UNL     1      -1.485  13.630  20.848  0.00  0.00    +0.000 HD
ATOM     26  H   UNL     1      -3.575  13.080  20.465  0.00  0.00    +0.000 HD
BRANCH  24  27
ATOM     27  C   UNL     1      -5.007  12.782  21.932  0.00  0.00    +0.000 A 
ATOM     28  C   UNL     1      -5.383  13.284  23.179  0.00  0.00    +0.000 A 
ATOM     29  C   UNL     1      -6.715  13.214  23.600  0.00  0.00    +0.000 A 
ATOM     30  C   UNL     1      -7.681  12.643  22.779  0.00  0.00    +0.000 A 
ATOM     31  C   UNL     1      -7.317  12.141  21.532  0.00  0.00    +0.000 A 
ATOM     32  C   UNL     1      -5.987  12.216  21.106  0.00  0.00    +0.000 A 
ENDBRANCH  24  27
ENDBRANCH  20  23
ENDBRANCH   1  20
TORSDOF 5
ENDMDL
