MODEL 1
REMARK VINA RESULT:      -7.1      0.000      0.000
REMARK  Name = 
REMARK  16 active torsions:
REMARK  status: ('A' for Active; 'I' for Inactive)
REMARK    1  A    between atoms: C_1  and  C_2
REMARK    2  A    between atoms: C_2  and  C_3
REMARK    3  A    between atoms: C_2  and  C_4
REMARK    4  A    between atoms: C_2  and  O_5
REMARK    5  A    between atoms: O_5  and  C_6
REMARK    6  A    between atoms: N_8  and  C_9
REMARK    7  A    between atoms: C_9  and  C_10
REMARK    8  A    between atoms: C_9  and  C_21
REMARK    9  A    between atoms: C_10  and  C_12
REMARK   10  A    between atoms: C_12  and  N_13
REMARK   11  A    between atoms: C_12  and  C_14
REMARK   12  A    between atoms: C_14  and  C_15
REMARK   13  A    between atoms: C_21  and  O_22
REMARK   14  A    between atoms: C_23  and  C_24
REMARK   15  A    between atoms: C_23  and  C_26
REMARK   16  A    between atoms: C_29  and  N_30
REMARK                            x       y       z     vdW  Elec       q    Type
REMARK                         _______ _______ _______ _____ _____    ______ ____
ROOT
ATOM      1  C   UNL     1       0.257  10.525  18.990  0.00  0.00    +0.000 C 
ENDROOT
BRANCH   1   4
ATOM      2  C   UNL     1       1.226  12.445  20.167  0.00  0.00    +0.000 C 
ATOM      3  O   UNL     1       1.227  11.868  21.245  0.00  0.00    +0.000 OA
ATOM      4  N   UNL     1       0.996  11.791  18.989  0.00  0.00    +0.000 N 
ATOM      5  H   UNL     1       0.893  12.402  18.191  0.00  0.00    +0.000 HD
BRANCH   2   6
ATOM      6  O   UNL     1       1.411  13.776  19.966  0.00  0.00    +0.000 OA
BRANCH   6   8
ATOM      7  C   UNL     1       0.094  15.815  19.483  0.00  0.00    +0.000 C 
ATOM      8  C   UNL     1       0.440  14.723  20.503  0.00  0.00    +0.000 C 
ATOM      9  C   UNL     1       0.928  15.332  21.826  0.00  0.00    +0.000 C 
ATOM     10  C   UNL     1      -0.849  13.931  20.791  0.00  0.00    +0.000 C 
ENDBRANCH   6   8
ENDBRANCH   2   6
ENDBRANCH   1   4
BRANCH   1  11
ATOM     11  C   UNL     1      -1.020  10.507  18.086  0.00  0.00    +0.000 C 
ATOM     12  O   UNL     1      -1.258   9.559  17.329  0.00  0.00    +0.000 OA
BRANCH  11  13
ATOM     13  C   UNL     1      -1.931  11.750  18.099  0.00  0.00    +0.000 C 
BRANCH  13  14
ATOM     14  N   UNL     1      -1.251  12.831  17.352  0.00  0.00    +0.000 NA
ATOM     15  H   UNL     1      -0.792  12.414  16.530  0.00  0.00    +0.000 HD
ATOM     16  H   UNL     1      -0.489  13.216  17.908  0.00  0.00    +0.000 HD
ENDBRANCH  13  14
BRANCH  13  17
ATOM     17  C   UNL     1      -3.303  11.496  17.428  0.00  0.00    +0.000 C 
BRANCH  17  18
ATOM     18  C   UNL     1      -4.480  11.587  18.374  0.00  0.00    +0.000 A 
ATOM     19  C   UNL     1      -4.398  12.364  19.536  0.00  0.00    +0.000 A 
ATOM     20  C   UNL     1      -5.460  12.396  20.442  0.00  0.00    +0.000 A 
ATOM     21  C   UNL     1      -6.611  11.647  20.200  0.00  0.00    +0.000 A 
ATOM     22  C   UNL     1      -6.717  10.899  19.031  0.00  0.00    +0.000 A 
ATOM     23  C   UNL     1      -5.665  10.882  18.115  0.00  0.00    +0.000 A 
ENDBRANCH  17  18
ENDBRANCH  13  17
ENDBRANCH  11  13
ENDBRANCH   1  11
BRANCH   1  24
ATOM     24  C   UNL     1       1.248   9.404  18.617  0.00  0.00    +0.000 C 
ATOM     25  C   UNL     1       1.685   8.439  19.457  0.00  0.00    +0.000 C 
BRANCH  25  26
ATOM     26  C   UNL     1       2.568   7.363  18.959  0.00  0.00    +0.000 A 
ATOM     27  C   UNL     1       2.630   6.112  19.590  0.00  0.00    +0.000 A 
ATOM     28  C   UNL     1       3.511   5.128  19.132  0.00  0.00    +0.000 A 
ATOM     29  C   UNL     1       4.340   5.398  18.033  0.00  0.00    +0.000 A 
ATOM     30  C   UNL     1       4.277   6.637  17.385  0.00  0.00    +0.000 A 
ATOM     31  C   UNL     1       3.396   7.615  17.851  0.00  0.00    +0.000 A 
BRANCH  29  32
ATOM     32  N   UNL     1       5.290   4.383  17.566  0.00  0.00    +0.000 N 
ATOM     33  O   UNL     1       6.321   4.206  18.233  0.00  0.00    +0.000 OA
ATOM     34  O   UNL     1       5.009   3.758  16.531  0.00  0.00    +0.000 OA
ENDBRANCH  29  32
ENDBRANCH  25  26
BRANCH  24  35
ATOM     35  O   UNL     1       1.748   9.425  17.310  0.00  0.00    +0.000 OA
ATOM     36  H   UNL     1       2.004   8.513  17.041  0.00  0.00    +0.000 HD
ENDBRANCH  24  35
BRANCH  25  37
ATOM     37  C   UNL     1       1.327   8.436  20.832  0.00  0.00    +0.000 C 
ATOM     38  N   UNL     1       1.013   8.499  21.954  0.00  0.00    +0.000 NA
ENDBRANCH  25  37
ENDBRANCH   1  24
TORSDOF 13
ENDMDL
MODEL 2
REMARK VINA RESULT:      -7.1      2.494      4.422
REMARK  Name = 
REMARK  16 active torsions:
REMARK  status: ('A' for Active; 'I' for Inactive)
REMARK    1  A    between atoms: C_1  and  C_2
REMARK    2  A    between atoms: C_2  and  C_3
REMARK    3  A    between atoms: C_2  and  C_4
REMARK    4  A    between atoms: C_2  and  O_5
REMARK    5  A    between atoms: O_5  and  C_6
REMARK    6  A    between atoms: N_8  and  C_9
REMARK    7  A    between atoms: C_9  and  C_10
REMARK    8  A    between atoms: C_9  and  C_21
REMARK    9  A    between atoms: C_10  and  C_12
REMARK   10  A    between atoms: C_12  and  N_13
REMARK   11  A    between atoms: C_12  and  C_14
REMARK   12  A    between atoms: C_14  and  C_15
REMARK   13  A    between atoms: C_21  and  O_22
REMARK   14  A    between atoms: C_23  and  C_24
REMARK   15  A    between atoms: C_23  and  C_26
REMARK   16  A    between atoms: C_29  and  N_30
REMARK                            x       y       z     vdW  Elec       q    Type
REMARK                         _______ _______ _______ _____ _____    ______ ____
ROOT
ATOM      1  C   UNL     1       0.405  10.361  19.930  0.00  0.00    +0.000 C 
ENDROOT
BRANCH   1   4
ATOM      2  C   UNL     1      -1.397  11.402  18.634  0.00  0.00    +0.000 C 
ATOM      3  O   UNL     1      -0.666  12.277  18.194  0.00  0.00    +0.000 OA
ATOM      4  N   UNL     1      -0.911  10.304  19.287  0.00  0.00    +0.000 N 
ATOM      5  H   UNL     1      -1.624   9.727  19.712  0.00  0.00    +0.000 HD
BRANCH   2   6
ATOM      6  O   UNL     1      -2.755  11.385  18.581  0.00  0.00    +0.000 OA
BRANCH   6   8
ATOM      7  C   UNL     1      -3.757   9.304  17.693  0.00  0.00    +0.000 C 
ATOM      8  C   UNL     1      -3.420  10.778  17.435  0.00  0.00    +0.000 C 
ATOM      9  C   UNL     1      -2.587  10.942  16.155  0.00  0.00    +0.000 C 
ATOM     10  C   UNL     1      -4.749  11.530  17.236  0.00  0.00    +0.000 C 
ENDBRANCH   6   8
ENDBRANCH   2   6
ENDBRANCH   1   4
BRANCH   1  11
ATOM     11  C   UNL     1       0.468  11.235  21.225  0.00  0.00    +0.000 C 
ATOM     12  O   UNL     1       1.446  11.953  21.469  0.00  0.00    +0.000 OA
BRANCH  11  13
ATOM     13  C   UNL     1      -0.685  11.109  22.239  0.00  0.00    +0.000 C 
BRANCH  13  14
ATOM     14  N   UNL     1      -0.219  10.275  23.369  0.00  0.00    +0.000 NA
ATOM     15  H   UNL     1       0.648   9.800  23.083  0.00  0.00    +0.000 HD
ATOM     16  H   UNL     1      -0.883   9.522  23.546  0.00  0.00    +0.000 HD
ENDBRANCH  13  14
BRANCH  13  17
ATOM     17  C   UNL     1      -1.137  12.476  22.809  0.00  0.00    +0.000 C 
BRANCH  17  18
ATOM     18  C   UNL     1      -2.635  12.683  22.803  0.00  0.00    +0.000 A 
ATOM     19  C   UNL     1      -3.362  12.642  24.000  0.00  0.00    +0.000 A 
ATOM     20  C   UNL     1      -4.753  12.768  23.988  0.00  0.00    +0.000 A 
ATOM     21  C   UNL     1      -5.431  12.930  22.780  0.00  0.00    +0.000 A 
ATOM     22  C   UNL     1      -4.716  13.006  21.589  0.00  0.00    +0.000 A 
ATOM     23  C   UNL     1      -3.325  12.901  21.601  0.00  0.00    +0.000 A 
ENDBRANCH  17  18
ENDBRANCH  13  17
ENDBRANCH  11  13
ENDBRANCH   1  11
BRANCH   1  24
ATOM     24  C   UNL     1       0.866   8.911  20.183  0.00  0.00    +0.000 C 
ATOM     25  C   UNL     1       1.702   8.208  19.388  0.00  0.00    +0.000 C 
BRANCH  25  26
ATOM     26  C   UNL     1       2.142   6.854  19.784  0.00  0.00    +0.000 A 
ATOM     27  C   UNL     1       3.355   6.314  19.330  0.00  0.00    +0.000 A 
ATOM     28  C   UNL     1       3.726   5.010  19.676  0.00  0.00    +0.000 A 
ATOM     29  C   UNL     1       2.875   4.239  20.481  0.00  0.00    +0.000 A 
ATOM     30  C   UNL     1       1.669   4.771  20.952  0.00  0.00    +0.000 A 
ATOM     31  C   UNL     1       1.305   6.073  20.599  0.00  0.00    +0.000 A 
BRANCH  29  32
ATOM     32  N   UNL     1       3.241   2.860  20.822  0.00  0.00    +0.000 N 
ATOM     33  O   UNL     1       2.846   2.410  21.908  0.00  0.00    +0.000 OA
ATOM     34  O   UNL     1       3.924   2.223  20.005  0.00  0.00    +0.000 OA
ENDBRANCH  29  32
ENDBRANCH  25  26
BRANCH  24  35
ATOM     35  O   UNL     1       0.338   8.281  21.316  0.00  0.00    +0.000 OA
ATOM     36  H   UNL     1       0.104   7.350  21.096  0.00  0.00    +0.000 HD
ENDBRANCH  24  35
BRANCH  25  37
ATOM     37  C   UNL     1       2.166   8.735  18.153  0.00  0.00    +0.000 C 
ATOM     38  N   UNL     1       2.591   9.115  17.135  0.00  0.00    +0.000 NA
ENDBRANCH  25  37
ENDBRANCH   1  24
TORSDOF 13
ENDMDL
MODEL 3
REMARK VINA RESULT:      -7.1      1.753      2.731
REMARK  Name = 
REMARK  16 active torsions:
REMARK  status: ('A' for Active; 'I' for Inactive)
REMARK    1  A    between atoms: C_1  and  C_2
REMARK    2  A    between atoms: C_2  and  C_3
REMARK    3  A    between atoms: C_2  and  C_4
REMARK    4  A    between atoms: C_2  and  O_5
REMARK    5  A    between atoms: O_5  and  C_6
REMARK    6  A    between atoms: N_8  and  C_9
REMARK    7  A    between atoms: C_9  and  C_10
REMARK    8  A    between atoms: C_9  and  C_21
REMARK    9  A    between atoms: C_10  and  C_12
REMARK   10  A    between atoms: C_12  and  N_13
REMARK   11  A    between atoms: C_12  and  C_14
REMARK   12  A    between atoms: C_14  and  C_15
REMARK   13  A    between atoms: C_21  and  O_22
REMARK   14  A    between atoms: C_23  and  C_24
REMARK   15  A    between atoms: C_23  and  C_26
REMARK   16  A    between atoms: C_29  and  N_30
REMARK                            x       y       z     vdW  Elec       q    Type
REMARK                         _______ _______ _______ _____ _____    ______ ____
ROOT
ATOM      1  C   UNL     1       0.481  10.618  19.073  0.00  0.00    +0.000 C 
ENDROOT
BRANCH   1   4
ATOM      2  C   UNL     1       1.828  12.592  19.618  0.00  0.00    +0.000 C 
ATOM      3  O   UNL     1       1.731  12.410  20.822  0.00  0.00    +0.000 OA
ATOM      4  N   UNL     1       1.456  11.647  18.702  0.00  0.00    +0.000 N 
ATOM      5  H   UNL     1       1.465  11.973  17.746  0.00  0.00    +0.000 HD
BRANCH   2   6
ATOM      6  O   UNL     1       2.270  13.724  19.008  0.00  0.00    +0.000 OA
BRANCH   6   8
ATOM      7  C   UNL     1       1.672  15.424  20.704  0.00  0.00    +0.000 C 
ATOM      8  C   UNL     1       1.570  14.982  19.239  0.00  0.00    +0.000 C 
ATOM      9  C   UNL     1       0.105  14.897  18.784  0.00  0.00    +0.000 C 
ATOM     10  C   UNL     1       2.273  16.051  18.381  0.00  0.00    +0.000 C 
ENDBRANCH   6   8
ENDBRANCH   2   6
ENDBRANCH   1   4
BRANCH   1  11
ATOM     11  C   UNL     1      -0.857  10.656  18.265  0.00  0.00    +0.000 C 
ATOM     12  O   UNL     1      -1.191   9.720  17.529  0.00  0.00    +0.000 OA
BRANCH  11  13
ATOM     13  C   UNL     1      -1.710  11.938  18.339  0.00  0.00    +0.000 C 
BRANCH  13  14
ATOM     14  N   UNL     1      -2.465  12.067  17.074  0.00  0.00    +0.000 NA
ATOM     15  H   UNL     1      -2.073  12.857  16.545  0.00  0.00    +0.000 HD
ATOM     16  H   UNL     1      -3.429  12.335  17.267  0.00  0.00    +0.000 HD
ENDBRANCH  13  14
BRANCH  13  17
ATOM     17  C   UNL     1      -2.730  11.914  19.504  0.00  0.00    +0.000 C 
BRANCH  17  18
ATOM     18  C   UNL     1      -2.227  12.552  20.780  0.00  0.00    +0.000 A 
ATOM     19  C   UNL     1      -2.361  13.931  20.984  0.00  0.00    +0.000 A 
ATOM     20  C   UNL     1      -1.838  14.530  22.133  0.00  0.00    +0.000 A 
ATOM     21  C   UNL     1      -1.172  13.758  23.084  0.00  0.00    +0.000 A 
ATOM     22  C   UNL     1      -1.063  12.382  22.907  0.00  0.00    +0.000 A 
ATOM     23  C   UNL     1      -1.603  11.779  21.771  0.00  0.00    +0.000 A 
ENDBRANCH  17  18
ENDBRANCH  13  17
ENDBRANCH  11  13
ENDBRANCH   1  11
BRANCH   1  24
ATOM     24  C   UNL     1       1.183   9.249  18.970  0.00  0.00    +0.000 C 
ATOM     25  C   UNL     1       1.546   8.477  20.018  0.00  0.00    +0.000 C 
BRANCH  25  26
ATOM     26  C   UNL     1       2.134   7.140  19.790  0.00  0.00    +0.000 A 
ATOM     27  C   UNL     1       1.777   6.037  20.580  0.00  0.00    +0.000 A 
ATOM     28  C   UNL     1       2.386   4.793  20.379  0.00  0.00    +0.000 A 
ATOM     29  C   UNL     1       3.361   4.653  19.381  0.00  0.00    +0.000 A 
ATOM     30  C   UNL     1       3.715   5.743  18.576  0.00  0.00    +0.000 A 
ATOM     31  C   UNL     1       3.104   6.981  18.786  0.00  0.00    +0.000 A 
BRANCH  29  32
ATOM     32  N   UNL     1       4.027   3.361  19.184  0.00  0.00    +0.000 N 
ATOM     33  O   UNL     1       3.440   2.506  18.504  0.00  0.00    +0.000 OA
ATOM     34  O   UNL     1       5.140   3.197  19.709  0.00  0.00    +0.000 OA
ENDBRANCH  29  32
ENDBRANCH  25  26
BRANCH  24  35
ATOM     35  O   UNL     1       1.490   8.804  17.679  0.00  0.00    +0.000 OA
ATOM     36  H   UNL     1       1.017   9.359  17.018  0.00  0.00    +0.000 HD
ENDBRANCH  24  35
BRANCH  25  37
ATOM     37  C   UNL     1       1.389   8.926  21.357  0.00  0.00    +0.000 C 
ATOM     38  N   UNL     1       1.238   9.355  22.432  0.00  0.00    +0.000 NA
ENDBRANCH  25  37
ENDBRANCH   1  24
TORSDOF 13
ENDMDL
MODEL 4
REMARK VINA RESULT:      -7.0      1.410      1.979
REMARK  Name = 
REMARK  16 active torsions:
REMARK  status: ('A' for Active; 'I' for Inactive)
REMARK    1  A    between atoms: C_1  and  C_2
REMARK    2  A    between atoms: C_2  and  C_3
REMARK    3  A    between atoms: C_2  and  C_4
REMARK    4  A    between atoms: C_2  and  O_5
REMARK    5  A    between atoms: O_5  and  C_6
REMARK    6  A    between atoms: N_8  and  C_9
REMARK    7  A    between atoms: C_9  and  C_10
REMARK    8  A    between atoms: C_9  and  C_21
REMARK    9  A    between atoms: C_10  and  C_12
REMARK   10  A    between atoms: C_12  and  N_13
REMARK   11  A    between atoms: C_12  and  C_14
REMARK   12  A    between atoms: C_14  and  C_15
REMARK   13  A    between atoms: C_21  and  O_22
REMARK   14  A    between atoms: C_23  and  C_24
REMARK   15  A    between atoms: C_23  and  C_26
REMARK   16  A    between atoms: C_29  and  N_30
REMARK                            x       y       z     vdW  Elec       q    Type
REMARK                         _______ _______ _______ _____ _____    ______ ____
ROOT
ATOM      1  C   UNL     1       0.429  10.573  18.898  0.00  0.00    +0.000 C 
ENDROOT
BRANCH   1   4
ATOM      2  C   UNL     1       1.394  12.822  19.046  0.00  0.00    +0.000 C 
ATOM      3  O   UNL     1       1.019  12.980  20.198  0.00  0.00    +0.000 OA
ATOM      4  N   UNL     1       1.358  11.604  18.426  0.00  0.00    +0.000 N 
ATOM      5  H   UNL     1       1.571  11.636  17.439  0.00  0.00    +0.000 HD
BRANCH   2   6
ATOM      6  O   UNL     1       1.859  13.787  18.210  0.00  0.00    +0.000 OA
BRANCH   6   8
ATOM      7  C   UNL     1       3.710  14.349  19.754  0.00  0.00    +0.000 C 
ATOM      8  C   UNL     1       2.675  14.869  18.749  0.00  0.00    +0.000 C 
ATOM      9  C   UNL     1       1.802  15.970  19.370  0.00  0.00    +0.000 C 
ATOM     10  C   UNL     1       3.444  15.484  17.565  0.00  0.00    +0.000 C 
ENDBRANCH   6   8
ENDBRANCH   2   6
ENDBRANCH   1   4
BRANCH   1  11
ATOM     11  C   UNL     1      -0.952  10.544  18.163  0.00  0.00    +0.000 C 
ATOM     12  O   UNL     1      -1.220   9.667  17.333  0.00  0.00    +0.000 OA
BRANCH  11  13
ATOM     13  C   UNL     1      -1.940  11.694  18.436  0.00  0.00    +0.000 C 
BRANCH  13  14
ATOM     14  N   UNL     1      -1.314  12.959  17.993  0.00  0.00    +0.000 NA
ATOM     15  H   UNL     1      -2.057  13.586  17.657  0.00  0.00    +0.000 HD
ATOM     16  H   UNL     1      -0.726  12.791  17.177  0.00  0.00    +0.000 HD
ENDBRANCH  13  14
BRANCH  13  17
ATOM     17  C   UNL     1      -3.278  11.531  17.674  0.00  0.00    +0.000 C 
BRANCH  17  18
ATOM     18  C   UNL     1      -4.505  11.602  18.556  0.00  0.00    +0.000 A 
ATOM     19  C   UNL     1      -5.673  10.915  18.203  0.00  0.00    +0.000 A 
ATOM     20  C   UNL     1      -6.826  11.032  18.983  0.00  0.00    +0.000 A 
ATOM     21  C   UNL     1      -6.824  11.841  20.118  0.00  0.00    +0.000 A 
ATOM     22  C   UNL     1      -5.659  12.502  20.497  0.00  0.00    +0.000 A 
ATOM     23  C   UNL     1      -4.501  12.369  19.731  0.00  0.00    +0.000 A 
ENDBRANCH  17  18
ENDBRANCH  13  17
ENDBRANCH  11  13
ENDBRANCH   1  11
BRANCH   1  24
ATOM     24  C   UNL     1       1.156   9.216  18.822  0.00  0.00    +0.000 C 
ATOM     25  C   UNL     1       1.532   8.471  19.886  0.00  0.00    +0.000 C 
BRANCH  25  26
ATOM     26  C   UNL     1       2.146   7.142  19.684  0.00  0.00    +0.000 A 
ATOM     27  C   UNL     1       1.838   6.057  20.520  0.00  0.00    +0.000 A 
ATOM     28  C   UNL     1       2.471   4.822  20.342  0.00  0.00    +0.000 A 
ATOM     29  C   UNL     1       3.420   4.672  19.321  0.00  0.00    +0.000 A 
ATOM     30  C   UNL     1       3.724   5.742  18.471  0.00  0.00    +0.000 A 
ATOM     31  C   UNL     1       3.090   6.972  18.658  0.00  0.00    +0.000 A 
BRANCH  29  32
ATOM     32  N   UNL     1       4.111   3.389  19.147  0.00  0.00    +0.000 N 
ATOM     33  O   UNL     1       3.673   2.609  18.289  0.00  0.00    +0.000 OA
ATOM     34  O   UNL     1       5.094   3.159  19.869  0.00  0.00    +0.000 OA
ENDBRANCH  29  32
ENDBRANCH  25  26
BRANCH  24  35
ATOM     35  O   UNL     1       1.473   8.751  17.540  0.00  0.00    +0.000 OA
ATOM     36  H   UNL     1       0.743   8.977  16.919  0.00  0.00    +0.000 HD
ENDBRANCH  24  35
BRANCH  25  37
ATOM     37  C   UNL     1       1.367   8.944  21.216  0.00  0.00    +0.000 C 
ATOM     38  N   UNL     1       1.278   9.381  22.294  0.00  0.00    +0.000 NA
ENDBRANCH  25  37
ENDBRANCH   1  24
TORSDOF 13
ENDMDL
MODEL 5
REMARK VINA RESULT:      -7.0      0.983      1.316
REMARK  Name = 
REMARK  16 active torsions:
REMARK  status: ('A' for Active; 'I' for Inactive)
REMARK    1  A    between atoms: C_1  and  C_2
REMARK    2  A    between atoms: C_2  and  C_3
REMARK    3  A    between atoms: C_2  and  C_4
REMARK    4  A    between atoms: C_2  and  O_5
REMARK    5  A    between atoms: O_5  and  C_6
REMARK    6  A    between atoms: N_8  and  C_9
REMARK    7  A    between atoms: C_9  and  C_10
REMARK    8  A    between atoms: C_9  and  C_21
REMARK    9  A    between atoms: C_10  and  C_12
REMARK   10  A    between atoms: C_12  and  N_13
REMARK   11  A    between atoms: C_12  and  C_14
REMARK   12  A    between atoms: C_14  and  C_15
REMARK   13  A    between atoms: C_21  and  O_22
REMARK   14  A    between atoms: C_23  and  C_24
REMARK   15  A    between atoms: C_23  and  C_26
REMARK   16  A    between atoms: C_29  and  N_30
REMARK                            x       y       z     vdW  Elec       q    Type
REMARK                         _______ _______ _______ _____ _____    ______ ____
ROOT
ATOM      1  C   UNL     1       0.021  10.592  19.142  0.00  0.00    +0.000 C 
ENDROOT
BRANCH   1   4
ATOM      2  C   UNL     1       1.147  12.540  20.115  0.00  0.00    +0.000 C 
ATOM      3  O   UNL     1       1.405  11.954  21.157  0.00  0.00    +0.000 OA
ATOM      4  N   UNL     1       0.692  11.887  19.003  0.00  0.00    +0.000 N 
ATOM      5  H   UNL     1       0.394  12.501  18.258  0.00  0.00    +0.000 HD
BRANCH   2   6
ATOM      6  O   UNL     1       1.231  13.879  19.902  0.00  0.00    +0.000 OA
BRANCH   6   8
ATOM      7  C   UNL     1       3.116  13.556  18.332  0.00  0.00    +0.000 C 
ATOM      8  C   UNL     1       2.477  14.448  19.403  0.00  0.00    +0.000 C 
ATOM      9  C   UNL     1       3.460  14.731  20.549  0.00  0.00    +0.000 C 
ATOM     10  C   UNL     1       2.123  15.792  18.739  0.00  0.00    +0.000 C 
ENDBRANCH   6   8
ENDBRANCH   2   6
ENDBRANCH   1   4
BRANCH   1  11
ATOM     11  C   UNL     1      -1.377  10.496  18.447  0.00  0.00    +0.000 C 
ATOM     12  O   UNL     1      -1.840   9.409  18.081  0.00  0.00    +0.000 OA
BRANCH  11  13
ATOM     13  C   UNL     1      -2.127  11.809  18.148  0.00  0.00    +0.000 C 
BRANCH  13  14
ATOM     14  N   UNL     1      -1.346  12.571  17.149  0.00  0.00    +0.000 NA
ATOM     15  H   UNL     1      -1.933  13.341  16.801  0.00  0.00    +0.000 HD
ATOM     16  H   UNL     1      -1.164  11.992  16.331  0.00  0.00    +0.000 HD
ENDBRANCH  13  14
BRANCH  13  17
ATOM     17  C   UNL     1      -3.543  11.574  17.569  0.00  0.00    +0.000 C 
BRANCH  17  18
ATOM     18  C   UNL     1      -4.653  11.660  18.593  0.00  0.00    +0.000 A 
ATOM     19  C   UNL     1      -4.498  12.447  19.742  0.00  0.00    +0.000 A 
ATOM     20  C   UNL     1      -5.495  12.475  20.719  0.00  0.00    +0.000 A 
ATOM     21  C   UNL     1      -6.652  11.713  20.563  0.00  0.00    +0.000 A 
ATOM     22  C   UNL     1      -6.831  10.955  19.409  0.00  0.00    +0.000 A 
ATOM     23  C   UNL     1      -5.845  10.942  18.422  0.00  0.00    +0.000 A 
ENDBRANCH  17  18
ENDBRANCH  13  17
ENDBRANCH  11  13
ENDBRANCH   1  11
BRANCH   1  24
ATOM     24  C   UNL     1       0.994   9.504  18.642  0.00  0.00    +0.000 C 
ATOM     25  C   UNL     1       1.576   8.563  19.418  0.00  0.00    +0.000 C 
BRANCH  25  26
ATOM     26  C   UNL     1       2.423   7.517  18.808  0.00  0.00    +0.000 A 
ATOM     27  C   UNL     1       2.329   6.174  19.202  0.00  0.00    +0.000 A 
ATOM     28  C   UNL     1       3.178   5.209  18.648  0.00  0.00    +0.000 A 
ATOM     29  C   UNL     1       4.129   5.593  17.692  0.00  0.00    +0.000 A 
ATOM     30  C   UNL     1       4.223   6.927  17.279  0.00  0.00    +0.000 A 
ATOM     31  C   UNL     1       3.374   7.883  17.841  0.00  0.00    +0.000 A 
BRANCH  29  32
ATOM     32  N   UNL     1       5.045   4.594  17.129  0.00  0.00    +0.000 N 
ATOM     33  O   UNL     1       4.560   3.521  16.740  0.00  0.00    +0.000 OA
ATOM     34  O   UNL     1       6.251   4.879  17.075  0.00  0.00    +0.000 OA
ENDBRANCH  29  32
ENDBRANCH  25  26
BRANCH  24  35
ATOM     35  O   UNL     1       1.311   9.533  17.280  0.00  0.00    +0.000 OA
ATOM     36  H   UNL     1       1.227  10.454  16.942  0.00  0.00    +0.000 HD
ENDBRANCH  24  35
BRANCH  25  37
ATOM     37  C   UNL     1       1.407   8.558  20.829  0.00  0.00    +0.000 C 
ATOM     38  N   UNL     1       1.204   8.535  21.977  0.00  0.00    +0.000 NA
ENDBRANCH  25  37
ENDBRANCH   1  24
TORSDOF 13
ENDMDL
MODEL 6
REMARK VINA RESULT:      -6.9      1.040      1.770
REMARK  Name = 
REMARK  16 active torsions:
REMARK  status: ('A' for Active; 'I' for Inactive)
REMARK    1  A    between atoms: C_1  and  C_2
REMARK    2  A    between atoms: C_2  and  C_3
REMARK    3  A    between atoms: C_2  and  C_4
REMARK    4  A    between atoms: C_2  and  O_5
REMARK    5  A    between atoms: O_5  and  C_6
REMARK    6  A    between atoms: N_8  and  C_9
REMARK    7  A    between atoms: C_9  and  C_10
REMARK    8  A    between atoms: C_9  and  C_21
REMARK    9  A    between atoms: C_10  and  C_12
REMARK   10  A    between atoms: C_12  and  N_13
REMARK   11  A    between atoms: C_12  and  C_14
REMARK   12  A    between atoms: C_14  and  C_15
REMARK   13  A    between atoms: C_21  and  O_22
REMARK   14  A    between atoms: C_23  and  C_24
REMARK   15  A    between atoms: C_23  and  C_26
REMARK   16  A    between atoms: C_29  and  N_30
REMARK                            x       y       z     vdW  Elec       q    Type
REMARK                         _______ _______ _______ _____ _____    ______ ____
ROOT
ATOM      1  C   UNL     1      -0.005  10.604  19.135  0.00  0.00    +0.000 C 
ENDROOT
BRANCH   1   4
ATOM      2  C   UNL     1       1.102  12.536  20.161  0.00  0.00    +0.000 C 
ATOM      3  O   UNL     1       1.343  11.933  21.197  0.00  0.00    +0.000 OA
ATOM      4  N   UNL     1       0.667  11.902  19.030  0.00  0.00    +0.000 N 
ATOM      5  H   UNL     1       0.380  12.528  18.291  0.00  0.00    +0.000 HD
BRANCH   2   6
ATOM      6  O   UNL     1       1.187  13.879  19.973  0.00  0.00    +0.000 OA
BRANCH   6   8
ATOM      7  C   UNL     1       2.276  15.920  19.093  0.00  0.00    +0.000 C 
ATOM      8  C   UNL     1       2.450  14.462  19.534  0.00  0.00    +0.000 C 
ATOM      9  C   UNL     1       3.098  13.619  18.426  0.00  0.00    +0.000 C 
ATOM     10  C   UNL     1       3.395  14.454  20.751  0.00  0.00    +0.000 C 
ENDBRANCH   6   8
ENDBRANCH   2   6
ENDBRANCH   1   4
BRANCH   1  11
ATOM     11  C   UNL     1      -1.401  10.525  18.434  0.00  0.00    +0.000 C 
ATOM     12  O   UNL     1      -1.886   9.441  18.088  0.00  0.00    +0.000 OA
BRANCH  11  13
ATOM     13  C   UNL     1      -2.119  11.848  18.103  0.00  0.00    +0.000 C 
BRANCH  13  14
ATOM     14  N   UNL     1      -1.323  12.564  17.082  0.00  0.00    +0.000 NA
ATOM     15  H   UNL     1      -1.457  12.090  16.179  0.00  0.00    +0.000 HD
ATOM     16  H   UNL     1      -0.328  12.469  17.282  0.00  0.00    +0.000 HD
ENDBRANCH  13  14
BRANCH  13  17
ATOM     17  C   UNL     1      -3.543  11.633  17.535  0.00  0.00    +0.000 C 
BRANCH  17  18
ATOM     18  C   UNL     1      -4.633  11.628  18.584  0.00  0.00    +0.000 A 
ATOM     19  C   UNL     1      -5.784  10.850  18.407  0.00  0.00    +0.000 A 
ATOM     20  C   UNL     1      -6.819  10.896  19.343  0.00  0.00    +0.000 A 
ATOM     21  C   UNL     1      -6.717  11.723  20.461  0.00  0.00    +0.000 A 
ATOM     22  C   UNL     1      -5.563  12.474  20.664  0.00  0.00    +0.000 A 
ATOM     23  C   UNL     1      -4.519  12.414  19.740  0.00  0.00    +0.000 A 
ENDBRANCH  17  18
ENDBRANCH  13  17
ENDBRANCH  11  13
ENDBRANCH   1  11
BRANCH   1  24
ATOM     24  C   UNL     1       0.970   9.529  18.613  0.00  0.00    +0.000 C 
ATOM     25  C   UNL     1       1.556   8.574  19.368  0.00  0.00    +0.000 C 
BRANCH  25  26
ATOM     26  C   UNL     1       2.405   7.542  18.736  0.00  0.00    +0.000 A 
ATOM     27  C   UNL     1       3.437   7.883  17.849  0.00  0.00    +0.000 A 
ATOM     28  C   UNL     1       4.193   6.886  17.223  0.00  0.00    +0.000 A 
ATOM     29  C   UNL     1       3.913   5.538  17.485  0.00  0.00    +0.000 A 
ATOM     30  C   UNL     1       2.895   5.185  18.379  0.00  0.00    +0.000 A 
ATOM     31  C   UNL     1       2.144   6.186  18.998  0.00  0.00    +0.000 A 
BRANCH  29  32
ATOM     32  N   UNL     1       4.680   4.486  16.808  0.00  0.00    +0.000 N 
ATOM     33  O   UNL     1       4.417   3.307  17.091  0.00  0.00    +0.000 OA
ATOM     34  O   UNL     1       5.547   4.835  15.992  0.00  0.00    +0.000 OA
ENDBRANCH  29  32
ENDBRANCH  25  26
BRANCH  24  35
ATOM     35  O   UNL     1       1.283   9.585  17.250  0.00  0.00    +0.000 OA
ATOM     36  H   UNL     1       0.551  10.027  16.762  0.00  0.00    +0.000 HD
ENDBRANCH  24  35
BRANCH  25  37
ATOM     37  C   UNL     1       1.392   8.542  20.779  0.00  0.00    +0.000 C 
ATOM     38  N   UNL     1       1.247   8.448  21.933  0.00  0.00    +0.000 NA
ENDBRANCH  25  37
ENDBRANCH   1  24
TORSDOF 13
ENDMDL
MODEL 7
REMARK VINA RESULT:      -6.9      2.556      4.468
REMARK  Name = 
REMARK  16 active torsions:
REMARK  status: ('A' for Active; 'I' for Inactive)
REMARK    1  A    between atoms: C_1  and  C_2
REMARK    2  A    between atoms: C_2  and  C_3
REMARK    3  A    between atoms: C_2  and  C_4
REMARK    4  A    between atoms: C_2  and  O_5
REMARK    5  A    between atoms: O_5  and  C_6
REMARK    6  A    between atoms: N_8  and  C_9
REMARK    7  A    between atoms: C_9  and  C_10
REMARK    8  A    between atoms: C_9  and  C_21
REMARK    9  A    between atoms: C_10  and  C_12
REMARK   10  A    between atoms: C_12  and  N_13
REMARK   11  A    between atoms: C_12  and  C_14
REMARK   12  A    between atoms: C_14  and  C_15
REMARK   13  A    between atoms: C_21  and  O_22
REMARK   14  A    between atoms: C_23  and  C_24
REMARK   15  A    between atoms: C_23  and  C_26
REMARK   16  A    between atoms: C_29  and  N_30
REMARK                            x       y       z     vdW  Elec       q    Type
REMARK                         _______ _______ _______ _____ _____    ______ ____
ROOT
ATOM      1  C   UNL     1       0.922   9.479  20.393  0.00  0.00    +0.000 C 
ENDROOT
BRANCH   1   4
ATOM      2  C   UNL     1      -0.599  10.753  18.954  0.00  0.00    +0.000 C 
ATOM      3  O   UNL     1       0.272  11.542  18.617  0.00  0.00    +0.000 OA
ATOM      4  N   UNL     1      -0.317   9.593  19.619  0.00  0.00    +0.000 N 
ATOM      5  H   UNL     1      -1.134   9.099  19.952  0.00  0.00    +0.000 HD
BRANCH   2   6
ATOM      6  O   UNL     1      -1.936  10.901  18.764  0.00  0.00    +0.000 OA
BRANCH   6   8
ATOM      7  C   UNL     1      -3.718   9.372  17.981  0.00  0.00    +0.000 C 
ATOM      8  C   UNL     1      -2.564  10.303  17.591  0.00  0.00    +0.000 C 
ATOM      9  C   UNL     1      -1.532   9.574  16.717  0.00  0.00    +0.000 C 
ATOM     10  C   UNL     1      -3.158  11.457  16.762  0.00  0.00    +0.000 C 
ENDBRANCH   6   8
ENDBRANCH   2   6
ENDBRANCH   1   4
BRANCH   1  11
ATOM     11  C   UNL     1       0.807   9.921  21.890  0.00  0.00    +0.000 C 
ATOM     12  O   UNL     1       1.709   9.681  22.702  0.00  0.00    +0.000 OA
BRANCH  11  13
ATOM     13  C   UNL     1      -0.504  10.588  22.347  0.00  0.00    +0.000 C 
BRANCH  13  14
ATOM     14  N   UNL     1      -0.779  10.164  23.738  0.00  0.00    +0.000 NA
ATOM     15  H   UNL     1      -1.799  10.153  23.875  0.00  0.00    +0.000 HD
ATOM     16  H   UNL     1      -0.436  10.865  24.392  0.00  0.00    +0.000 HD
ENDBRANCH  13  14
BRANCH  13  17
ATOM     17  C   UNL     1      -0.432  12.134  22.326  0.00  0.00    +0.000 C 
BRANCH  17  18
ATOM     18  C   UNL     1      -1.709  12.819  22.762  0.00  0.00    +0.000 A 
ATOM     19  C   UNL     1      -1.680  13.808  23.754  0.00  0.00    +0.000 A 
ATOM     20  C   UNL     1      -2.866  14.393  24.202  0.00  0.00    +0.000 A 
ATOM     21  C   UNL     1      -4.091  13.993  23.670  0.00  0.00    +0.000 A 
ATOM     22  C   UNL     1      -4.128  13.036  22.660  0.00  0.00    +0.000 A 
ATOM     23  C   UNL     1      -2.943  12.465  22.196  0.00  0.00    +0.000 A 
ENDBRANCH  17  18
ENDBRANCH  13  17
ENDBRANCH  11  13
ENDBRANCH   1  11
BRANCH   1  24
ATOM     24  C   UNL     1       1.431   8.030  20.253  0.00  0.00    +0.000 C 
ATOM     25  C   UNL     1       2.109   7.540  19.192  0.00  0.00    +0.000 C 
BRANCH  25  26
ATOM     26  C   UNL     1       2.623   6.155  19.212  0.00  0.00    +0.000 A 
ATOM     27  C   UNL     1       1.757   5.051  19.219  0.00  0.00    +0.000 A 
ATOM     28  C   UNL     1       2.265   3.750  19.290  0.00  0.00    +0.000 A 
ATOM     29  C   UNL     1       3.652   3.551  19.357  0.00  0.00    +0.000 A 
ATOM     30  C   UNL     1       4.527   4.644  19.335  0.00  0.00    +0.000 A 
ATOM     31  C   UNL     1       4.010   5.939  19.267  0.00  0.00    +0.000 A 
BRANCH  29  32
ATOM     32  N   UNL     1       4.192   2.192  19.465  0.00  0.00    +0.000 N 
ATOM     33  O   UNL     1       3.796   1.346  18.648  0.00  0.00    +0.000 OA
ATOM     34  O   UNL     1       5.016   1.965  20.365  0.00  0.00    +0.000 OA
ENDBRANCH  29  32
ENDBRANCH  25  26
BRANCH  24  35
ATOM     35  O   UNL     1       1.126   7.160  21.307  0.00  0.00    +0.000 OA
ATOM     36  H   UNL     1       1.398   7.569  22.160  0.00  0.00    +0.000 HD
ENDBRANCH  24  35
BRANCH  25  37
ATOM     37  C   UNL     1       2.333   8.327  18.030  0.00  0.00    +0.000 C 
ATOM     38  N   UNL     1       2.520   9.028  17.116  0.00  0.00    +0.000 NA
ENDBRANCH  25  37
ENDBRANCH   1  24
TORSDOF 13
ENDMDL
MODEL 8
REMARK VINA RESULT:      -6.9      2.284      4.347
REMARK  Name = 
REMARK  16 active torsions:
REMARK  status: ('A' for Active; 'I' for Inactive)
REMARK    1  A    between atoms: C_1  and  C_2
REMARK    2  A    between atoms: C_2  and  C_3
REMARK    3  A    between atoms: C_2  and  C_4
REMARK    4  A    between atoms: C_2  and  O_5
REMARK    5  A    between atoms: O_5  and  C_6
REMARK    6  A    between atoms: N_8  and  C_9
REMARK    7  A    between atoms: C_9  and  C_10
REMARK    8  A    between atoms: C_9  and  C_21
REMARK    9  A    between atoms: C_10  and  C_12
REMARK   10  A    between atoms: C_12  and  N_13
REMARK   11  A    between atoms: C_12  and  C_14
REMARK   12  A    between atoms: C_14  and  C_15
REMARK   13  A    between atoms: C_21  and  O_22
REMARK   14  A    between atoms: C_23  and  C_24
REMARK   15  A    between atoms: C_23  and  C_26
REMARK   16  A    between atoms: C_29  and  N_30
REMARK                            x       y       z     vdW  Elec       q    Type
REMARK                         _______ _______ _______ _____ _____    ______ ____
ROOT
ATOM      1  C   UNL     1      -0.198  11.008  19.997  0.00  0.00    +0.000 C 
ENDROOT
BRANCH   1   4
ATOM      2  C   UNL     1      -2.032  11.752  18.550  0.00  0.00    +0.000 C 
ATOM      3  O   UNL     1      -1.279  12.331  17.781  0.00  0.00    +0.000 OA
ATOM      4  N   UNL     1      -1.576  10.893  19.511  0.00  0.00    +0.000 N 
ATOM      5  H   UNL     1      -2.286  10.586  20.161  0.00  0.00    +0.000 HD
BRANCH   2   6
ATOM      6  O   UNL     1      -3.383  11.881  18.604  0.00  0.00    +0.000 OA
BRANCH   6   8
ATOM      7  C   UNL     1      -4.397  11.601  16.363  0.00  0.00    +0.000 C 
ATOM      8  C   UNL     1      -4.218  11.022  17.772  0.00  0.00    +0.000 C 
ATOM      9  C   UNL     1      -5.576  10.751  18.438  0.00  0.00    +0.000 C 
ATOM     10  C   UNL     1      -3.481   9.678  17.632  0.00  0.00    +0.000 C 
ENDBRANCH   6   8
ENDBRANCH   2   6
ENDBRANCH   1   4
BRANCH   1  11
ATOM     11  C   UNL     1      -0.051  11.650  21.416  0.00  0.00    +0.000 C 
ATOM     12  O   UNL     1       0.881  12.419  21.680  0.00  0.00    +0.000 OA
BRANCH  11  13
ATOM     13  C   UNL     1      -1.053  11.228  22.508  0.00  0.00    +0.000 C 
BRANCH  13  14
ATOM     14  N   UNL     1      -0.354  10.335  23.458  0.00  0.00    +0.000 NA
ATOM     15  H   UNL     1       0.046   9.550  22.927  0.00  0.00    +0.000 HD
ATOM     16  H   UNL     1      -1.025   9.905  24.093  0.00  0.00    +0.000 HD
ENDBRANCH  13  14
BRANCH  13  17
ATOM     17  C   UNL     1      -1.614  12.429  23.307  0.00  0.00    +0.000 C 
BRANCH  17  18
ATOM     18  C   UNL     1      -3.106  12.630  23.156  0.00  0.00    +0.000 A 
ATOM     19  C   UNL     1      -3.941  12.613  24.280  0.00  0.00    +0.000 A 
ATOM     20  C   UNL     1      -5.325  12.733  24.135  0.00  0.00    +0.000 A 
ATOM     21  C   UNL     1      -5.887  12.864  22.866  0.00  0.00    +0.000 A 
ATOM     22  C   UNL     1      -5.064  12.917  21.745  0.00  0.00    +0.000 A 
ATOM     23  C   UNL     1      -3.680  12.818  21.890  0.00  0.00    +0.000 A 
ENDBRANCH  17  18
ENDBRANCH  13  17
ENDBRANCH  11  13
ENDBRANCH   1  11
BRANCH   1  24
ATOM     24  C   UNL     1       0.443   9.607  19.925  0.00  0.00    +0.000 C 
ATOM     25  C   UNL     1       1.460   9.256  19.107  0.00  0.00    +0.000 C 
BRANCH  25  26
ATOM     26  C   UNL     1       2.050   7.904  19.191  0.00  0.00    +0.000 A 
ATOM     27  C   UNL     1       2.727   7.329  18.105  0.00  0.00    +0.000 A 
ATOM     28  C   UNL     1       3.231   6.027  18.191  0.00  0.00    +0.000 A 
ATOM     29  C   UNL     1       3.056   5.294  19.373  0.00  0.00    +0.000 A 
ATOM     30  C   UNL     1       2.397   5.862  20.470  0.00  0.00    +0.000 A 
ATOM     31  C   UNL     1       1.893   7.161  20.374  0.00  0.00    +0.000 A 
BRANCH  29  32
ATOM     32  N   UNL     1       3.554   3.917  19.461  0.00  0.00    +0.000 N 
ATOM     33  O   UNL     1       4.774   3.734  19.332  0.00  0.00    +0.000 OA
ATOM     34  O   UNL     1       2.727   3.013  19.660  0.00  0.00    +0.000 OA
ENDBRANCH  29  32
ENDBRANCH  25  26
BRANCH  24  35
ATOM     35  O   UNL     1      -0.110   8.627  20.757  0.00  0.00    +0.000 OA
ATOM     36  H   UNL     1      -0.417   7.867  20.211  0.00  0.00    +0.000 HD
ENDBRANCH  24  35
BRANCH  25  37
ATOM     37  C   UNL     1       1.978  10.160  18.140  0.00  0.00    +0.000 C 
ATOM     38  N   UNL     1       2.439  10.932  17.397  0.00  0.00    +0.000 NA
ENDBRANCH  25  37
ENDBRANCH   1  24
TORSDOF 13
ENDMDL
MODEL 9
REMARK VINA RESULT:      -6.8      1.039      1.736
REMARK  Name = 
REMARK  16 active torsions:
REMARK  status: ('A' for Active; 'I' for Inactive)
REMARK    1  A    between atoms: C_1  and  C_2
REMARK    2  A    between atoms: C_2  and  C_3
REMARK    3  A    between atoms: C_2  and  C_4
REMARK    4  A    between atoms: C_2  and  O_5
REMARK    5  A    between atoms: O_5  and  C_6
REMARK    6  A    between atoms: N_8  and  C_9
REMARK    7  A    between atoms: C_9  and  C_10
REMARK    8  A    between atoms: C_9  and  C_21
REMARK    9  A    between atoms: C_10  and  C_12
REMARK   10  A    between atoms: C_12  and  N_13
REMARK   11  A    between atoms: C_12  and  C_14
REMARK   12  A    between atoms: C_14  and  C_15
REMARK   13  A    between atoms: C_21  and  O_22
REMARK   14  A    between atoms: C_23  and  C_24
REMARK   15  A    between atoms: C_23  and  C_26
REMARK   16  A    between atoms: C_29  and  N_30
REMARK                            x       y       z     vdW  Elec       q    Type
REMARK                         _______ _______ _______ _____ _____    ______ ____
ROOT
ATOM      1  C   UNL     1       0.335  10.132  18.907  0.00  0.00    +0.000 C 
ENDROOT
BRANCH   1   4
ATOM      2  C   UNL     1       1.102  11.868  20.459  0.00  0.00    +0.000 C 
ATOM      3  O   UNL     1       1.118  11.104  21.413  0.00  0.00    +0.000 OA
ATOM      4  N   UNL     1       0.965  11.429  19.172  0.00  0.00    +0.000 N 
ATOM      5  H   UNL     1       0.835  12.168  18.495  0.00  0.00    +0.000 HD
BRANCH   2   6
ATOM      6  O   UNL     1       1.181  13.224  20.512  0.00  0.00    +0.000 OA
BRANCH   6   8
ATOM      7  C   UNL     1      -1.179  13.085  21.247  0.00  0.00    +0.000 C 
ATOM      8  C   UNL     1      -0.001  13.996  20.878  0.00  0.00    +0.000 C 
ATOM      9  C   UNL     1      -0.388  14.984  19.768  0.00  0.00    +0.000 C 
ATOM     10  C   UNL     1       0.365  14.811  22.132  0.00  0.00    +0.000 C 
ENDBRANCH   6   8
ENDBRANCH   2   6
ENDBRANCH   1   4
BRANCH   1  11
ATOM     11  C   UNL     1      -0.923  10.187  17.980  0.00  0.00    +0.000 C 
ATOM     12  O   UNL     1      -1.054   9.409  17.027  0.00  0.00    +0.000 OA
BRANCH  11  13
ATOM     13  C   UNL     1      -1.958  11.301  18.232  0.00  0.00    +0.000 C 
BRANCH  13  14
ATOM     14  N   UNL     1      -1.527  12.509  17.493  0.00  0.00    +0.000 NA
ATOM     15  H   UNL     1      -0.526  12.415  17.279  0.00  0.00    +0.000 HD
ATOM     16  H   UNL     1      -1.590  13.328  18.096  0.00  0.00    +0.000 HD
ENDBRANCH  13  14
BRANCH  13  17
ATOM     17  C   UNL     1      -3.378  10.924  17.743  0.00  0.00    +0.000 C 
BRANCH  17  18
ATOM     18  C   UNL     1      -4.466  11.855  18.230  0.00  0.00    +0.000 A 
ATOM     19  C   UNL     1      -5.498  12.251  17.370  0.00  0.00    +0.000 A 
ATOM     20  C   UNL     1      -6.467  13.161  17.799  0.00  0.00    +0.000 A 
ATOM     21  C   UNL     1      -6.410  13.690  19.088  0.00  0.00    +0.000 A 
ATOM     22  C   UNL     1      -5.408  13.277  19.962  0.00  0.00    +0.000 A 
ATOM     23  C   UNL     1      -4.452  12.352  19.542  0.00  0.00    +0.000 A 
ENDBRANCH  17  18
ENDBRANCH  13  17
ENDBRANCH  11  13
ENDBRANCH   1  11
BRANCH   1  24
ATOM     24  C   UNL     1       1.422   9.187  18.357  0.00  0.00    +0.000 C 
ATOM     25  C   UNL     1       1.932   8.120  19.011  0.00  0.00    +0.000 C 
BRANCH  25  26
ATOM     26  C   UNL     1       2.909   7.235  18.342  0.00  0.00    +0.000 A 
ATOM     27  C   UNL     1       4.018   7.752  17.655  0.00  0.00    +0.000 A 
ATOM     28  C   UNL     1       4.900   6.897  16.986  0.00  0.00    +0.000 A 
ATOM     29  C   UNL     1       4.670   5.514  17.003  0.00  0.00    +0.000 A 
ATOM     30  C   UNL     1       3.576   4.984  17.698  0.00  0.00    +0.000 A 
ATOM     31  C   UNL     1       2.699   5.845  18.360  0.00  0.00    +0.000 A 
BRANCH  29  32
ATOM     32  N   UNL     1       5.573   4.613  16.277  0.00  0.00    +0.000 N 
ATOM     33  O   UNL     1       5.207   3.440  16.112  0.00  0.00    +0.000 OA
ATOM     34  O   UNL     1       6.650   5.076  15.870  0.00  0.00    +0.000 OA
ENDBRANCH  29  32
ENDBRANCH  25  26
BRANCH  24  35
ATOM     35  O   UNL     1       1.930   9.496  17.090  0.00  0.00    +0.000 OA
ATOM     36  H   UNL     1       2.914   9.512  17.125  0.00  0.00    +0.000 HD
ENDBRANCH  24  35
BRANCH  25  37
ATOM     37  C   UNL     1       1.563   7.828  20.352  0.00  0.00    +0.000 C 
ATOM     38  N   UNL     1       1.211   7.636  21.447  0.00  0.00    +0.000 NA
ENDBRANCH  25  37
ENDBRANCH   1  24
TORSDOF 13
ENDMDL
