MODEL 1
REMARK VINA RESULT:      -7.7      0.000      0.000
REMARK  Name = 
REMARK  5 active torsions:
REMARK  status: ('A' for Active; 'I' for Inactive)
REMARK    1  A    between atoms: C_1  and  O_2
REMARK    2  A    between atoms: O_2  and  C_3
REMARK    3  A    between atoms: C_13  and  C_14
REMARK    4  A    between atoms: C_14  and  N_15
REMARK    5  A    between atoms: C_16  and  C_17
REMARK                            x       y       z     vdW  Elec       q    Type
REMARK                         _______ _______ _______ _____ _____    ______ ____
ROOT
ATOM      1  C   UNL     1       2.361   7.595  18.516  0.00  0.00    +0.000 A 
ATOM      2  C   UNL     1       1.938   7.917  19.792  0.00  0.00    +0.000 A 
ATOM      3  C   UNL     1       1.727   6.875  20.687  0.00  0.00    +0.000 A 
ATOM      4  C   UNL     1       1.959   5.553  20.286  0.00  0.00    +0.000 A 
ATOM      5  C   UNL     1       1.692   4.454  21.134  0.00  0.00    +0.000 A 
ATOM      6  C   UNL     1       1.932   3.149  20.704  0.00  0.00    +0.000 A 
ATOM      7  C   UNL     1       2.492   2.959  19.453  0.00  0.00    +0.000 A 
ATOM      8  C   UNL     1       2.793   4.045  18.629  0.00  0.00    +0.000 A 
ATOM      9  C   UNL     1       2.483   5.345  18.991  0.00  0.00    +0.000 A 
ATOM     10  N   UNL     1       2.672   6.347  18.119  0.00  0.00    +0.000 NA
ATOM     11  C   UNL     1       3.505   3.611  17.374  0.00  0.00    +0.000 C 
ATOM     12  C   UNL     1       3.495   2.069  17.484  0.00  0.00    +0.000 C 
ATOM     13  C   UNL     1       2.846   1.659  18.815  0.00  0.00    +0.000 C 
ENDROOT
BRANCH   1  15
ATOM     14  C   UNL     1       1.547   9.682  17.922  0.00  0.00    +0.000 C 
ATOM     15  O   UNL     1       2.455   8.628  17.606  0.00  0.00    +0.000 OA
ENDBRANCH   1  15
BRANCH  11  16
ATOM     16  C   UNL     1       4.931   4.185  17.308  0.00  0.00    +0.000 C 
BRANCH  16  17
ATOM     17  N   UNL     1       5.400   4.359  15.941  0.00  0.00    +0.000 N 
ATOM     18  C   UNL     1       6.724   4.587  15.644  0.00  0.00    +0.000 C 
ATOM     19  C   UNL     1       7.001   4.809  14.181  0.00  0.00    +0.000 C 
ATOM     20  O   UNL     1       7.623   4.599  16.478  0.00  0.00    +0.000 OA
ATOM     21  H   UNL     1       4.701   4.510  15.225  0.00  0.00    +0.000 HD
ENDBRANCH  16  17
ENDBRANCH  11  16
TORSDOF 3
ENDMDL
MODEL 2
REMARK VINA RESULT:      -7.6      1.863      5.512
REMARK  Name = 
REMARK  5 active torsions:
REMARK  status: ('A' for Active; 'I' for Inactive)
REMARK    1  A    between atoms: C_1  and  O_2
REMARK    2  A    between atoms: O_2  and  C_3
REMARK    3  A    between atoms: C_13  and  C_14
REMARK    4  A    between atoms: C_14  and  N_15
REMARK    5  A    between atoms: C_16  and  C_17
REMARK                            x       y       z     vdW  Elec       q    Type
REMARK                         _______ _______ _______ _____ _____    ______ ____
ROOT
ATOM      1  C   UNL     1       6.202   5.517  17.937  0.00  0.00    +0.000 A 
ATOM      2  C   UNL     1       6.348   4.890  16.714  0.00  0.00    +0.000 A 
ATOM      3  C   UNL     1       5.369   3.981  16.331  0.00  0.00    +0.000 A 
ATOM      4  C   UNL     1       4.272   3.742  17.169  0.00  0.00    +0.000 A 
ATOM      5  C   UNL     1       3.288   2.777  16.858  0.00  0.00    +0.000 A 
ATOM      6  C   UNL     1       2.209   2.560  17.715  0.00  0.00    +0.000 A 
ATOM      7  C   UNL     1       2.094   3.352  18.844  0.00  0.00    +0.000 A 
ATOM      8  C   UNL     1       3.044   4.332  19.133  0.00  0.00    +0.000 A 
ATOM      9  C   UNL     1       4.173   4.509  18.350  0.00  0.00    +0.000 A 
ATOM     10  N   UNL     1       5.125   5.375  18.732  0.00  0.00    +0.000 NA
ATOM     11  C   UNL     1       2.653   5.150  20.336  0.00  0.00    +0.000 C 
ATOM     12  C   UNL     1       1.367   4.448  20.830  0.00  0.00    +0.000 C 
ATOM     13  C   UNL     1       1.016   3.300  19.871  0.00  0.00    +0.000 C 
ENDROOT
BRANCH   1  15
ATOM     14  C   UNL     1       7.441   7.416  17.456  0.00  0.00    +0.000 C 
ATOM     15  O   UNL     1       7.238   6.328  18.356  0.00  0.00    +0.000 OA
ENDBRANCH   1  15
BRANCH  11  16
ATOM     16  C   UNL     1       2.411   6.623  19.963  0.00  0.00    +0.000 C 
BRANCH  16  17
ATOM     17  N   UNL     1       1.743   7.365  21.021  0.00  0.00    +0.000 N 
ATOM     18  C   UNL     1       1.188   8.605  20.809  0.00  0.00    +0.000 C 
ATOM     19  C   UNL     1       0.603   9.242  22.042  0.00  0.00    +0.000 C 
ATOM     20  O   UNL     1       1.148   9.162  19.717  0.00  0.00    +0.000 OA
ATOM     21  H   UNL     1       1.869   7.037  21.970  0.00  0.00    +0.000 HD
ENDBRANCH  16  17
ENDBRANCH  11  16
TORSDOF 3
ENDMDL
MODEL 3
REMARK VINA RESULT:      -7.5      1.891      5.551
REMARK  Name = 
REMARK  5 active torsions:
REMARK  status: ('A' for Active; 'I' for Inactive)
REMARK    1  A    between atoms: C_1  and  O_2
REMARK    2  A    between atoms: O_2  and  C_3
REMARK    3  A    between atoms: C_13  and  C_14
REMARK    4  A    between atoms: C_14  and  N_15
REMARK    5  A    between atoms: C_16  and  C_17
REMARK                            x       y       z     vdW  Elec       q    Type
REMARK                         _______ _______ _______ _____ _____    ______ ____
ROOT
ATOM      1  C   UNL     1       5.792   6.331  16.861  0.00  0.00    +0.000 A 
ATOM      2  C   UNL     1       5.859   5.376  15.865  0.00  0.00    +0.000 A 
ATOM      3  C   UNL     1       4.964   4.314  15.924  0.00  0.00    +0.000 A 
ATOM      4  C   UNL     1       4.024   4.250  16.961  0.00  0.00    +0.000 A 
ATOM      5  C   UNL     1       3.140   3.157  17.106  0.00  0.00    +0.000 A 
ATOM      6  C   UNL     1       2.217   3.122  18.151  0.00  0.00    +0.000 A 
ATOM      7  C   UNL     1       2.147   4.208  19.005  0.00  0.00    +0.000 A 
ATOM      8  C   UNL     1       2.992   5.306  18.841  0.00  0.00    +0.000 A 
ATOM      9  C   UNL     1       3.979   5.330  17.870  0.00  0.00    +0.000 A 
ATOM     10  N   UNL     1       4.852   6.348  17.827  0.00  0.00    +0.000 NA
ATOM     11  C   UNL     1       2.657   6.416  19.803  0.00  0.00    +0.000 C 
ATOM     12  C   UNL     1       1.546   5.792  20.679  0.00  0.00    +0.000 C 
ATOM     13  C   UNL     1       1.225   4.381  20.164  0.00  0.00    +0.000 C 
ENDROOT
BRANCH   1  15
ATOM     14  C   UNL     1       7.693   7.131  17.918  0.00  0.00    +0.000 C 
ATOM     15  O   UNL     1       6.759   7.315  16.855  0.00  0.00    +0.000 OA
ENDBRANCH   1  15
BRANCH  11  16
ATOM     16  C   UNL     1       2.182   7.679  19.064  0.00  0.00    +0.000 C 
BRANCH  16  17
ATOM     17  N   UNL     1       1.489   8.611  19.940  0.00  0.00    +0.000 N 
ATOM     18  C   UNL     1       0.781   9.686  19.454  0.00  0.00    +0.000 C 
ATOM     19  C   UNL     1       0.191  10.573  20.519  0.00  0.00    +0.000 C 
ATOM     20  O   UNL     1       0.617   9.917  18.261  0.00  0.00    +0.000 OA
ATOM     21  H   UNL     1       1.703   8.568  20.928  0.00  0.00    +0.000 HD
ENDBRANCH  16  17
ENDBRANCH  11  16
TORSDOF 3
ENDMDL
MODEL 4
REMARK VINA RESULT:      -7.3      2.842      4.950
REMARK  Name = 
REMARK  5 active torsions:
REMARK  status: ('A' for Active; 'I' for Inactive)
REMARK    1  A    between atoms: C_1  and  O_2
REMARK    2  A    between atoms: O_2  and  C_3
REMARK    3  A    between atoms: C_13  and  C_14
REMARK    4  A    between atoms: C_14  and  N_15
REMARK    5  A    between atoms: C_16  and  C_17
REMARK                            x       y       z     vdW  Elec       q    Type
REMARK                         _______ _______ _______ _____ _____    ______ ____
ROOT
ATOM      1  C   UNL     1       5.269   4.354  16.408  0.00  0.00    +0.000 A 
ATOM      2  C   UNL     1       5.239   5.715  16.172  0.00  0.00    +0.000 A 
ATOM      3  C   UNL     1       4.447   6.498  17.003  0.00  0.00    +0.000 A 
ATOM      4  C   UNL     1       3.728   5.903  18.048  0.00  0.00    +0.000 A 
ATOM      5  C   UNL     1       2.855   6.645  18.875  0.00  0.00    +0.000 A 
ATOM      6  C   UNL     1       2.151   6.022  19.906  0.00  0.00    +0.000 A 
ATOM      7  C   UNL     1       2.374   4.676  20.137  0.00  0.00    +0.000 A 
ATOM      8  C   UNL     1       3.266   3.950  19.346  0.00  0.00    +0.000 A 
ATOM      9  C   UNL     1       3.909   4.519  18.259  0.00  0.00    +0.000 A 
ATOM     10  N   UNL     1       4.659   3.756  17.449  0.00  0.00    +0.000 NA
ATOM     11  C   UNL     1       3.441   2.542  19.852  0.00  0.00    +0.000 C 
ATOM     12  C   UNL     1       2.425   2.463  21.016  0.00  0.00    +0.000 C 
ATOM     13  C   UNL     1       1.747   3.830  21.191  0.00  0.00    +0.000 C 
ENDROOT
BRANCH   1  15
ATOM     14  C   UNL     1       5.940   4.145  14.200  0.00  0.00    +0.000 C 
ATOM     15  O   UNL     1       5.966   3.574  15.507  0.00  0.00    +0.000 OA
ENDBRANCH   1  15
BRANCH  11  16
ATOM     16  C   UNL     1       4.886   2.286  20.317  0.00  0.00    +0.000 C 
BRANCH  16  17
ATOM     17  N   UNL     1       5.236   0.874  20.299  0.00  0.00    +0.000 N 
ATOM     18  C   UNL     1       5.903   0.271  21.339  0.00  0.00    +0.000 C 
ATOM     19  C   UNL     1       6.237  -1.179  21.106  0.00  0.00    +0.000 C 
ATOM     20  O   UNL     1       6.201   0.838  22.386  0.00  0.00    +0.000 OA
ATOM     21  H   UNL     1       5.157   0.386  19.416  0.00  0.00    +0.000 HD
ENDBRANCH  16  17
ENDBRANCH  11  16
TORSDOF 3
ENDMDL
MODEL 5
REMARK VINA RESULT:      -7.3      2.637      4.775
REMARK  Name = 
REMARK  5 active torsions:
REMARK  status: ('A' for Active; 'I' for Inactive)
REMARK    1  A    between atoms: C_1  and  O_2
REMARK    2  A    between atoms: O_2  and  C_3
REMARK    3  A    between atoms: C_13  and  C_14
REMARK    4  A    between atoms: C_14  and  N_15
REMARK    5  A    between atoms: C_16  and  C_17
REMARK                            x       y       z     vdW  Elec       q    Type
REMARK                         _______ _______ _______ _____ _____    ______ ____
ROOT
ATOM      1  C   UNL     1       3.849   2.793  18.971  0.00  0.00    +0.000 A 
ATOM      2  C   UNL     1       2.574   3.051  18.505  0.00  0.00    +0.000 A 
ATOM      3  C   UNL     1       2.330   4.299  17.943  0.00  0.00    +0.000 A 
ATOM      4  C   UNL     1       3.365   5.237  17.849  0.00  0.00    +0.000 A 
ATOM      5  C   UNL     1       3.152   6.542  17.352  0.00  0.00    +0.000 A 
ATOM      6  C   UNL     1       4.204   7.455  17.273  0.00  0.00    +0.000 A 
ATOM      7  C   UNL     1       5.470   7.034  17.638  0.00  0.00    +0.000 A 
ATOM      8  C   UNL     1       5.691   5.733  18.093  0.00  0.00    +0.000 A 
ATOM      9  C   UNL     1       4.653   4.834  18.267  0.00  0.00    +0.000 A 
ATOM     10  N   UNL     1       4.889   3.637  18.826  0.00  0.00    +0.000 NA
ATOM     11  C   UNL     1       7.156   5.461  18.314  0.00  0.00    +0.000 C 
ATOM     12  C   UNL     1       7.810   6.836  18.041  0.00  0.00    +0.000 C 
ATOM     13  C   UNL     1       6.726   7.836  17.610  0.00  0.00    +0.000 C 
ENDROOT
BRANCH   1  15
ATOM     14  C   UNL     1       4.865   1.771  20.786  0.00  0.00    +0.000 C 
ATOM     15  O   UNL     1       4.048   1.597  19.630  0.00  0.00    +0.000 OA
ENDBRANCH   1  15
BRANCH  11  16
ATOM     16  C   UNL     1       7.676   4.367  17.365  0.00  0.00    +0.000 C 
BRANCH  16  17
ATOM     17  N   UNL     1       6.736   4.061  16.297  0.00  0.00    +0.000 N 
ATOM     18  C   UNL     1       6.832   4.634  15.050  0.00  0.00    +0.000 C 
ATOM     19  C   UNL     1       5.728   4.245  14.102  0.00  0.00    +0.000 C 
ATOM     20  O   UNL     1       7.736   5.389  14.708  0.00  0.00    +0.000 OA
ATOM     21  H   UNL     1       5.889   3.569  16.550  0.00  0.00    +0.000 HD
ENDBRANCH  16  17
ENDBRANCH  11  16
TORSDOF 3
ENDMDL
MODEL 6
REMARK VINA RESULT:      -7.3      2.568      4.859
REMARK  Name = 
REMARK  5 active torsions:
REMARK  status: ('A' for Active; 'I' for Inactive)
REMARK    1  A    between atoms: C_1  and  O_2
REMARK    2  A    between atoms: O_2  and  C_3
REMARK    3  A    between atoms: C_13  and  C_14
REMARK    4  A    between atoms: C_14  and  N_15
REMARK    5  A    between atoms: C_16  and  C_17
REMARK                            x       y       z     vdW  Elec       q    Type
REMARK                         _______ _______ _______ _____ _____    ______ ____
ROOT
ATOM      1  C   UNL     1       4.522   2.744  20.093  0.00  0.00    +0.000 A 
ATOM      2  C   UNL     1       3.164   2.704  19.841  0.00  0.00    +0.000 A 
ATOM      3  C   UNL     1       2.612   3.744  19.102  0.00  0.00    +0.000 A 
ATOM      4  C   UNL     1       3.432   4.775  18.627  0.00  0.00    +0.000 A 
ATOM      5  C   UNL     1       2.909   5.890  17.933  0.00  0.00    +0.000 A 
ATOM      6  C   UNL     1       3.752   6.902  17.475  0.00  0.00    +0.000 A 
ATOM      7  C   UNL     1       5.116   6.761  17.663  0.00  0.00    +0.000 A 
ATOM      8  C   UNL     1       5.638   5.642  18.315  0.00  0.00    +0.000 A 
ATOM      9  C   UNL     1       4.821   4.666  18.860  0.00  0.00    +0.000 A 
ATOM     10  N   UNL     1       5.355   3.674  19.587  0.00  0.00    +0.000 NA
ATOM     11  C   UNL     1       7.144   5.640  18.298  0.00  0.00    +0.000 C 
ATOM     12  C   UNL     1       7.486   6.997  17.639  0.00  0.00    +0.000 C 
ATOM     13  C   UNL     1       6.184   7.707  17.236  0.00  0.00    +0.000 C 
ENDROOT
BRANCH   1  15
ATOM     14  C   UNL     1       5.140   0.516  20.251  0.00  0.00    +0.000 C 
ATOM     15  O   UNL     1       5.036   1.769  20.924  0.00  0.00    +0.000 OA
ENDBRANCH   1  15
BRANCH  11  16
ATOM     16  C   UNL     1       7.697   4.445  17.501  0.00  0.00    +0.000 C 
BRANCH  16  17
ATOM     17  N   UNL     1       7.681   4.676  16.065  0.00  0.00    +0.000 N 
ATOM     18  C   UNL     1       6.687   4.181  15.253  0.00  0.00    +0.000 C 
ATOM     19  C   UNL     1       6.880   4.467  13.788  0.00  0.00    +0.000 C 
ATOM     20  O   UNL     1       5.707   3.566  15.664  0.00  0.00    +0.000 OA
ATOM     21  H   UNL     1       8.525   5.042  15.642  0.00  0.00    +0.000 HD
ENDBRANCH  16  17
ENDBRANCH  11  16
TORSDOF 3
ENDMDL
MODEL 7
REMARK VINA RESULT:      -7.3      1.646      5.492
REMARK  Name = 
REMARK  5 active torsions:
REMARK  status: ('A' for Active; 'I' for Inactive)
REMARK    1  A    between atoms: C_1  and  O_2
REMARK    2  A    between atoms: O_2  and  C_3
REMARK    3  A    between atoms: C_13  and  C_14
REMARK    4  A    between atoms: C_14  and  N_15
REMARK    5  A    between atoms: C_16  and  C_17
REMARK                            x       y       z     vdW  Elec       q    Type
REMARK                         _______ _______ _______ _____ _____    ______ ____
ROOT
ATOM      1  C   UNL     1       6.662   6.061  16.622  0.00  0.00    +0.000 A 
ATOM      2  C   UNL     1       6.822   4.915  15.866  0.00  0.00    +0.000 A 
ATOM      3  C   UNL     1       5.902   3.889  16.043  0.00  0.00    +0.000 A 
ATOM      4  C   UNL     1       4.847   4.046  16.950  0.00  0.00    +0.000 A 
ATOM      5  C   UNL     1       3.927   3.007  17.217  0.00  0.00    +0.000 A 
ATOM      6  C   UNL     1       2.887   3.194  18.129  0.00  0.00    +0.000 A 
ATOM      7  C   UNL     1       2.743   4.437  18.719  0.00  0.00    +0.000 A 
ATOM      8  C   UNL     1       3.628   5.477  18.427  0.00  0.00    +0.000 A 
ATOM      9  C   UNL     1       4.721   5.295  17.597  0.00  0.00    +0.000 A 
ATOM     10  N   UNL     1       5.617   6.282  17.443  0.00  0.00    +0.000 NA
ATOM     11  C   UNL     1       3.209   6.766  19.085  0.00  0.00    +0.000 C 
ATOM     12  C   UNL     1       1.989   6.342  19.935  0.00  0.00    +0.000 C 
ATOM     13  C   UNL     1       1.698   4.852  19.696  0.00  0.00    +0.000 C 
ENDROOT
BRANCH   1  15
ATOM     14  C   UNL     1       7.765   7.771  17.731  0.00  0.00    +0.000 C 
ATOM     15  O   UNL     1       7.647   7.024  16.522  0.00  0.00    +0.000 OA
ENDBRANCH   1  15
BRANCH  11  16
ATOM     16  C   UNL     1       2.853   7.841  18.043  0.00  0.00    +0.000 C 
BRANCH  16  17
ATOM     17  N   UNL     1       1.558   8.455  18.295  0.00  0.00    +0.000 N 
ATOM     18  C   UNL     1       1.375   9.818  18.271  0.00  0.00    +0.000 C 
ATOM     19  C   UNL     1      -0.019  10.263  18.623  0.00  0.00    +0.000 C 
ATOM     20  O   UNL     1       2.253  10.623  17.978  0.00  0.00    +0.000 OA
ATOM     21  H   UNL     1       0.832   7.867  18.685  0.00  0.00    +0.000 HD
ENDBRANCH  16  17
ENDBRANCH  11  16
TORSDOF 3
ENDMDL
MODEL 8
REMARK VINA RESULT:      -7.2      2.693      4.652
REMARK  Name = 
REMARK  5 active torsions:
REMARK  status: ('A' for Active; 'I' for Inactive)
REMARK    1  A    between atoms: C_1  and  O_2
REMARK    2  A    between atoms: O_2  and  C_3
REMARK    3  A    between atoms: C_13  and  C_14
REMARK    4  A    between atoms: C_14  and  N_15
REMARK    5  A    between atoms: C_16  and  C_17
REMARK                            x       y       z     vdW  Elec       q    Type
REMARK                         _______ _______ _______ _____ _____    ______ ____
ROOT
ATOM      1  C   UNL     1       3.057   2.654  18.100  0.00  0.00    +0.000 A 
ATOM      2  C   UNL     1       1.766   3.147  18.085  0.00  0.00    +0.000 A 
ATOM      3  C   UNL     1       1.599   4.520  17.958  0.00  0.00    +0.000 A 
ATOM      4  C   UNL     1       2.719   5.352  17.834  0.00  0.00    +0.000 A 
ATOM      5  C   UNL     1       2.606   6.759  17.773  0.00  0.00    +0.000 A 
ATOM      6  C   UNL     1       3.742   7.560  17.651  0.00  0.00    +0.000 A 
ATOM      7  C   UNL     1       4.974   6.942  17.532  0.00  0.00    +0.000 A 
ATOM      8  C   UNL     1       5.085   5.551  17.552  0.00  0.00    +0.000 A 
ATOM      9  C   UNL     1       3.987   4.733  17.763  0.00  0.00    +0.000 A 
ATOM     10  N   UNL     1       4.154   3.409  17.902  0.00  0.00    +0.000 NA
ATOM     11  C   UNL     1       6.497   5.100  17.285  0.00  0.00    +0.000 C 
ATOM     12  C   UNL     1       7.279   6.432  17.213  0.00  0.00    +0.000 C 
ATOM     13  C   UNL     1       6.299   7.605  17.373  0.00  0.00    +0.000 C 
ENDROOT
BRANCH   1  15
ATOM     14  C   UNL     1       4.359   1.050  19.151  0.00  0.00    +0.000 C 
ATOM     15  O   UNL     1       3.212   1.304  18.343  0.00  0.00    +0.000 OA
ENDBRANCH   1  15
BRANCH  11  16
ATOM     16  C   UNL     1       6.593   4.293  15.978  0.00  0.00    +0.000 C 
BRANCH  16  17
ATOM     17  N   UNL     1       7.311   5.006  14.933  0.00  0.00    +0.000 N 
ATOM     18  C   UNL     1       7.163   4.698  13.600  0.00  0.00    +0.000 C 
ATOM     19  C   UNL     1       8.040   5.501  12.677  0.00  0.00    +0.000 C 
ATOM     20  O   UNL     1       6.380   3.856  13.173  0.00  0.00    +0.000 OA
ATOM     21  H   UNL     1       8.076   5.604  15.218  0.00  0.00    +0.000 HD
ENDBRANCH  16  17
ENDBRANCH  11  16
TORSDOF 3
ENDMDL
MODEL 9
REMARK VINA RESULT:      -7.2      2.157      3.285
REMARK  Name = 
REMARK  5 active torsions:
REMARK  status: ('A' for Active; 'I' for Inactive)
REMARK    1  A    between atoms: C_1  and  O_2
REMARK    2  A    between atoms: O_2  and  C_3
REMARK    3  A    between atoms: C_13  and  C_14
REMARK    4  A    between atoms: C_14  and  N_15
REMARK    5  A    between atoms: C_16  and  C_17
REMARK                            x       y       z     vdW  Elec       q    Type
REMARK                         _______ _______ _______ _____ _____    ______ ____
ROOT
ATOM      1  C   UNL     1       2.297   6.959  19.642  0.00  0.00    +0.000 A 
ATOM      2  C   UNL     1       1.873   5.942  20.475  0.00  0.00    +0.000 A 
ATOM      3  C   UNL     1       2.186   4.637  20.114  0.00  0.00    +0.000 A 
ATOM      4  C   UNL     1       2.925   4.392  18.949  0.00  0.00    +0.000 A 
ATOM      5  C   UNL     1       3.208   3.082  18.502  0.00  0.00    +0.000 A 
ATOM      6  C   UNL     1       3.944   2.872  17.336  0.00  0.00    +0.000 A 
ATOM      7  C   UNL     1       4.439   3.974  16.661  0.00  0.00    +0.000 A 
ATOM      8  C   UNL     1       4.193   5.268  17.122  0.00  0.00    +0.000 A 
ATOM      9  C   UNL     1       3.391   5.511  18.224  0.00  0.00    +0.000 A 
ATOM     10  N   UNL     1       3.076   6.772  18.559  0.00  0.00    +0.000 NA
ATOM     11  C   UNL     1       4.927   6.300  16.306  0.00  0.00    +0.000 C 
ATOM     12  C   UNL     1       5.576   5.456  15.183  0.00  0.00    +0.000 C 
ATOM     13  C   UNL     1       5.259   3.971  15.417  0.00  0.00    +0.000 C 
ENDROOT
BRANCH   1  15
ATOM     14  C   UNL     1       1.133   8.263  21.165  0.00  0.00    +0.000 C 
ATOM     15  O   UNL     1       1.880   8.239  19.950  0.00  0.00    +0.000 OA
ENDBRANCH   1  15
BRANCH  11  16
ATOM     16  C   UNL     1       5.970   7.051  17.152  0.00  0.00    +0.000 C 
BRANCH  16  17
ATOM     17  N   UNL     1       6.561   6.212  18.183  0.00  0.00    +0.000 N 
ATOM     18  C   UNL     1       7.766   6.516  18.774  0.00  0.00    +0.000 C 
ATOM     19  C   UNL     1       8.244   5.492  19.769  0.00  0.00    +0.000 C 
ATOM     20  O   UNL     1       8.409   7.533  18.538  0.00  0.00    +0.000 OA
ATOM     21  H   UNL     1       6.164   5.291  18.319  0.00  0.00    +0.000 HD
ENDBRANCH  16  17
ENDBRANCH  11  16
TORSDOF 3
ENDMDL
