MODEL 1
REMARK VINA RESULT:      -8.8      0.000      0.000
REMARK  Name = 
REMARK  8 active torsions:
REMARK  status: ('A' for Active; 'I' for Inactive)
REMARK    1  A    between atoms: C_1  and  C_2
REMARK    2  A    between atoms: C_2  and  C_3
REMARK    3  A    between atoms: C_6  and  C_7
REMARK    4  A    between atoms: C_9  and  S_10
REMARK    5  A    between atoms: S_10  and  C_11
REMARK    6  A    between atoms: C_11  and  C_12
REMARK    7  A    between atoms: C_12  and  C_13
REMARK    8  A    between atoms: C_17  and  C_18
REMARK                            x       y       z     vdW  Elec       q    Type
REMARK                         _______ _______ _______ _____ _____    ______ ____
ROOT
ATOM      1  C   UNL     1       1.739   2.536  21.911  0.00  0.00    +0.000 C 
ATOM      2  C   UNL     1       2.062   3.372  20.663  0.00  0.00    +0.000 C 
ATOM      3  C   UNL     1       1.226   2.835  19.492  0.00  0.00    +0.000 C 
ATOM      4  C   UNL     1       1.801   4.862  20.964  0.00  0.00    +0.000 C 
ATOM      5  C   UNL     1       2.432   5.801  19.950  0.00  0.00    +0.000 A 
ATOM      6  C   UNL     1       1.981   7.131  19.794  0.00  0.00    +0.000 A 
ATOM      7  C   UNL     1       2.581   7.914  18.814  0.00  0.00    +0.000 A 
ATOM      8  N   UNL     1       3.575   7.435  18.030  0.00  0.00    +0.000 NA
ATOM      9  C   UNL     1       4.034   6.174  18.171  0.00  0.00    +0.000 A 
ATOM     10  N   UNL     1       4.902   5.699  17.186  0.00  0.00    +0.000 N 
ATOM     11  C   UNL     1       4.886   6.505  15.938  0.00  0.00    +0.000 C 
ATOM     12  C   UNL     1       5.577   5.695  14.831  0.00  0.00    +0.000 C 
ATOM     13  O   UNL     1       6.926   5.350  15.191  0.00  0.00    +0.000 OA
ATOM     14  C   UNL     1       6.950   4.623  16.434  0.00  0.00    +0.000 C 
ATOM     15  C   UNL     1       6.304   5.438  17.573  0.00  0.00    +0.000 C 
ATOM     16  C   UNL     1       3.504   5.328  19.158  0.00  0.00    +0.000 A 
ATOM     17  C   UNL     1       3.961   3.894  19.288  0.00  0.00    +0.000 C 
ATOM     18  O   UNL     1       3.459   3.195  20.429  0.00  0.00    +0.000 OA
ENDROOT
BRANCH   6  19
ATOM     19  C   UNL     1       0.914   7.641  20.611  0.00  0.00    +0.000 C 
ATOM     20  N   UNL     1       0.024   8.070  21.218  0.00  0.00    +0.000 NA
ENDBRANCH   6  19
BRANCH   7  21
ATOM     21  S   UNL     1       2.073   9.601  18.435  0.00  0.00    +0.000 S 
BRANCH  21  22
ATOM     22  C   UNL     1       0.364   9.306  17.825  0.00  0.00    +0.000 C 
BRANCH  22  23
ATOM     23  C   UNL     1      -0.657  10.274  18.429  0.00  0.00    +0.000 C 
BRANCH  23  24
ATOM     24  C   UNL     1      -1.904  10.359  17.566  0.00  0.00    +0.000 A 
ATOM     25  C   UNL     1      -1.896   9.906  16.241  0.00  0.00    +0.000 A 
ATOM     26  C   UNL     1      -3.039  10.023  15.447  0.00  0.00    +0.000 A 
ATOM     27  C   UNL     1      -4.205  10.591  15.966  0.00  0.00    +0.000 A 
ATOM     28  C   UNL     1      -4.239  11.051  17.289  0.00  0.00    +0.000 A 
ATOM     29  C   UNL     1      -3.078  10.935  18.074  0.00  0.00    +0.000 A 
BRANCH  28  30
ATOM     30  C   UNL     1      -5.434  11.661  17.862  0.00  0.00    +0.000 A 
ATOM     31  N   UNL     1      -6.092  12.717  17.419  0.00  0.00    +0.000 NA
ATOM     32  N   UNL     1      -7.137  12.921  18.287  0.00  0.00    +0.000 NA
ATOM     33  N   UNL     1      -7.123  12.028  19.265  0.00  0.00    +0.000 NA
ATOM     34  N   UNL     1      -6.062  11.252  19.008  0.00  0.00    +0.000 N 
ATOM     35  H   UNL     1      -5.822  10.508  19.649  0.00  0.00    +0.000 HD
ENDBRANCH  28  30
ENDBRANCH  23  24
ENDBRANCH  22  23
ENDBRANCH  21  22
ENDBRANCH   7  21
TORSDOF 6
ENDMDL
MODEL 2
REMARK VINA RESULT:      -8.8      2.092      2.649
REMARK  Name = 
REMARK  8 active torsions:
REMARK  status: ('A' for Active; 'I' for Inactive)
REMARK    1  A    between atoms: C_1  and  C_2
REMARK    2  A    between atoms: C_2  and  C_3
REMARK    3  A    between atoms: C_6  and  C_7
REMARK    4  A    between atoms: C_9  and  S_10
REMARK    5  A    between atoms: S_10  and  C_11
REMARK    6  A    between atoms: C_11  and  C_12
REMARK    7  A    between atoms: C_12  and  C_13
REMARK    8  A    between atoms: C_17  and  C_18
REMARK                            x       y       z     vdW  Elec       q    Type
REMARK                         _______ _______ _______ _____ _____    ______ ____
ROOT
ATOM      1  C   UNL     1       1.469   2.591  21.723  0.00  0.00    +0.000 C 
ATOM      2  C   UNL     1       1.855   3.439  20.502  0.00  0.00    +0.000 C 
ATOM      3  C   UNL     1       1.014   2.972  19.304  0.00  0.00    +0.000 C 
ATOM      4  C   UNL     1       1.662   4.933  20.835  0.00  0.00    +0.000 C 
ATOM      5  C   UNL     1       2.356   5.864  19.855  0.00  0.00    +0.000 A 
ATOM      6  C   UNL     1       1.973   7.217  19.724  0.00  0.00    +0.000 A 
ATOM      7  C   UNL     1       2.628   7.992  18.774  0.00  0.00    +0.000 A 
ATOM      8  N   UNL     1       3.612   7.484  17.994  0.00  0.00    +0.000 NA
ATOM      9  C   UNL     1       4.006   6.199  18.113  0.00  0.00    +0.000 A 
ATOM     10  N   UNL     1       4.867   5.705  17.131  0.00  0.00    +0.000 N 
ATOM     11  C   UNL     1       4.913   6.540  15.903  0.00  0.00    +0.000 C 
ATOM     12  C   UNL     1       5.583   5.723  14.788  0.00  0.00    +0.000 C 
ATOM     13  O   UNL     1       6.907   5.303  15.161  0.00  0.00    +0.000 OA
ATOM     14  C   UNL     1       6.873   4.547  16.387  0.00  0.00    +0.000 C 
ATOM     15  C   UNL     1       6.248   5.366  17.534  0.00  0.00    +0.000 C 
ATOM     16  C   UNL     1       3.418   5.357  19.069  0.00  0.00    +0.000 A 
ATOM     17  C   UNL     1       3.801   3.899  19.172  0.00  0.00    +0.000 C 
ATOM     18  O   UNL     1       3.245   3.199  20.287  0.00  0.00    +0.000 OA
ENDROOT
BRANCH   6  19
ATOM     19  C   UNL     1       0.919   7.760  20.536  0.00  0.00    +0.000 C 
ATOM     20  N   UNL     1       0.029   8.155  21.165  0.00  0.00    +0.000 NA
ENDBRANCH   6  19
BRANCH   7  21
ATOM     21  S   UNL     1       2.211   9.711  18.428  0.00  0.00    +0.000 S 
BRANCH  21  22
ATOM     22  C   UNL     1       0.431   9.543  18.004  0.00  0.00    +0.000 C 
BRANCH  22  23
ATOM     23  C   UNL     1      -0.363  10.829  18.250  0.00  0.00    +0.000 C 
BRANCH  23  24
ATOM     24  C   UNL     1      -1.769  10.718  17.688  0.00  0.00    +0.000 A 
ATOM     25  C   UNL     1      -2.891  10.857  18.516  0.00  0.00    +0.000 A 
ATOM     26  C   UNL     1      -4.177  10.717  17.993  0.00  0.00    +0.000 A 
ATOM     27  C   UNL     1      -4.363  10.440  16.637  0.00  0.00    +0.000 A 
ATOM     28  C   UNL     1      -3.258  10.297  15.787  0.00  0.00    +0.000 A 
ATOM     29  C   UNL     1      -1.968  10.431  16.329  0.00  0.00    +0.000 A 
BRANCH  28  30
ATOM     30  C   UNL     1      -3.411   9.994  14.368  0.00  0.00    +0.000 A 
ATOM     31  N   UNL     1      -2.460   9.709  13.497  0.00  0.00    +0.000 NA
ATOM     32  N   UNL     1      -3.081   9.510  12.288  0.00  0.00    +0.000 NA
ATOM     33  N   UNL     1      -4.389   9.687  12.392  0.00  0.00    +0.000 NA
ATOM     34  N   UNL     1      -4.594   9.997  13.679  0.00  0.00    +0.000 N 
ATOM     35  H   UNL     1      -5.529  10.215  13.996  0.00  0.00    +0.000 HD
ENDBRANCH  28  30
ENDBRANCH  23  24
ENDBRANCH  22  23
ENDBRANCH  21  22
ENDBRANCH   7  21
TORSDOF 6
ENDMDL
MODEL 3
REMARK VINA RESULT:      -8.2      4.048     10.606
REMARK  Name = 
REMARK  8 active torsions:
REMARK  status: ('A' for Active; 'I' for Inactive)
REMARK    1  A    between atoms: C_1  and  C_2
REMARK    2  A    between atoms: C_2  and  C_3
REMARK    3  A    between atoms: C_6  and  C_7
REMARK    4  A    between atoms: C_9  and  S_10
REMARK    5  A    between atoms: S_10  and  C_11
REMARK    6  A    between atoms: C_11  and  C_12
REMARK    7  A    between atoms: C_12  and  C_13
REMARK    8  A    between atoms: C_17  and  C_18
REMARK                            x       y       z     vdW  Elec       q    Type
REMARK                         _______ _______ _______ _____ _____    ______ ____
ROOT
ATOM      1  C   UNL     1      -7.896  13.242  17.835  0.00  0.00    +0.000 C 
ATOM      2  C   UNL     1      -6.675  12.629  18.538  0.00  0.00    +0.000 C 
ATOM      3  C   UNL     1      -7.163  11.490  19.446  0.00  0.00    +0.000 C 
ATOM      4  C   UNL     1      -5.653  12.167  17.479  0.00  0.00    +0.000 C 
ATOM      5  C   UNL     1      -4.273  11.895  18.052  0.00  0.00    +0.000 A 
ATOM      6  C   UNL     1      -3.336  11.086  17.372  0.00  0.00    +0.000 A 
ATOM      7  C   UNL     1      -2.110  10.850  17.983  0.00  0.00    +0.000 A 
ATOM      8  N   UNL     1      -1.802  11.379  19.190  0.00  0.00    +0.000 NA
ATOM      9  C   UNL     1      -2.674  12.169  19.852  0.00  0.00    +0.000 A 
ATOM     10  N   UNL     1      -2.363  12.490  21.174  0.00  0.00    +0.000 N 
ATOM     11  C   UNL     1      -1.327  11.610  21.774  0.00  0.00    +0.000 C 
ATOM     12  C   UNL     1      -1.340  11.817  23.297  0.00  0.00    +0.000 C 
ATOM     13  O   UNL     1      -1.099  13.190  23.647  0.00  0.00    +0.000 OA
ATOM     14  C   UNL     1      -2.063  14.053  23.014  0.00  0.00    +0.000 C 
ATOM     15  C   UNL     1      -2.034  13.899  21.480  0.00  0.00    +0.000 C 
ATOM     16  C   UNL     1      -3.921  12.482  19.291  0.00  0.00    +0.000 A 
ATOM     17  C   UNL     1      -4.935  13.311  20.045  0.00  0.00    +0.000 C 
ATOM     18  O   UNL     1      -6.093  13.687  19.298  0.00  0.00    +0.000 OA
ENDROOT
BRANCH   6  19
ATOM     19  C   UNL     1      -3.662  10.506  16.097  0.00  0.00    +0.000 C 
ATOM     20  N   UNL     1      -3.889  10.084  15.041  0.00  0.00    +0.000 NA
ENDBRANCH   6  19
BRANCH   7  21
ATOM     21  S   UNL     1      -0.837   9.782  17.286  0.00  0.00    +0.000 S 
BRANCH  21  22
ATOM     22  C   UNL     1       0.420   9.842  18.625  0.00  0.00    +0.000 C 
BRANCH  22  23
ATOM     23  C   UNL     1       1.852   9.701  18.102  0.00  0.00    +0.000 C 
BRANCH  23  24
ATOM     24  C   UNL     1       2.395   8.308  18.369  0.00  0.00    +0.000 A 
ATOM     25  C   UNL     1       2.038   7.603  19.526  0.00  0.00    +0.000 A 
ATOM     26  C   UNL     1       2.572   6.338  19.777  0.00  0.00    +0.000 A 
ATOM     27  C   UNL     1       3.467   5.758  18.876  0.00  0.00    +0.000 A 
ATOM     28  C   UNL     1       3.841   6.441  17.711  0.00  0.00    +0.000 A 
ATOM     29  C   UNL     1       3.303   7.718  17.476  0.00  0.00    +0.000 A 
BRANCH  28  30
ATOM     30  C   UNL     1       4.783   5.873  16.753  0.00  0.00    +0.000 A 
ATOM     31  N   UNL     1       5.352   4.681  16.790  0.00  0.00    +0.000 NA
ATOM     32  N   UNL     1       6.166   4.600  15.687  0.00  0.00    +0.000 NA
ATOM     33  N   UNL     1       6.127   5.722  14.985  0.00  0.00    +0.000 NA
ATOM     34  N   UNL     1       5.278   6.516  15.650  0.00  0.00    +0.000 N 
ATOM     35  H   UNL     1       5.111   7.457  15.319  0.00  0.00    +0.000 HD
ENDBRANCH  28  30
ENDBRANCH  23  24
ENDBRANCH  22  23
ENDBRANCH  21  22
ENDBRANCH   7  21
TORSDOF 6
ENDMDL
MODEL 4
REMARK VINA RESULT:      -8.1      6.038      8.443
REMARK  Name = 
REMARK  8 active torsions:
REMARK  status: ('A' for Active; 'I' for Inactive)
REMARK    1  A    between atoms: C_1  and  C_2
REMARK    2  A    between atoms: C_2  and  C_3
REMARK    3  A    between atoms: C_6  and  C_7
REMARK    4  A    between atoms: C_9  and  S_10
REMARK    5  A    between atoms: S_10  and  C_11
REMARK    6  A    between atoms: C_11  and  C_12
REMARK    7  A    between atoms: C_12  and  C_13
REMARK    8  A    between atoms: C_17  and  C_18
REMARK                            x       y       z     vdW  Elec       q    Type
REMARK                         _______ _______ _______ _____ _____    ______ ____
ROOT
ATOM      1  C   UNL     1       0.470   9.239  22.570  0.00  0.00    +0.000 C 
ATOM      2  C   UNL     1      -0.121  10.501  21.922  0.00  0.00    +0.000 C 
ATOM      3  C   UNL     1      -0.718  10.110  20.561  0.00  0.00    +0.000 C 
ATOM      4  C   UNL     1      -1.153  11.133  22.879  0.00  0.00    +0.000 C 
ATOM      5  C   UNL     1      -1.518  12.561  22.514  0.00  0.00    +0.000 A 
ATOM      6  C   UNL     1      -2.710  13.161  22.977  0.00  0.00    +0.000 A 
ATOM      7  C   UNL     1      -2.993  14.458  22.564  0.00  0.00    +0.000 A 
ATOM      8  N   UNL     1      -2.158  15.143  21.749  0.00  0.00    +0.000 NA
ATOM      9  C   UNL     1      -1.005  14.599  21.307  0.00  0.00    +0.000 A 
ATOM     10  N   UNL     1      -0.318  15.288  20.306  0.00  0.00    +0.000 N 
ATOM     11  C   UNL     1      -1.144  16.308  19.610  0.00  0.00    +0.000 C 
ATOM     12  C   UNL     1      -0.415  16.724  18.323  0.00  0.00    +0.000 C 
ATOM     13  O   UNL     1       0.897  17.243  18.603  0.00  0.00    +0.000 OA
ATOM     14  C   UNL     1       1.679  16.280  19.334  0.00  0.00    +0.000 C 
ATOM     15  C   UNL     1       0.989  15.884  20.655  0.00  0.00    +0.000 C 
ATOM     16  C   UNL     1      -0.629  13.305  21.702  0.00  0.00    +0.000 A 
ATOM     17  C   UNL     1       0.625  12.655  21.167  0.00  0.00    +0.000 C 
ATOM     18  O   UNL     1       0.970  11.407  21.771  0.00  0.00    +0.000 OA
ENDROOT
BRANCH   6  19
ATOM     19  C   UNL     1      -3.610  12.433  23.829  0.00  0.00    +0.000 C 
ATOM     20  N   UNL     1      -4.316  11.881  24.565  0.00  0.00    +0.000 NA
ENDBRANCH   6  19
BRANCH   7  21
ATOM     21  S   UNL     1      -4.504  15.337  23.001  0.00  0.00    +0.000 S 
BRANCH  21  22
ATOM     22  C   UNL     1      -5.604  14.815  21.625  0.00  0.00    +0.000 C 
BRANCH  22  23
ATOM     23  C   UNL     1      -6.406  13.551  21.952  0.00  0.00    +0.000 C 
BRANCH  23  24
ATOM     24  C   UNL     1      -6.298  12.533  20.830  0.00  0.00    +0.000 A 
ATOM     25  C   UNL     1      -7.320  11.603  20.599  0.00  0.00    +0.000 A 
ATOM     26  C   UNL     1      -7.193  10.649  19.588  0.00  0.00    +0.000 A 
ATOM     27  C   UNL     1      -6.046  10.611  18.792  0.00  0.00    +0.000 A 
ATOM     28  C   UNL     1      -5.009  11.530  19.003  0.00  0.00    +0.000 A 
ATOM     29  C   UNL     1      -5.146  12.479  20.030  0.00  0.00    +0.000 A 
BRANCH  28  30
ATOM     30  C   UNL     1      -3.790  11.514  18.201  0.00  0.00    +0.000 A 
ATOM     31  N   UNL     1      -2.632  12.083  18.482  0.00  0.00    +0.000 NA
ATOM     32  N   UNL     1      -1.792  11.806  17.432  0.00  0.00    +0.000 NA
ATOM     33  N   UNL     1      -2.414  11.098  16.502  0.00  0.00    +0.000 NA
ATOM     34  N   UNL     1      -3.655  10.924  16.973  0.00  0.00    +0.000 N 
ATOM     35  H   UNL     1      -4.338  10.434  16.411  0.00  0.00    +0.000 HD
ENDBRANCH  28  30
ENDBRANCH  23  24
ENDBRANCH  22  23
ENDBRANCH  21  22
ENDBRANCH   7  21
TORSDOF 6
ENDMDL
MODEL 5
REMARK VINA RESULT:      -7.9      6.445      9.164
REMARK  Name = 
REMARK  8 active torsions:
REMARK  status: ('A' for Active; 'I' for Inactive)
REMARK    1  A    between atoms: C_1  and  C_2
REMARK    2  A    between atoms: C_2  and  C_3
REMARK    3  A    between atoms: C_6  and  C_7
REMARK    4  A    between atoms: C_9  and  S_10
REMARK    5  A    between atoms: S_10  and  C_11
REMARK    6  A    between atoms: C_11  and  C_12
REMARK    7  A    between atoms: C_12  and  C_13
REMARK    8  A    between atoms: C_17  and  C_18
REMARK                            x       y       z     vdW  Elec       q    Type
REMARK                         _______ _______ _______ _____ _____    ______ ____
ROOT
ATOM      1  C   UNL     1       0.060   9.895  22.658  0.00  0.00    +0.000 C 
ATOM      2  C   UNL     1      -0.617  11.141  22.068  0.00  0.00    +0.000 C 
ATOM      3  C   UNL     1      -1.143  10.788  20.668  0.00  0.00    +0.000 C 
ATOM      4  C   UNL     1      -1.723  11.626  23.028  0.00  0.00    +0.000 C 
ATOM      5  C   UNL     1      -2.196  13.040  22.738  0.00  0.00    +0.000 A 
ATOM      6  C   UNL     1      -3.446  13.510  23.199  0.00  0.00    +0.000 A 
ATOM      7  C   UNL     1      -3.826  14.802  22.854  0.00  0.00    +0.000 A 
ATOM      8  N   UNL     1      -3.029  15.603  22.108  0.00  0.00    +0.000 NA
ATOM      9  C   UNL     1      -1.824  15.183  21.670  0.00  0.00    +0.000 A 
ATOM     10  N   UNL     1      -1.171  15.987  20.734  0.00  0.00    +0.000 N 
ATOM     11  C   UNL     1      -2.062  16.976  20.074  0.00  0.00    +0.000 C 
ATOM     12  C   UNL     1      -1.336  17.530  18.838  0.00  0.00    +0.000 C 
ATOM     13  O   UNL     1      -0.080  18.136  19.188  0.00  0.00    +0.000 OA
ATOM     14  C   UNL     1       0.760  17.197  19.885  0.00  0.00    +0.000 C 
ATOM     15  C   UNL     1       0.072  16.665  21.158  0.00  0.00    +0.000 C 
ATOM     16  C   UNL     1      -1.352  13.903  22.000  0.00  0.00    +0.000 A 
ATOM     17  C   UNL     1      -0.034  13.392  21.466  0.00  0.00    +0.000 C 
ATOM     18  O   UNL     1       0.398  12.141  22.005  0.00  0.00    +0.000 OA
ENDROOT
BRANCH   6  19
ATOM     19  C   UNL     1      -4.304  12.659  23.978  0.00  0.00    +0.000 C 
ATOM     20  N   UNL     1      -5.045  11.997  24.574  0.00  0.00    +0.000 NA
ENDBRANCH   6  19
BRANCH   7  21
ATOM     21  S   UNL     1      -5.415  15.526  23.296  0.00  0.00    +0.000 S 
BRANCH  21  22
ATOM     22  C   UNL     1      -6.525  14.623  22.142  0.00  0.00    +0.000 C 
BRANCH  22  23
ATOM     23  C   UNL     1      -5.999  14.605  20.704  0.00  0.00    +0.000 C 
BRANCH  23  24
ATOM     24  C   UNL     1      -6.131  13.221  20.093  0.00  0.00    +0.000 A 
ATOM     25  C   UNL     1      -7.177  12.366  20.462  0.00  0.00    +0.000 A 
ATOM     26  C   UNL     1      -7.266  11.083  19.919  0.00  0.00    +0.000 A 
ATOM     27  C   UNL     1      -6.314  10.637  18.999  0.00  0.00    +0.000 A 
ATOM     28  C   UNL     1      -5.258  11.473  18.613  0.00  0.00    +0.000 A 
ATOM     29  C   UNL     1      -5.176  12.759  19.174  0.00  0.00    +0.000 A 
BRANCH  28  30
ATOM     30  C   UNL     1      -4.238  11.038  17.664  0.00  0.00    +0.000 A 
ATOM     31  N   UNL     1      -3.494   9.949  17.723  0.00  0.00    +0.000 NA
ATOM     32  N   UNL     1      -2.675   9.973  16.621  0.00  0.00    +0.000 NA
ATOM     33  N   UNL     1      -2.885  11.062  15.898  0.00  0.00    +0.000 NA
ATOM     34  N   UNL     1      -3.847  11.728  16.549  0.00  0.00    +0.000 N 
ATOM     35  H   UNL     1      -4.156  12.626  16.199  0.00  0.00    +0.000 HD
ENDBRANCH  28  30
ENDBRANCH  23  24
ENDBRANCH  22  23
ENDBRANCH  21  22
ENDBRANCH   7  21
TORSDOF 6
ENDMDL
MODEL 6
REMARK VINA RESULT:      -7.9      4.943     10.966
REMARK  Name = 
REMARK  8 active torsions:
REMARK  status: ('A' for Active; 'I' for Inactive)
REMARK    1  A    between atoms: C_1  and  C_2
REMARK    2  A    between atoms: C_2  and  C_3
REMARK    3  A    between atoms: C_6  and  C_7
REMARK    4  A    between atoms: C_9  and  S_10
REMARK    5  A    between atoms: S_10  and  C_11
REMARK    6  A    between atoms: C_11  and  C_12
REMARK    7  A    between atoms: C_12  and  C_13
REMARK    8  A    between atoms: C_17  and  C_18
REMARK                            x       y       z     vdW  Elec       q    Type
REMARK                         _______ _______ _______ _____ _____    ______ ____
ROOT
ATOM      1  C   UNL     1      -6.935  12.250  17.457  0.00  0.00    +0.000 C 
ATOM      2  C   UNL     1      -6.033  12.244  18.700  0.00  0.00    +0.000 C 
ATOM      3  C   UNL     1      -6.596  11.224  19.701  0.00  0.00    +0.000 C 
ATOM      4  C   UNL     1      -4.581  11.942  18.277  0.00  0.00    +0.000 C 
ATOM      5  C   UNL     1      -3.558  12.276  19.349  0.00  0.00    +0.000 A 
ATOM      6  C   UNL     1      -2.266  11.705  19.341  0.00  0.00    +0.000 A 
ATOM      7  C   UNL     1      -1.402  12.028  20.382  0.00  0.00    +0.000 A 
ATOM      8  N   UNL     1      -1.769  12.870  21.376  0.00  0.00    +0.000 NA
ATOM      9  C   UNL     1      -2.991  13.441  21.396  0.00  0.00    +0.000 A 
ATOM     10  N   UNL     1      -3.358  14.117  22.561  0.00  0.00    +0.000 N 
ATOM     11  C   UNL     1      -2.514  13.782  23.736  0.00  0.00    +0.000 C 
ATOM     12  C   UNL     1      -3.225  14.287  25.002  0.00  0.00    +0.000 C 
ATOM     13  O   UNL     1      -3.469  15.702  24.943  0.00  0.00    +0.000 OA
ATOM     14  C   UNL     1      -4.233  16.038  23.770  0.00  0.00    +0.000 C 
ATOM     15  C   UNL     1      -3.515  15.585  22.483  0.00  0.00    +0.000 C 
ATOM     16  C   UNL     1      -3.912  13.192  20.367  0.00  0.00    +0.000 A 
ATOM     17  C   UNL     1      -5.307  13.771  20.406  0.00  0.00    +0.000 C 
ATOM     18  O   UNL     1      -6.084  13.570  19.224  0.00  0.00    +0.000 OA
ENDROOT
BRANCH   6  19
ATOM     19  C   UNL     1      -1.875  10.797  18.298  0.00  0.00    +0.000 C 
ATOM     20  N   UNL     1      -1.509  10.050  17.490  0.00  0.00    +0.000 NA
ENDBRANCH   6  19
BRANCH   7  21
ATOM     21  S   UNL     1       0.249  11.329  20.561  0.00  0.00    +0.000 S 
BRANCH  21  22
ATOM     22  C   UNL     1      -0.169   9.605  21.042  0.00  0.00    +0.000 C 
BRANCH  22  23
ATOM     23  C   UNL     1       1.062   8.782  21.431  0.00  0.00    +0.000 C 
BRANCH  23  24
ATOM     24  C   UNL     1       1.697   8.140  20.211  0.00  0.00    +0.000 A 
ATOM     25  C   UNL     1       1.700   8.792  18.971  0.00  0.00    +0.000 A 
ATOM     26  C   UNL     1       2.255   8.176  17.849  0.00  0.00    +0.000 A 
ATOM     27  C   UNL     1       2.818   6.902  17.948  0.00  0.00    +0.000 A 
ATOM     28  C   UNL     1       2.830   6.228  19.176  0.00  0.00    +0.000 A 
ATOM     29  C   UNL     1       2.258   6.856  20.296  0.00  0.00    +0.000 A 
BRANCH  28  30
ATOM     30  C   UNL     1       3.397   4.891  19.317  0.00  0.00    +0.000 A 
ATOM     31  N   UNL     1       2.747   3.750  19.465  0.00  0.00    +0.000 NA
ATOM     32  N   UNL     1       3.700   2.766  19.566  0.00  0.00    +0.000 NA
ATOM     33  N   UNL     1       4.919   3.278  19.506  0.00  0.00    +0.000 NA
ATOM     34  N   UNL     1       4.733   4.597  19.361  0.00  0.00    +0.000 N 
ATOM     35  H   UNL     1       5.534   5.212  19.327  0.00  0.00    +0.000 HD
ENDBRANCH  28  30
ENDBRANCH  23  24
ENDBRANCH  22  23
ENDBRANCH  21  22
ENDBRANCH   7  21
TORSDOF 6
ENDMDL
MODEL 7
REMARK VINA RESULT:      -7.9      3.429      4.482
REMARK  Name = 
REMARK  8 active torsions:
REMARK  status: ('A' for Active; 'I' for Inactive)
REMARK    1  A    between atoms: C_1  and  C_2
REMARK    2  A    between atoms: C_2  and  C_3
REMARK    3  A    between atoms: C_6  and  C_7
REMARK    4  A    between atoms: C_9  and  S_10
REMARK    5  A    between atoms: S_10  and  C_11
REMARK    6  A    between atoms: C_11  and  C_12
REMARK    7  A    between atoms: C_12  and  C_13
REMARK    8  A    between atoms: C_17  and  C_18
REMARK                            x       y       z     vdW  Elec       q    Type
REMARK                         _______ _______ _______ _____ _____    ______ ____
ROOT
ATOM      1  C   UNL     1       1.800   2.374  21.738  0.00  0.00    +0.000 C 
ATOM      2  C   UNL     1       2.136   3.243  20.517  0.00  0.00    +0.000 C 
ATOM      3  C   UNL     1       1.267   2.779  19.339  0.00  0.00    +0.000 C 
ATOM      4  C   UNL     1       1.931   4.729  20.875  0.00  0.00    +0.000 C 
ATOM      5  C   UNL     1       2.581   5.683  19.888  0.00  0.00    +0.000 A 
ATOM      6  C   UNL     1       2.174   7.032  19.786  0.00  0.00    +0.000 A 
ATOM      7  C   UNL     1       2.788   7.830  18.827  0.00  0.00    +0.000 A 
ATOM      8  N   UNL     1       3.755   7.347  18.012  0.00  0.00    +0.000 NA
ATOM      9  C   UNL     1       4.172   6.067  18.102  0.00  0.00    +0.000 A 
ATOM     10  N   UNL     1       5.010   5.599  17.088  0.00  0.00    +0.000 N 
ATOM     11  C   UNL     1       5.007   6.451  15.871  0.00  0.00    +0.000 C 
ATOM     12  C   UNL     1       5.656   5.659  14.725  0.00  0.00    +0.000 C 
ATOM     13  O   UNL     1       6.996   5.255  15.053  0.00  0.00    +0.000 OA
ATOM     14  C   UNL     1       7.010   4.483  16.269  0.00  0.00    +0.000 C 
ATOM     15  C   UNL     1       6.408   5.277  17.446  0.00  0.00    +0.000 C 
ATOM     16  C   UNL     1       3.626   5.203  19.064  0.00  0.00    +0.000 A 
ATOM     17  C   UNL     1       4.035   3.750  19.136  0.00  0.00    +0.000 C 
ATOM     18  O   UNL     1       3.523   3.028  20.257  0.00  0.00    +0.000 OA
ENDROOT
BRANCH   6  19
ATOM     19  C   UNL     1       1.136   7.548  20.636  0.00  0.00    +0.000 C 
ATOM     20  N   UNL     1       0.343   7.988  21.359  0.00  0.00    +0.000 NA
ENDBRANCH   6  19
BRANCH   7  21
ATOM     21  S   UNL     1       2.334   9.546  18.518  0.00  0.00    +0.000 S 
BRANCH  21  22
ATOM     22  C   UNL     1       0.749   9.315  17.617  0.00  0.00    +0.000 C 
BRANCH  22  23
ATOM     23  C   UNL     1      -0.411  10.093  18.245  0.00  0.00    +0.000 C 
BRANCH  23  24
ATOM     24  C   UNL     1       0.103  11.217  19.128  0.00  0.00    +0.000 A 
ATOM     25  C   UNL     1      -0.238  11.282  20.485  0.00  0.00    +0.000 A 
ATOM     26  C   UNL     1       0.211  12.340  21.277  0.00  0.00    +0.000 A 
ATOM     27  C   UNL     1       1.008  13.346  20.727  0.00  0.00    +0.000 A 
ATOM     28  C   UNL     1       1.365  13.304  19.373  0.00  0.00    +0.000 A 
ATOM     29  C   UNL     1       0.897  12.238  18.584  0.00  0.00    +0.000 A 
BRANCH  28  30
ATOM     30  C   UNL     1       2.186  14.343  18.759  0.00  0.00    +0.000 A 
ATOM     31  N   UNL     1       2.310  15.602  19.139  0.00  0.00    +0.000 NA
ATOM     32  N   UNL     1       3.179  16.194  18.255  0.00  0.00    +0.000 NA
ATOM     33  N   UNL     1       3.573  15.334  17.328  0.00  0.00    +0.000 NA
ATOM     34  N   UNL     1       2.951  14.188  17.635  0.00  0.00    +0.000 N 
ATOM     35  H   UNL     1       3.071  13.381  17.038  0.00  0.00    +0.000 HD
ENDBRANCH  28  30
ENDBRANCH  23  24
ENDBRANCH  22  23
ENDBRANCH  21  22
ENDBRANCH   7  21
TORSDOF 6
ENDMDL
MODEL 8
REMARK VINA RESULT:      -7.9      4.932     10.283
REMARK  Name = 
REMARK  8 active torsions:
REMARK  status: ('A' for Active; 'I' for Inactive)
REMARK    1  A    between atoms: C_1  and  C_2
REMARK    2  A    between atoms: C_2  and  C_3
REMARK    3  A    between atoms: C_6  and  C_7
REMARK    4  A    between atoms: C_9  and  S_10
REMARK    5  A    between atoms: S_10  and  C_11
REMARK    6  A    between atoms: C_11  and  C_12
REMARK    7  A    between atoms: C_12  and  C_13
REMARK    8  A    between atoms: C_17  and  C_18
REMARK                            x       y       z     vdW  Elec       q    Type
REMARK                         _______ _______ _______ _____ _____    ______ ____
ROOT
ATOM      1  C   UNL     1      -4.522  13.194  21.526  0.00  0.00    +0.000 C 
ATOM      2  C   UNL     1      -2.990  13.084  21.527  0.00  0.00    +0.000 C 
ATOM      3  C   UNL     1      -2.564  12.290  22.771  0.00  0.00    +0.000 C 
ATOM      4  C   UNL     1      -2.522  12.440  20.206  0.00  0.00    +0.000 C 
ATOM      5  C   UNL     1      -1.038  12.622  19.939  0.00  0.00    +0.000 A 
ATOM      6  C   UNL     1      -0.340  11.784  19.042  0.00  0.00    +0.000 A 
ATOM      7  C   UNL     1       1.026  11.987  18.885  0.00  0.00    +0.000 A 
ATOM      8  N   UNL     1       1.683  12.961  19.558  0.00  0.00    +0.000 NA
ATOM      9  C   UNL     1       1.035  13.785  20.408  0.00  0.00    +0.000 A 
ATOM     10  N   UNL     1       1.820  14.611  21.215  0.00  0.00    +0.000 N 
ATOM     11  C   UNL     1       3.242  14.188  21.296  0.00  0.00    +0.000 C 
ATOM     12  C   UNL     1       3.900  14.929  22.471  0.00  0.00    +0.000 C 
ATOM     13  O   UNL     1       3.806  16.355  22.317  0.00  0.00    +0.000 OA
ATOM     14  C   UNL     1       2.432  16.761  22.173  0.00  0.00    +0.000 C 
ATOM     15  C   UNL     1       1.764  16.067  20.969  0.00  0.00    +0.000 C 
ATOM     16  C   UNL     1      -0.350  13.667  20.600  0.00  0.00    +0.000 A 
ATOM     17  C   UNL     1      -1.081  14.539  21.594  0.00  0.00    +0.000 C 
ATOM     18  O   UNL     1      -2.505  14.425  21.574  0.00  0.00    +0.000 OA
ENDROOT
BRANCH   6  19
ATOM     19  C   UNL     1      -1.027  10.737  18.336  0.00  0.00    +0.000 C 
ATOM     20  N   UNL     1      -1.532   9.855  17.777  0.00  0.00    +0.000 NA
ENDBRANCH   6  19
BRANCH   7  21
ATOM     21  S   UNL     1       2.075  10.960  17.840  0.00  0.00    +0.000 S 
BRANCH  21  22
ATOM     22  C   UNL     1       2.064   9.391  18.797  0.00  0.00    +0.000 C 
BRANCH  22  23
ATOM     23  C   UNL     1       1.814   8.161  17.919  0.00  0.00    +0.000 C 
BRANCH  23  24
ATOM     24  C   UNL     1       2.732   7.016  18.310  0.00  0.00    +0.000 A 
ATOM     25  C   UNL     1       2.473   6.240  19.447  0.00  0.00    +0.000 A 
ATOM     26  C   UNL     1       3.344   5.214  19.816  0.00  0.00    +0.000 A 
ATOM     27  C   UNL     1       4.484   4.946  19.054  0.00  0.00    +0.000 A 
ATOM     28  C   UNL     1       4.766   5.707  17.912  0.00  0.00    +0.000 A 
ATOM     29  C   UNL     1       3.885   6.744  17.558  0.00  0.00    +0.000 A 
BRANCH  28  30
ATOM     30  C   UNL     1       5.953   5.466  17.098  0.00  0.00    +0.000 A 
ATOM     31  N   UNL     1       6.359   6.148  16.043  0.00  0.00    +0.000 NA
ATOM     32  N   UNL     1       7.514   5.546  15.607  0.00  0.00    +0.000 NA
ATOM     33  N   UNL     1       7.813   4.496  16.356  0.00  0.00    +0.000 NA
ATOM     34  N   UNL     1       6.841   4.440  17.275  0.00  0.00    +0.000 N 
ATOM     35  H   UNL     1       6.836   3.686  17.950  0.00  0.00    +0.000 HD
ENDBRANCH  28  30
ENDBRANCH  23  24
ENDBRANCH  22  23
ENDBRANCH  21  22
ENDBRANCH   7  21
TORSDOF 6
ENDMDL
MODEL 9
REMARK VINA RESULT:      -7.8      2.158      2.986
REMARK  Name = 
REMARK  8 active torsions:
REMARK  status: ('A' for Active; 'I' for Inactive)
REMARK    1  A    between atoms: C_1  and  C_2
REMARK    2  A    between atoms: C_2  and  C_3
REMARK    3  A    between atoms: C_6  and  C_7
REMARK    4  A    between atoms: C_9  and  S_10
REMARK    5  A    between atoms: S_10  and  C_11
REMARK    6  A    between atoms: C_11  and  C_12
REMARK    7  A    between atoms: C_12  and  C_13
REMARK    8  A    between atoms: C_17  and  C_18
REMARK                            x       y       z     vdW  Elec       q    Type
REMARK                         _______ _______ _______ _____ _____    ______ ____
ROOT
ATOM      1  C   UNL     1       1.955   2.633  21.893  0.00  0.00    +0.000 C 
ATOM      2  C   UNL     1       2.243   3.439  20.617  0.00  0.00    +0.000 C 
ATOM      3  C   UNL     1       1.354   2.892  19.489  0.00  0.00    +0.000 C 
ATOM      4  C   UNL     1       2.015   4.938  20.897  0.00  0.00    +0.000 C 
ATOM      5  C   UNL     1       2.619   5.848  19.841  0.00  0.00    +0.000 A 
ATOM      6  C   UNL     1       2.181   7.181  19.675  0.00  0.00    +0.000 A 
ATOM      7  C   UNL     1       2.755   7.935  18.658  0.00  0.00    +0.000 A 
ATOM      8  N   UNL     1       3.712   7.426  17.846  0.00  0.00    +0.000 NA
ATOM      9  C   UNL     1       4.158   6.162  17.996  0.00  0.00    +0.000 A 
ATOM     10  N   UNL     1       4.980   5.654  16.989  0.00  0.00    +0.000 N 
ATOM     11  C   UNL     1       4.928   6.435  15.726  0.00  0.00    +0.000 C 
ATOM     12  C   UNL     1       5.565   5.593  14.610  0.00  0.00    +0.000 C 
ATOM     13  O   UNL     1       6.921   5.235  14.925  0.00  0.00    +0.000 OA
ATOM     14  C   UNL     1       6.983   4.533  16.181  0.00  0.00    +0.000 C 
ATOM     15  C   UNL     1       6.393   5.380  17.327  0.00  0.00    +0.000 C 
ATOM     16  C   UNL     1       3.654   5.343  19.018  0.00  0.00    +0.000 A 
ATOM     17  C   UNL     1       4.095   3.905  19.161  0.00  0.00    +0.000 C 
ATOM     18  O   UNL     1       3.627   3.237  20.334  0.00  0.00    +0.000 OA
ENDROOT
BRANCH   6  19
ATOM     19  C   UNL     1       1.154   7.723  20.522  0.00  0.00    +0.000 C 
ATOM     20  N   UNL     1       0.304   8.101  21.213  0.00  0.00    +0.000 NA
ENDBRANCH   6  19
BRANCH   7  21
ATOM     21  S   UNL     1       2.257   9.622  18.265  0.00  0.00    +0.000 S 
BRANCH  21  22
ATOM     22  C   UNL     1       0.438   9.408  18.121  0.00  0.00    +0.000 C 
BRANCH  22  23
ATOM     23  C   UNL     1      -0.310  10.740  18.008  0.00  0.00    +0.000 C 
BRANCH  23  24
ATOM     24  C   UNL     1      -0.336  11.464  19.343  0.00  0.00    +0.000 A 
ATOM     25  C   UNL     1       0.835  11.998  19.897  0.00  0.00    +0.000 A 
ATOM     26  C   UNL     1       0.803  12.630  21.141  0.00  0.00    +0.000 A 
ATOM     27  C   UNL     1      -0.396  12.741  21.848  0.00  0.00    +0.000 A 
ATOM     28  C   UNL     1      -1.582  12.217  21.315  0.00  0.00    +0.000 A 
ATOM     29  C   UNL     1      -1.534  11.574  20.066  0.00  0.00    +0.000 A 
BRANCH  28  30
ATOM     30  C   UNL     1      -2.852  12.302  22.029  0.00  0.00    +0.000 A 
ATOM     31  N   UNL     1      -3.079  12.041  23.303  0.00  0.00    +0.000 NA
ATOM     32  N   UNL     1      -4.420  12.250  23.514  0.00  0.00    +0.000 NA
ATOM     33  N   UNL     1      -5.025  12.612  22.393  0.00  0.00    +0.000 NA
ATOM     34  N   UNL     1      -4.055  12.635  21.469  0.00  0.00    +0.000 N 
ATOM     35  H   UNL     1      -4.286  12.854  20.509  0.00  0.00    +0.000 HD
ENDBRANCH  28  30
ENDBRANCH  23  24
ENDBRANCH  22  23
ENDBRANCH  21  22
ENDBRANCH   7  21
TORSDOF 6
ENDMDL
