MODEL 1
REMARK VINA RESULT:      -8.1      0.000      0.000
REMARK  Name = 
REMARK  10 active torsions:
REMARK  status: ('A' for Active; 'I' for Inactive)
REMARK    1  A    between atoms: C_1  and  C_2
REMARK    2  A    between atoms: C_2  and  N_3
REMARK    3  A    between atoms: C_7  and  O_8
REMARK    4  A    between atoms: O_8  and  C_9
REMARK    5  A    between atoms: C_9  and  C_10
REMARK    6  A    between atoms: N_12  and  C_13
REMARK    7  A    between atoms: C_13  and  C_14
REMARK    8  A    between atoms: C_14  and  C_15
REMARK    9  A    between atoms: C_15  and  N_16
REMARK   10  A    between atoms: N_19  and  C_20
REMARK                            x       y       z     vdW  Elec       q    Type
REMARK                         _______ _______ _______ _____ _____    ______ ____
ROOT
ATOM      1  C   UNL     1       6.888   6.561  17.444  0.00  0.00    +0.000 C 
ATOM      2  O   UNL     1       6.901   5.950  18.510  0.00  0.00    +0.000 OA
ATOM      3  N   UNL     1       7.594   7.727  17.221  0.00  0.00    +0.000 N 
ATOM      4  H   UNL     1       7.640   8.123  16.293  0.00  0.00    +0.000 HD
ENDROOT
BRANCH   1   5
ATOM      5  C   UNL     1       6.089   6.084  16.244  0.00  0.00    +0.000 C 
BRANCH   5   6
ATOM      6  O   UNL     1       4.699   6.256  16.493  0.00  0.00    +0.000 OA
BRANCH   6  11
ATOM      7  N   UNL     1       2.891   3.562  19.184  0.00  0.00    +0.000 N 
ATOM      8  C   UNL     1       3.512   3.039  18.059  0.00  0.00    +0.000 A 
ATOM      9  O   UNL     1       3.572   1.841  17.788  0.00  0.00    +0.000 OA
ATOM     10  C   UNL     1       4.171   3.986  17.143  0.00  0.00    +0.000 A 
ATOM     11  C   UNL     1       4.090   5.312  17.297  0.00  0.00    +0.000 A 
ATOM     12  C   UNL     1       3.271   5.852  18.398  0.00  0.00    +0.000 A 
ATOM     13  C   UNL     1       3.039   7.234  18.513  0.00  0.00    +0.000 A 
ATOM     14  C   UNL     1       2.225   7.744  19.523  0.00  0.00    +0.000 A 
ATOM     15  C   UNL     1       1.668   6.880  20.458  0.00  0.00    +0.000 A 
ATOM     16  C   UNL     1       1.916   5.508  20.378  0.00  0.00    +0.000 A 
ATOM     17  C   UNL     1       2.696   4.972  19.339  0.00  0.00    +0.000 A 
BRANCH   7  19
ATOM     18  C   UNL     1       0.887   2.289  19.901  0.00  0.00    +0.000 C 
ATOM     19  C   UNL     1       2.356   2.603  20.146  0.00  0.00    +0.000 C 
ENDBRANCH   7  19
ENDBRANCH   6  11
ENDBRANCH   5   6
ENDBRANCH   1   5
BRANCH   3  20
ATOM     20  C   UNL     1       8.401   8.316  18.266  0.00  0.00    +0.000 C 
BRANCH  20  21
ATOM     21  C   UNL     1       8.371   9.837  18.189  0.00  0.00    +0.000 C 
BRANCH  21  22
ATOM     22  C   UNL     1       9.229  10.469  19.287  0.00  0.00    +0.000 C 
BRANCH  22  23
ATOM     23  N   UNL     1      10.387  11.198  18.751  0.00  0.00    +0.000 NA
ATOM     24  C   UNL     1      10.014  12.275  17.800  0.00  0.00    +0.000 C 
ATOM     25  C   UNL     1       9.296  13.492  18.426  0.00  0.00    +0.000 C 
ATOM     26  N   UNL     1       9.993  13.988  19.625  0.00  0.00    +0.000 N 
ATOM     27  C   UNL     1      10.457  12.956  20.572  0.00  0.00    +0.000 C 
ATOM     28  C   UNL     1      11.181  11.812  19.834  0.00  0.00    +0.000 C 
BRANCH  26  29
ATOM     29  C   UNL     1      10.550  15.254  19.710  0.00  0.00    +0.000 A 
ATOM     30  C   UNL     1      11.206  15.730  20.852  0.00  0.00    +0.000 A 
ATOM     31  C   UNL     1      11.695  17.041  20.922  0.00  0.00    +0.000 A 
ATOM     32  C   UNL     1      11.542  17.901  19.847  0.00  0.00    +0.000 A 
ATOM     33  C   UNL     1      10.932  17.446  18.685  0.00  0.00    +0.000 A 
ATOM     34 CL   UNL     1      10.712  18.500  17.350  0.00  0.00    +0.000 Cl
ATOM     35  C   UNL     1      10.463  16.134  18.615  0.00  0.00    +0.000 A 
ENDBRANCH  26  29
ENDBRANCH  22  23
ENDBRANCH  21  22
ENDBRANCH  20  21
ENDBRANCH   3  20
TORSDOF 9
ENDMDL
MODEL 2
REMARK VINA RESULT:      -8.1      7.280     10.338
REMARK  Name = 
REMARK  10 active torsions:
REMARK  status: ('A' for Active; 'I' for Inactive)
REMARK    1  A    between atoms: C_1  and  C_2
REMARK    2  A    between atoms: C_2  and  N_3
REMARK    3  A    between atoms: C_7  and  O_8
REMARK    4  A    between atoms: O_8  and  C_9
REMARK    5  A    between atoms: C_9  and  C_10
REMARK    6  A    between atoms: N_12  and  C_13
REMARK    7  A    between atoms: C_13  and  C_14
REMARK    8  A    between atoms: C_14  and  C_15
REMARK    9  A    between atoms: C_15  and  N_16
REMARK   10  A    between atoms: N_19  and  C_20
REMARK                            x       y       z     vdW  Elec       q    Type
REMARK                         _______ _______ _______ _____ _____    ______ ____
ROOT
ATOM      1  C   UNL     1       1.508   8.208  20.487  0.00  0.00    +0.000 C 
ATOM      2  O   UNL     1       0.897   8.073  21.544  0.00  0.00    +0.000 OA
ATOM      3  N   UNL     1       2.230   7.197  19.885  0.00  0.00    +0.000 N 
ATOM      4  H   UNL     1       2.615   7.330  18.960  0.00  0.00    +0.000 HD
ENDROOT
BRANCH   1   5
ATOM      5  C   UNL     1       1.523   9.519  19.720  0.00  0.00    +0.000 C 
BRANCH   5   6
ATOM      6  O   UNL     1       0.371   9.602  18.889  0.00  0.00    +0.000 OA
BRANCH   6  11
ATOM      7  N   UNL     1      -2.761  12.236  19.902  0.00  0.00    +0.000 N 
ATOM      8  C   UNL     1      -1.797  11.970  20.864  0.00  0.00    +0.000 A 
ATOM      9  O   UNL     1      -1.791  12.448  21.998  0.00  0.00    +0.000 OA
ATOM     10  C   UNL     1      -0.688  11.076  20.489  0.00  0.00    +0.000 A 
ATOM     11  C   UNL     1      -0.644  10.434  19.316  0.00  0.00    +0.000 A 
ATOM     12  C   UNL     1      -1.773  10.589  18.379  0.00  0.00    +0.000 A 
ATOM     13  C   UNL     1      -1.841   9.824  17.200  0.00  0.00    +0.000 A 
ATOM     14  C   UNL     1      -2.930   9.932  16.337  0.00  0.00    +0.000 A 
ATOM     15  C   UNL     1      -3.944  10.838  16.620  0.00  0.00    +0.000 A 
ATOM     16  C   UNL     1      -3.875  11.630  17.769  0.00  0.00    +0.000 A 
ATOM     17  C   UNL     1      -2.808  11.501  18.674  0.00  0.00    +0.000 A 
BRANCH   7  19
ATOM     18  C   UNL     1      -4.865  12.650  21.146  0.00  0.00    +0.000 C 
ATOM     19  C   UNL     1      -3.780  13.223  20.247  0.00  0.00    +0.000 C 
ENDBRANCH   7  19
ENDBRANCH   6  11
ENDBRANCH   5   6
ENDBRANCH   1   5
BRANCH   3  20
ATOM     20  C   UNL     1       2.319   5.888  20.491  0.00  0.00    +0.000 C 
BRANCH  20  21
ATOM     21  C   UNL     1       2.985   4.893  19.549  0.00  0.00    +0.000 C 
BRANCH  21  22
ATOM     22  C   UNL     1       4.480   5.183  19.396  0.00  0.00    +0.000 C 
BRANCH  22  23
ATOM     23  N   UNL     1       4.765   6.109  18.290  0.00  0.00    +0.000 NA
ATOM     24  C   UNL     1       6.206   6.178  17.939  0.00  0.00    +0.000 C 
ATOM     25  C   UNL     1       6.788   4.907  17.279  0.00  0.00    +0.000 C 
ATOM     26  N   UNL     1       5.942   4.420  16.176  0.00  0.00    +0.000 N 
ATOM     27  C   UNL     1       4.490   4.403  16.440  0.00  0.00    +0.000 C 
ATOM     28  C   UNL     1       4.024   5.731  17.070  0.00  0.00    +0.000 C 
BRANCH  26  29
ATOM     29  C   UNL     1       6.369   4.361  14.859  0.00  0.00    +0.000 A 
ATOM     30  C   UNL     1       7.455   5.099  14.370  0.00  0.00    +0.000 A 
ATOM     31  C   UNL     1       7.813   5.064  13.016  0.00  0.00    +0.000 A 
ATOM     32  C   UNL     1       7.094   4.286  12.125  0.00  0.00    +0.000 A 
ATOM     33  C   UNL     1       6.037   3.511  12.586  0.00  0.00    +0.000 A 
ATOM     34 CL   UNL     1       5.119   2.557  11.496  0.00  0.00    +0.000 Cl
ATOM     35  C   UNL     1       5.697   3.536  13.939  0.00  0.00    +0.000 A 
ENDBRANCH  26  29
ENDBRANCH  22  23
ENDBRANCH  21  22
ENDBRANCH  20  21
ENDBRANCH   3  20
TORSDOF 9
ENDMDL
MODEL 3
REMARK VINA RESULT:      -7.9      6.708     10.288
REMARK  Name = 
REMARK  10 active torsions:
REMARK  status: ('A' for Active; 'I' for Inactive)
REMARK    1  A    between atoms: C_1  and  C_2
REMARK    2  A    between atoms: C_2  and  N_3
REMARK    3  A    between atoms: C_7  and  O_8
REMARK    4  A    between atoms: O_8  and  C_9
REMARK    5  A    between atoms: C_9  and  C_10
REMARK    6  A    between atoms: N_12  and  C_13
REMARK    7  A    between atoms: C_13  and  C_14
REMARK    8  A    between atoms: C_14  and  C_15
REMARK    9  A    between atoms: C_15  and  N_16
REMARK   10  A    between atoms: N_19  and  C_20
REMARK                            x       y       z     vdW  Elec       q    Type
REMARK                         _______ _______ _______ _____ _____    ______ ____
ROOT
ATOM      1  C   UNL     1       1.823   7.827  19.976  0.00  0.00    +0.000 C 
ATOM      2  O   UNL     1       1.451   7.960  21.139  0.00  0.00    +0.000 OA
ATOM      3  N   UNL     1       2.453   6.696  19.497  0.00  0.00    +0.000 N 
ATOM      4  H   UNL     1       2.631   6.594  18.508  0.00  0.00    +0.000 HD
ENDROOT
BRANCH   1   5
ATOM      5  C   UNL     1       1.615   8.908  18.928  0.00  0.00    +0.000 C 
BRANCH   5   6
ATOM      6  O   UNL     1       0.522   9.737  19.304  0.00  0.00    +0.000 OA
BRANCH   6  11
ATOM      7  N   UNL     1       1.092  13.834  20.115  0.00  0.00    +0.000 N 
ATOM      8  C   UNL     1       1.844  13.261  19.100  0.00  0.00    +0.000 A 
ATOM      9  O   UNL     1       2.670  13.865  18.417  0.00  0.00    +0.000 OA
ATOM     10  C   UNL     1       1.613  11.838  18.801  0.00  0.00    +0.000 A 
ATOM     11  C   UNL     1       0.803  11.068  19.538  0.00  0.00    +0.000 A 
ATOM     12  C   UNL     1       0.153  11.654  20.725  0.00  0.00    +0.000 A 
ATOM     13  C   UNL     1      -0.589  10.851  21.611  0.00  0.00    +0.000 A 
ATOM     14  C   UNL     1      -1.164  11.391  22.760  0.00  0.00    +0.000 A 
ATOM     15  C   UNL     1      -1.040  12.751  23.015  0.00  0.00    +0.000 A 
ATOM     16  C   UNL     1      -0.336  13.569  22.129  0.00  0.00    +0.000 A 
ATOM     17  C   UNL     1       0.289  13.033  20.990  0.00  0.00    +0.000 A 
BRANCH   7  19
ATOM     18  C   UNL     1       0.244  16.079  19.491  0.00  0.00    +0.000 C 
ATOM     19  C   UNL     1       1.240  15.273  20.312  0.00  0.00    +0.000 C 
ENDBRANCH   7  19
ENDBRANCH   6  11
ENDBRANCH   5   6
ENDBRANCH   1   5
BRANCH   3  20
ATOM     20  C   UNL     1       2.729   5.577  20.369  0.00  0.00    +0.000 C 
BRANCH  20  21
ATOM     21  C   UNL     1       3.661   4.576  19.697  0.00  0.00    +0.000 C 
BRANCH  21  22
ATOM     22  C   UNL     1       4.943   5.250  19.205  0.00  0.00    +0.000 C 
BRANCH  22  23
ATOM     23  N   UNL     1       4.742   6.010  17.963  0.00  0.00    +0.000 NA
ATOM     24  C   UNL     1       5.997   6.583  17.416  0.00  0.00    +0.000 C 
ATOM     25  C   UNL     1       7.003   5.555  16.850  0.00  0.00    +0.000 C 
ATOM     26  N   UNL     1       6.358   4.592  15.941  0.00  0.00    +0.000 N 
ATOM     27  C   UNL     1       5.065   4.045  16.398  0.00  0.00    +0.000 C 
ATOM     28  C   UNL     1       4.139   5.166  16.912  0.00  0.00    +0.000 C 
BRANCH  26  29
ATOM     29  C   UNL     1       6.677   4.484  14.597  0.00  0.00    +0.000 A 
ATOM     30  C   UNL     1       7.622   5.301  13.964  0.00  0.00    +0.000 A 
ATOM     31  C   UNL     1       7.866   5.206  12.588  0.00  0.00    +0.000 A 
ATOM     32  C   UNL     1       7.173   4.286  11.818  0.00  0.00    +0.000 A 
ATOM     33  C   UNL     1       6.259   3.433  12.425  0.00  0.00    +0.000 A 
ATOM     34 CL   UNL     1       5.375   2.301  11.487  0.00  0.00    +0.000 Cl
ATOM     35  C   UNL     1       6.034   3.521  13.798  0.00  0.00    +0.000 A 
ENDBRANCH  26  29
ENDBRANCH  22  23
ENDBRANCH  21  22
ENDBRANCH  20  21
ENDBRANCH   3  20
TORSDOF 9
ENDMDL
MODEL 4
REMARK VINA RESULT:      -7.8      4.694     11.462
REMARK  Name = 
REMARK  10 active torsions:
REMARK  status: ('A' for Active; 'I' for Inactive)
REMARK    1  A    between atoms: C_1  and  C_2
REMARK    2  A    between atoms: C_2  and  N_3
REMARK    3  A    between atoms: C_7  and  O_8
REMARK    4  A    between atoms: O_8  and  C_9
REMARK    5  A    between atoms: C_9  and  C_10
REMARK    6  A    between atoms: N_12  and  C_13
REMARK    7  A    between atoms: C_13  and  C_14
REMARK    8  A    between atoms: C_14  and  C_15
REMARK    9  A    between atoms: C_15  and  N_16
REMARK   10  A    between atoms: N_19  and  C_20
REMARK                            x       y       z     vdW  Elec       q    Type
REMARK                         _______ _______ _______ _____ _____    ______ ____
ROOT
ATOM      1  C   UNL     1       9.841  10.853  18.781  0.00  0.00    +0.000 C 
ATOM      2  O   UNL     1      10.210  11.158  17.650  0.00  0.00    +0.000 OA
ATOM      3  N   UNL     1       8.901   9.875  19.044  0.00  0.00    +0.000 N 
ATOM      4  H   UNL     1       8.722   9.586  19.995  0.00  0.00    +0.000 HD
ENDROOT
BRANCH   1   5
ATOM      5  C   UNL     1      10.394  11.526  20.025  0.00  0.00    +0.000 C 
BRANCH   5   6
ATOM      6  O   UNL     1      10.266  12.938  19.905  0.00  0.00    +0.000 OA
BRANCH   6  11
ATOM      7  N   UNL     1       7.242  14.994  22.003  0.00  0.00    +0.000 N 
ATOM      8  C   UNL     1       8.152  14.248  22.738  0.00  0.00    +0.000 A 
ATOM      9  O   UNL     1       8.139  14.141  23.963  0.00  0.00    +0.000 OA
ATOM     10  C   UNL     1       9.225  13.561  21.998  0.00  0.00    +0.000 A 
ATOM     11  C   UNL     1       9.280  13.540  20.662  0.00  0.00    +0.000 A 
ATOM     12  C   UNL     1       8.199  14.187  19.896  0.00  0.00    +0.000 A 
ATOM     13  C   UNL     1       8.136  14.066  18.495  0.00  0.00    +0.000 A 
ATOM     14  C   UNL     1       7.089  14.634  17.772  0.00  0.00    +0.000 A 
ATOM     15  C   UNL     1       6.114  15.369  18.437  0.00  0.00    +0.000 A 
ATOM     16  C   UNL     1       6.180  15.527  19.823  0.00  0.00    +0.000 A 
ATOM     17  C   UNL     1       7.203  14.921  20.573  0.00  0.00    +0.000 A 
BRANCH   7  19
ATOM     18  C   UNL     1       6.738  17.189  23.040  0.00  0.00    +0.000 C 
ATOM     19  C   UNL     1       6.264  15.770  22.759  0.00  0.00    +0.000 C 
ENDBRANCH   7  19
ENDBRANCH   6  11
ENDBRANCH   5   6
ENDBRANCH   1   5
BRANCH   3  20
ATOM     20  C   UNL     1       8.274   9.142  17.967  0.00  0.00    +0.000 C 
BRANCH  20  21
ATOM     21  C   UNL     1       8.192   7.656  18.293  0.00  0.00    +0.000 C 
BRANCH  21  22
ATOM     22  C   UNL     1       7.255   6.925  17.328  0.00  0.00    +0.000 C 
BRANCH  22  23
ATOM     23  N   UNL     1       7.067   5.512  17.686  0.00  0.00    +0.000 NA
ATOM     24  C   UNL     1       6.584   5.318  19.076  0.00  0.00    +0.000 C 
ATOM     25  C   UNL     1       5.132   5.778  19.343  0.00  0.00    +0.000 C 
ATOM     26  N   UNL     1       4.196   5.272  18.325  0.00  0.00    +0.000 N 
ATOM     27  C   UNL     1       4.656   5.368  16.926  0.00  0.00    +0.000 C 
ATOM     28  C   UNL     1       6.102   4.855  16.781  0.00  0.00    +0.000 C 
BRANCH  26  29
ATOM     29  C   UNL     1       3.153   4.407  18.615  0.00  0.00    +0.000 A 
ATOM     30  C   UNL     1       2.213   3.990  17.664  0.00  0.00    +0.000 A 
ATOM     31  C   UNL     1       1.133   3.169  18.013  0.00  0.00    +0.000 A 
ATOM     32  C   UNL     1       0.975   2.745  19.322  0.00  0.00    +0.000 A 
ATOM     33  C   UNL     1       1.912   3.108  20.280  0.00  0.00    +0.000 A 
ATOM     34 CL   UNL     1       1.724   2.611  21.911  0.00  0.00    +0.000 Cl
ATOM     35  C   UNL     1       2.996   3.910  19.922  0.00  0.00    +0.000 A 
ENDBRANCH  26  29
ENDBRANCH  22  23
ENDBRANCH  21  22
ENDBRANCH  20  21
ENDBRANCH   3  20
TORSDOF 9
ENDMDL
MODEL 5
REMARK VINA RESULT:      -7.7      1.802      2.142
REMARK  Name = 
REMARK  10 active torsions:
REMARK  status: ('A' for Active; 'I' for Inactive)
REMARK    1  A    between atoms: C_1  and  C_2
REMARK    2  A    between atoms: C_2  and  N_3
REMARK    3  A    between atoms: C_7  and  O_8
REMARK    4  A    between atoms: O_8  and  C_9
REMARK    5  A    between atoms: C_9  and  C_10
REMARK    6  A    between atoms: N_12  and  C_13
REMARK    7  A    between atoms: C_13  and  C_14
REMARK    8  A    between atoms: C_14  and  C_15
REMARK    9  A    between atoms: C_15  and  N_16
REMARK   10  A    between atoms: N_19  and  C_20
REMARK                            x       y       z     vdW  Elec       q    Type
REMARK                         _______ _______ _______ _____ _____    ______ ____
ROOT
ATOM      1  C   UNL     1       7.129   5.597  16.216  0.00  0.00    +0.000 C 
ATOM      2  O   UNL     1       7.621   5.817  15.112  0.00  0.00    +0.000 OA
ATOM      3  N   UNL     1       7.162   6.498  17.262  0.00  0.00    +0.000 N 
ATOM      4  H   UNL     1       6.640   6.312  18.108  0.00  0.00    +0.000 HD
ENDROOT
BRANCH   1   5
ATOM      5  C   UNL     1       6.416   4.296  16.544  0.00  0.00    +0.000 C 
BRANCH   5   6
ATOM      6  O   UNL     1       5.008   4.497  16.504  0.00  0.00    +0.000 OA
BRANCH   6  11
ATOM      7  N   UNL     1       2.959   4.005  20.155  0.00  0.00    +0.000 N 
ATOM      8  C   UNL     1       3.481   2.874  19.544  0.00  0.00    +0.000 A 
ATOM      9  O   UNL     1       3.388   1.732  19.992  0.00  0.00    +0.000 OA
ATOM     10  C   UNL     1       4.225   3.061  18.287  0.00  0.00    +0.000 A 
ATOM     11  C   UNL     1       4.311   4.244  17.669  0.00  0.00    +0.000 A 
ATOM     12  C   UNL     1       3.593   5.399  18.241  0.00  0.00    +0.000 A 
ATOM     13  C   UNL     1       3.534   6.624  17.553  0.00  0.00    +0.000 A 
ATOM     14  C   UNL     1       2.816   7.702  18.067  0.00  0.00    +0.000 A 
ATOM     15  C   UNL     1       2.184   7.582  19.298  0.00  0.00    +0.000 A 
ATOM     16  C   UNL     1       2.261   6.383  20.011  0.00  0.00    +0.000 A 
ATOM     17  C   UNL     1       2.942   5.271  19.486  0.00  0.00    +0.000 A 
BRANCH   7  19
ATOM     18  C   UNL     1       1.095   2.944  21.398  0.00  0.00    +0.000 C 
ATOM     19  C   UNL     1       2.337   3.819  21.463  0.00  0.00    +0.000 C 
ENDBRANCH   7  19
ENDBRANCH   6  11
ENDBRANCH   5   6
ENDBRANCH   1   5
BRANCH   3  20
ATOM     20  C   UNL     1       7.807   7.782  17.114  0.00  0.00    +0.000 C 
BRANCH  20  21
ATOM     21  C   UNL     1       8.309   8.300  18.456  0.00  0.00    +0.000 C 
BRANCH  21  22
ATOM     22  C   UNL     1       8.514   9.816  18.428  0.00  0.00    +0.000 C 
BRANCH  22  23
ATOM     23  N   UNL     1       9.800  10.224  19.011  0.00  0.00    +0.000 NA
ATOM     24  C   UNL     1      10.483  11.291  18.238  0.00  0.00    +0.000 C 
ATOM     25  C   UNL     1       9.804  12.680  18.282  0.00  0.00    +0.000 C 
ATOM     26  N   UNL     1       9.463  13.084  19.657  0.00  0.00    +0.000 N 
ATOM     27  C   UNL     1       8.850  12.039  20.500  0.00  0.00    +0.000 C 
ATOM     28  C   UNL     1       9.630  10.713  20.395  0.00  0.00    +0.000 C 
BRANCH  26  29
ATOM     29  C   UNL     1      10.012  14.192  20.282  0.00  0.00    +0.000 A 
ATOM     30  C   UNL     1      11.013  14.982  19.703  0.00  0.00    +0.000 A 
ATOM     31  C   UNL     1      11.592  16.054  20.397  0.00  0.00    +0.000 A 
ATOM     32  C   UNL     1      11.175  16.359  21.682  0.00  0.00    +0.000 A 
ATOM     33  C   UNL     1      10.156  15.619  22.267  0.00  0.00    +0.000 A 
ATOM     34 CL   UNL     1       9.639  15.966  23.865  0.00  0.00    +0.000 Cl
ATOM     35  C   UNL     1       9.571  14.565  21.565  0.00  0.00    +0.000 A 
ENDBRANCH  26  29
ENDBRANCH  22  23
ENDBRANCH  21  22
ENDBRANCH  20  21
ENDBRANCH   3  20
TORSDOF 9
ENDMDL
MODEL 6
REMARK VINA RESULT:      -7.6      7.416     10.227
REMARK  Name = 
REMARK  10 active torsions:
REMARK  status: ('A' for Active; 'I' for Inactive)
REMARK    1  A    between atoms: C_1  and  C_2
REMARK    2  A    between atoms: C_2  and  N_3
REMARK    3  A    between atoms: C_7  and  O_8
REMARK    4  A    between atoms: O_8  and  C_9
REMARK    5  A    between atoms: C_9  and  C_10
REMARK    6  A    between atoms: N_12  and  C_13
REMARK    7  A    between atoms: C_13  and  C_14
REMARK    8  A    between atoms: C_14  and  C_15
REMARK    9  A    between atoms: C_15  and  N_16
REMARK   10  A    between atoms: N_19  and  C_20
REMARK                            x       y       z     vdW  Elec       q    Type
REMARK                         _______ _______ _______ _____ _____    ______ ____
ROOT
ATOM      1  C   UNL     1       1.652   8.416  19.260  0.00  0.00    +0.000 C 
ATOM      2  O   UNL     1       1.744   8.856  18.116  0.00  0.00    +0.000 OA
ATOM      3  N   UNL     1       2.234   7.235  19.676  0.00  0.00    +0.000 N 
ATOM      4  H   UNL     1       2.224   6.981  20.654  0.00  0.00    +0.000 HD
ENDROOT
BRANCH   1   5
ATOM      5  C   UNL     1       0.883   9.143  20.350  0.00  0.00    +0.000 C 
BRANCH   5   6
ATOM      6  O   UNL     1       0.825  10.533  20.052  0.00  0.00    +0.000 OA
BRANCH   6  11
ATOM      7  N   UNL     1      -3.023  12.011  19.170  0.00  0.00    +0.000 N 
ATOM      8  C   UNL     1      -2.289  11.450  18.136  0.00  0.00    +0.000 A 
ATOM      9  O   UNL     1      -2.681  11.354  16.973  0.00  0.00    +0.000 OA
ATOM     10  C   UNL     1      -0.959  10.906  18.460  0.00  0.00    +0.000 A 
ATOM     11  C   UNL     1      -0.403  11.036  19.670  0.00  0.00    +0.000 A 
ATOM     12  C   UNL     1      -1.126  11.796  20.707  0.00  0.00    +0.000 A 
ATOM     13  C   UNL     1      -0.520  12.084  21.943  0.00  0.00    +0.000 A 
ATOM     14  C   UNL     1      -1.180  12.844  22.907  0.00  0.00    +0.000 A 
ATOM     15  C   UNL     1      -2.474  13.289  22.662  0.00  0.00    +0.000 A 
ATOM     16  C   UNL     1      -3.102  12.984  21.453  0.00  0.00    +0.000 A 
ATOM     17  C   UNL     1      -2.434  12.259  20.452  0.00  0.00    +0.000 A 
BRANCH   7  19
ATOM     18  C   UNL     1      -5.422  11.393  19.274  0.00  0.00    +0.000 C 
ATOM     19  C   UNL     1      -4.387  12.428  18.859  0.00  0.00    +0.000 C 
ENDBRANCH   7  19
ENDBRANCH   6  11
ENDBRANCH   5   6
ENDBRANCH   1   5
BRANCH   3  20
ATOM     20  C   UNL     1       2.997   6.421  18.757  0.00  0.00    +0.000 C 
BRANCH  20  21
ATOM     21  C   UNL     1       3.840   5.396  19.505  0.00  0.00    +0.000 C 
BRANCH  21  22
ATOM     22  C   UNL     1       5.334   5.608  19.249  0.00  0.00    +0.000 C 
BRANCH  22  23
ATOM     23  N   UNL     1       5.964   4.456  18.590  0.00  0.00    +0.000 NA
ATOM     24  C   UNL     1       5.087   3.800  17.588  0.00  0.00    +0.000 C 
ATOM     25  C   UNL     1       4.811   4.624  16.309  0.00  0.00    +0.000 C 
ATOM     26  N   UNL     1       6.047   5.175  15.729  0.00  0.00    +0.000 N 
ATOM     27  C   UNL     1       6.996   5.773  16.689  0.00  0.00    +0.000 C 
ATOM     28  C   UNL     1       7.212   4.848  17.904  0.00  0.00    +0.000 C 
BRANCH  26  29
ATOM     29  C   UNL     1       6.516   4.830  14.472  0.00  0.00    +0.000 A 
ATOM     30  C   UNL     1       7.595   5.472  13.851  0.00  0.00    +0.000 A 
ATOM     31  C   UNL     1       7.994   5.138  12.550  0.00  0.00    +0.000 A 
ATOM     32  C   UNL     1       7.324   4.152  11.846  0.00  0.00    +0.000 A 
ATOM     33  C   UNL     1       6.276   3.469  12.450  0.00  0.00    +0.000 A 
ATOM     34 CL   UNL     1       5.419   2.258  11.589  0.00  0.00    +0.000 Cl
ATOM     35  C   UNL     1       5.895   3.793  13.752  0.00  0.00    +0.000 A 
ENDBRANCH  26  29
ENDBRANCH  22  23
ENDBRANCH  21  22
ENDBRANCH  20  21
ENDBRANCH   3  20
TORSDOF 9
ENDMDL
MODEL 7
REMARK VINA RESULT:      -7.6      6.898      9.395
REMARK  Name = 
REMARK  10 active torsions:
REMARK  status: ('A' for Active; 'I' for Inactive)
REMARK    1  A    between atoms: C_1  and  C_2
REMARK    2  A    between atoms: C_2  and  N_3
REMARK    3  A    between atoms: C_7  and  O_8
REMARK    4  A    between atoms: O_8  and  C_9
REMARK    5  A    between atoms: C_9  and  C_10
REMARK    6  A    between atoms: N_12  and  C_13
REMARK    7  A    between atoms: C_13  and  C_14
REMARK    8  A    between atoms: C_14  and  C_15
REMARK    9  A    between atoms: C_15  and  N_16
REMARK   10  A    between atoms: N_19  and  C_20
REMARK                            x       y       z     vdW  Elec       q    Type
REMARK                         _______ _______ _______ _____ _____    ______ ____
ROOT
ATOM      1  C   UNL     1       2.002   4.925  19.609  0.00  0.00    +0.000 C 
ATOM      2  O   UNL     1       1.851   4.801  18.396  0.00  0.00    +0.000 OA
ATOM      3  N   UNL     1       3.069   4.396  20.307  0.00  0.00    +0.000 N 
ATOM      4  H   UNL     1       3.203   4.627  21.282  0.00  0.00    +0.000 HD
ENDROOT
BRANCH   1   5
ATOM      5  C   UNL     1       1.018   5.693  20.475  0.00  0.00    +0.000 C 
BRANCH   5   6
ATOM      6  O   UNL     1       1.647   6.856  21.001  0.00  0.00    +0.000 OA
BRANCH   6  11
ATOM      7  N   UNL     1       0.528  10.509  19.221  0.00  0.00    +0.000 N 
ATOM      8  C   UNL     1       1.381   9.675  18.513  0.00  0.00    +0.000 A 
ATOM      9  O   UNL     1       1.838   9.927  17.399  0.00  0.00    +0.000 OA
ATOM     10  C   UNL     1       1.739   8.386  19.129  0.00  0.00    +0.000 A 
ATOM     11  C   UNL     1       1.368   8.052  20.370  0.00  0.00    +0.000 A 
ATOM     12  C   UNL     1       0.613   9.031  21.174  0.00  0.00    +0.000 A 
ATOM     13  C   UNL     1       0.328   8.785  22.529  0.00  0.00    +0.000 A 
ATOM     14  C   UNL     1      -0.342   9.728  23.306  0.00  0.00    +0.000 A 
ATOM     15  C   UNL     1      -0.774  10.914  22.723  0.00  0.00    +0.000 A 
ATOM     16  C   UNL     1      -0.529  11.160  21.371  0.00  0.00    +0.000 A 
ATOM     17  C   UNL     1       0.186  10.240  20.585  0.00  0.00    +0.000 A 
BRANCH   7  19
ATOM     18  C   UNL     1      -1.370  11.639  18.095  0.00  0.00    +0.000 C 
ATOM     19  C   UNL     1       0.081  11.723  18.543  0.00  0.00    +0.000 C 
ENDBRANCH   7  19
ENDBRANCH   6  11
ENDBRANCH   5   6
ENDBRANCH   1   5
BRANCH   3  20
ATOM     20  C   UNL     1       4.092   3.633  19.629  0.00  0.00    +0.000 C 
BRANCH  20  21
ATOM     21  C   UNL     1       5.428   4.365  19.657  0.00  0.00    +0.000 C 
BRANCH  21  22
ATOM     22  C   UNL     1       5.319   5.751  19.017  0.00  0.00    +0.000 C 
BRANCH  22  23
ATOM     23  N   UNL     1       6.491   6.089  18.197  0.00  0.00    +0.000 NA
ATOM     24  C   UNL     1       7.290   4.903  17.798  0.00  0.00    +0.000 C 
ATOM     25  C   UNL     1       6.611   3.959  16.780  0.00  0.00    +0.000 C 
ATOM     26  N   UNL     1       6.047   4.694  15.634  0.00  0.00    +0.000 N 
ATOM     27  C   UNL     1       5.306   5.926  15.965  0.00  0.00    +0.000 C 
ATOM     28  C   UNL     1       6.095   6.798  16.963  0.00  0.00    +0.000 C 
BRANCH  26  29
ATOM     29  C   UNL     1       6.484   4.521  14.331  0.00  0.00    +0.000 A 
ATOM     30  C   UNL     1       7.421   5.361  13.717  0.00  0.00    +0.000 A 
ATOM     31  C   UNL     1       7.785   5.193  12.374  0.00  0.00    +0.000 A 
ATOM     32  C   UNL     1       7.222   4.176  11.621  0.00  0.00    +0.000 A 
ATOM     33  C   UNL     1       6.321   3.302  12.213  0.00  0.00    +0.000 A 
ATOM     34 CL   UNL     1       5.595   2.049  11.293  0.00  0.00    +0.000 Cl
ATOM     35  C   UNL     1       5.976   3.463  13.555  0.00  0.00    +0.000 A 
ENDBRANCH  26  29
ENDBRANCH  22  23
ENDBRANCH  21  22
ENDBRANCH  20  21
ENDBRANCH   3  20
TORSDOF 9
ENDMDL
MODEL 8
REMARK VINA RESULT:      -7.5      4.526     11.884
REMARK  Name = 
REMARK  10 active torsions:
REMARK  status: ('A' for Active; 'I' for Inactive)
REMARK    1  A    between atoms: C_1  and  C_2
REMARK    2  A    between atoms: C_2  and  N_3
REMARK    3  A    between atoms: C_7  and  O_8
REMARK    4  A    between atoms: O_8  and  C_9
REMARK    5  A    between atoms: C_9  and  C_10
REMARK    6  A    between atoms: N_12  and  C_13
REMARK    7  A    between atoms: C_13  and  C_14
REMARK    8  A    between atoms: C_14  and  C_15
REMARK    9  A    between atoms: C_15  and  N_16
REMARK   10  A    between atoms: N_19  and  C_20
REMARK                            x       y       z     vdW  Elec       q    Type
REMARK                         _______ _______ _______ _____ _____    ______ ____
ROOT
ATOM      1  C   UNL     1       9.466  10.742  18.913  0.00  0.00    +0.000 C 
ATOM      2  O   UNL     1       9.206  10.461  20.080  0.00  0.00    +0.000 OA
ATOM      3  N   UNL     1       8.794  10.212  17.829  0.00  0.00    +0.000 N 
ATOM      4  H   UNL     1       8.971  10.566  16.900  0.00  0.00    +0.000 HD
ENDROOT
BRANCH   1   5
ATOM      5  C   UNL     1      10.565  11.722  18.538  0.00  0.00    +0.000 C 
BRANCH   5   6
ATOM      6  O   UNL     1      10.789  12.626  19.614  0.00  0.00    +0.000 OA
BRANCH   6  11
ATOM      7  N   UNL     1       8.559  16.203  19.582  0.00  0.00    +0.000 N 
ATOM      8  C   UNL     1       9.431  15.970  18.528  0.00  0.00    +0.000 A 
ATOM      9  O   UNL     1       9.603  16.737  17.582  0.00  0.00    +0.000 OA
ATOM     10  C   UNL     1      10.180  14.702  18.531  0.00  0.00    +0.000 A 
ATOM     11  C   UNL     1      10.134  13.840  19.553  0.00  0.00    +0.000 A 
ATOM     12  C   UNL     1       9.341  14.192  20.746  0.00  0.00    +0.000 A 
ATOM     13  C   UNL     1       9.378  13.388  21.899  0.00  0.00    +0.000 A 
ATOM     14  C   UNL     1       8.669  13.744  23.045  0.00  0.00    +0.000 A 
ATOM     15  C   UNL     1       7.878  14.887  23.036  0.00  0.00    +0.000 A 
ATOM     16  C   UNL     1       7.804  15.678  21.888  0.00  0.00    +0.000 A 
ATOM     17  C   UNL     1       8.548  15.359  20.740  0.00  0.00    +0.000 A 
BRANCH   7  19
ATOM     18  C   UNL     1       6.330  17.108  18.983  0.00  0.00    +0.000 C 
ATOM     19  C   UNL     1       7.730  17.402  19.498  0.00  0.00    +0.000 C 
ENDBRANCH   7  19
ENDBRANCH   6  11
ENDBRANCH   5   6
ENDBRANCH   1   5
BRANCH   3  20
ATOM     20  C   UNL     1       7.723   9.260  18.016  0.00  0.00    +0.000 C 
BRANCH  20  21
ATOM     21  C   UNL     1       8.234   7.830  17.894  0.00  0.00    +0.000 C 
BRANCH  21  22
ATOM     22  C   UNL     1       7.186   6.914  17.257  0.00  0.00    +0.000 C 
BRANCH  22  23
ATOM     23  N   UNL     1       7.200   5.559  17.824  0.00  0.00    +0.000 NA
ATOM     24  C   UNL     1       6.576   5.478  19.168  0.00  0.00    +0.000 C 
ATOM     25  C   UNL     1       5.044   5.683  19.200  0.00  0.00    +0.000 C 
ATOM     26  N   UNL     1       4.355   4.864  18.188  0.00  0.00    +0.000 N 
ATOM     27  C   UNL     1       4.975   4.843  16.849  0.00  0.00    +0.000 C 
ATOM     28  C   UNL     1       6.495   4.604  16.945  0.00  0.00    +0.000 C 
BRANCH  26  29
ATOM     29  C   UNL     1       3.449   3.865  18.507  0.00  0.00    +0.000 A 
ATOM     30  C   UNL     1       2.864   3.025  17.552  0.00  0.00    +0.000 A 
ATOM     31  C   UNL     1       1.899   2.073  17.908  0.00  0.00    +0.000 A 
ATOM     32  C   UNL     1       1.506   1.939  19.229  0.00  0.00    +0.000 A 
ATOM     33  C   UNL     1       2.099   2.729  20.205  0.00  0.00    +0.000 A 
ATOM     34 CL   UNL     1       1.611   2.594  21.844  0.00  0.00    +0.000 Cl
ATOM     35  C   UNL     1       3.071   3.663  19.847  0.00  0.00    +0.000 A 
ENDBRANCH  26  29
ENDBRANCH  22  23
ENDBRANCH  21  22
ENDBRANCH  20  21
ENDBRANCH   3  20
TORSDOF 9
ENDMDL
MODEL 9
REMARK VINA RESULT:      -7.5      1.243      1.377
REMARK  Name = 
REMARK  10 active torsions:
REMARK  status: ('A' for Active; 'I' for Inactive)
REMARK    1  A    between atoms: C_1  and  C_2
REMARK    2  A    between atoms: C_2  and  N_3
REMARK    3  A    between atoms: C_7  and  O_8
REMARK    4  A    between atoms: O_8  and  C_9
REMARK    5  A    between atoms: C_9  and  C_10
REMARK    6  A    between atoms: N_12  and  C_13
REMARK    7  A    between atoms: C_13  and  C_14
REMARK    8  A    between atoms: C_14  and  C_15
REMARK    9  A    between atoms: C_15  and  N_16
REMARK   10  A    between atoms: N_19  and  C_20
REMARK                            x       y       z     vdW  Elec       q    Type
REMARK                         _______ _______ _______ _____ _____    ______ ____
ROOT
ATOM      1  C   UNL     1       7.166   6.728  17.622  0.00  0.00    +0.000 C 
ATOM      2  O   UNL     1       7.552   6.159  18.640  0.00  0.00    +0.000 OA
ATOM      3  N   UNL     1       7.505   8.026  17.293  0.00  0.00    +0.000 N 
ATOM      4  H   UNL     1       7.256   8.402  16.389  0.00  0.00    +0.000 HD
ENDROOT
BRANCH   1   5
ATOM      5  C   UNL     1       6.269   6.048  16.602  0.00  0.00    +0.000 C 
BRANCH   5   6
ATOM      6  O   UNL     1       4.906   6.335  16.895  0.00  0.00    +0.000 OA
BRANCH   6  11
ATOM      7  N   UNL     1       2.775   3.553  19.238  0.00  0.00    +0.000 N 
ATOM      8  C   UNL     1       3.520   3.071  18.172  0.00  0.00    +0.000 A 
ATOM      9  O   UNL     1       3.602   1.884  17.858  0.00  0.00    +0.000 OA
ATOM     10  C   UNL     1       4.288   4.046  17.380  0.00  0.00    +0.000 A 
ATOM     11  C   UNL     1       4.200   5.366  17.580  0.00  0.00    +0.000 A 
ATOM     12  C   UNL     1       3.262   5.869  18.601  0.00  0.00    +0.000 A 
ATOM     13  C   UNL     1       3.029   7.249  18.748  0.00  0.00    +0.000 A 
ATOM     14  C   UNL     1       2.106   7.726  19.677  0.00  0.00    +0.000 A 
ATOM     15  C   UNL     1       1.437   6.830  20.503  0.00  0.00    +0.000 A 
ATOM     16  C   UNL     1       1.682   5.460  20.393  0.00  0.00    +0.000 A 
ATOM     17  C   UNL     1       2.574   4.958  19.430  0.00  0.00    +0.000 A 
BRANCH   7  19
ATOM     18  C   UNL     1       2.728   2.505  21.484  0.00  0.00    +0.000 C 
ATOM     19  C   UNL     1       2.124   2.562  20.088  0.00  0.00    +0.000 C 
ENDBRANCH   7  19
ENDBRANCH   6  11
ENDBRANCH   5   6
ENDBRANCH   1   5
BRANCH   3  20
ATOM     20  C   UNL     1       8.351   8.813  18.162  0.00  0.00    +0.000 C 
BRANCH  20  21
ATOM     21  C   UNL     1       8.262  10.294  17.816  0.00  0.00    +0.000 C 
BRANCH  21  22
ATOM     22  C   UNL     1       9.610  10.993  18.007  0.00  0.00    +0.000 C 
BRANCH  22  23
ATOM     23  N   UNL     1       9.609  12.372  17.497  0.00  0.00    +0.000 NA
ATOM     24  C   UNL     1       8.522  13.207  18.067  0.00  0.00    +0.000 C 
ATOM     25  C   UNL     1       8.673  13.558  19.565  0.00  0.00    +0.000 C 
ATOM     26  N   UNL     1      10.021  14.059  19.883  0.00  0.00    +0.000 N 
ATOM     27  C   UNL     1      11.142  13.312  19.280  0.00  0.00    +0.000 C 
ATOM     28  C   UNL     1      10.891  13.048  17.781  0.00  0.00    +0.000 C 
BRANCH  26  29
ATOM     29  C   UNL     1      10.264  15.338  20.356  0.00  0.00    +0.000 A 
ATOM     30  C   UNL     1      11.522  15.769  20.795  0.00  0.00    +0.000 A 
ATOM     31  C   UNL     1      11.711  17.050  21.331  0.00  0.00    +0.000 A 
ATOM     32  C   UNL     1      10.644  17.927  21.433  0.00  0.00    +0.000 A 
ATOM     33  C   UNL     1       9.393  17.544  20.968  0.00  0.00    +0.000 A 
ATOM     34 CL   UNL     1       8.054  18.607  21.103  0.00  0.00    +0.000 Cl
ATOM     35  C   UNL     1       9.216  16.274  20.419  0.00  0.00    +0.000 A 
ENDBRANCH  26  29
ENDBRANCH  22  23
ENDBRANCH  21  22
ENDBRANCH  20  21
ENDBRANCH   3  20
TORSDOF 9
ENDMDL
