MODEL 1
REMARK VINA RESULT:      -6.2      0.000      0.000
REMARK  Name = 
REMARK  8 active torsions:
REMARK  status: ('A' for Active; 'I' for Inactive)
REMARK    1  A    between atoms: C_7  and  C_8
REMARK    2  A    between atoms: C_7  and  C_13
REMARK    3  A    between atoms: C_8  and  O_10
REMARK    4  A    between atoms: O_10  and  C_11
REMARK    5  A    between atoms: C_11  and  C_12
REMARK    6  A    between atoms: C_13  and  O_15
REMARK    7  A    between atoms: O_15  and  C_16
REMARK    8  A    between atoms: C_16  and  C_17
REMARK                            x       y       z     vdW  Elec       q    Type
REMARK                         _______ _______ _______ _____ _____    ______ ____
ROOT
ATOM      1  C   UNL     1       5.505   4.241  15.759  0.00  0.00    +0.000 C 
ATOM      2  C   UNL     1       5.827   4.508  17.034  0.00  0.00    +0.000 C 
ATOM      3  C   UNL     1       7.235   4.534  17.479  0.00  0.00    +0.000 C 
ATOM      4  O   UNL     1       8.201   4.203  16.819  0.00  0.00    +0.000 OA
ATOM      5  O   UNL     1       7.271   4.994  18.753  0.00  0.00    +0.000 OA
ATOM      6  C   UNL     1       5.966   5.394  19.179  0.00  0.00    +0.000 C 
ATOM      7  C   UNL     1       4.953   4.811  18.210  0.00  0.00    +0.000 C 
ENDROOT
BRANCH   7   8
ATOM      8  C   UNL     1       3.901   5.863  17.951  0.00  0.00    +0.000 C 
ATOM      9  O   UNL     1       4.082   6.920  17.362  0.00  0.00    +0.000 OA
BRANCH   8  10
ATOM     10  O   UNL     1       2.730   5.525  18.575  0.00  0.00    +0.000 OA
BRANCH  10  11
ATOM     11  C   UNL     1       2.395   6.326  19.717  0.00  0.00    +0.000 C 
ATOM     12  C   UNL     1       1.693   5.435  20.728  0.00  0.00    +0.000 C 
ENDBRANCH  10  11
ENDBRANCH   8  10
ENDBRANCH   7   8
BRANCH   7  13
ATOM     13  C   UNL     1       4.420   3.490  18.717  0.00  0.00    +0.000 C 
ATOM     14  O   UNL     1       4.822   2.930  19.730  0.00  0.00    +0.000 OA
BRANCH  13  15
ATOM     15  O   UNL     1       3.561   2.930  17.820  0.00  0.00    +0.000 OA
BRANCH  15  16
ATOM     16  C   UNL     1       2.805   1.809  18.305  0.00  0.00    +0.000 C 
ATOM     17  C   UNL     1       1.402   2.298  18.619  0.00  0.00    +0.000 C 
ENDBRANCH  15  16
ENDBRANCH  13  15
ENDBRANCH   7  13
TORSDOF 6
ENDMDL
MODEL 2
REMARK VINA RESULT:      -6.2      1.738      3.432
REMARK  Name = 
REMARK  8 active torsions:
REMARK  status: ('A' for Active; 'I' for Inactive)
REMARK    1  A    between atoms: C_7  and  C_8
REMARK    2  A    between atoms: C_7  and  C_13
REMARK    3  A    between atoms: C_8  and  O_10
REMARK    4  A    between atoms: O_10  and  C_11
REMARK    5  A    between atoms: C_11  and  C_12
REMARK    6  A    between atoms: C_13  and  O_15
REMARK    7  A    between atoms: O_15  and  C_16
REMARK    8  A    between atoms: C_16  and  C_17
REMARK                            x       y       z     vdW  Elec       q    Type
REMARK                         _______ _______ _______ _____ _____    ______ ____
ROOT
ATOM      1  C   UNL     1       5.015   4.015  15.811  0.00  0.00    +0.000 C 
ATOM      2  C   UNL     1       4.659   4.966  16.688  0.00  0.00    +0.000 C 
ATOM      3  C   UNL     1       4.914   6.395  16.412  0.00  0.00    +0.000 C 
ATOM      4  O   UNL     1       5.559   6.841  15.484  0.00  0.00    +0.000 OA
ATOM      5  O   UNL     1       4.304   7.130  17.374  0.00  0.00    +0.000 OA
ATOM      6  C   UNL     1       3.543   6.287  18.243  0.00  0.00    +0.000 C 
ATOM      7  C   UNL     1       3.992   4.853  18.022  0.00  0.00    +0.000 C 
ENDROOT
BRANCH   7   8
ATOM      8  C   UNL     1       2.762   3.976  18.033  0.00  0.00    +0.000 C 
ATOM      9  O   UNL     1       2.338   3.333  17.082  0.00  0.00    +0.000 OA
BRANCH   8  10
ATOM     10  O   UNL     1       2.110   4.090  19.231  0.00  0.00    +0.000 OA
BRANCH  10  11
ATOM     11  C   UNL     1       1.667   2.852  19.804  0.00  0.00    +0.000 C 
ATOM     12  C   UNL     1       1.652   3.010  21.315  0.00  0.00    +0.000 C 
ENDBRANCH  10  11
ENDBRANCH   8  10
ENDBRANCH   7   8
BRANCH   7  13
ATOM     13  C   UNL     1       5.059   4.463  19.019  0.00  0.00    +0.000 C 
ATOM     14  O   UNL     1       5.229   3.324  19.435  0.00  0.00    +0.000 OA
BRANCH  13  15
ATOM     15  O   UNL     1       5.692   5.563  19.517  0.00  0.00    +0.000 OA
BRANCH  15  16
ATOM     16  C   UNL     1       7.125   5.480  19.570  0.00  0.00    +0.000 C 
ATOM     17  C   UNL     1       7.682   6.402  18.500  0.00  0.00    +0.000 C 
ENDBRANCH  15  16
ENDBRANCH  13  15
ENDBRANCH   7  13
TORSDOF 6
ENDMDL
MODEL 3
REMARK VINA RESULT:      -6.1      1.347      1.949
REMARK  Name = 
REMARK  8 active torsions:
REMARK  status: ('A' for Active; 'I' for Inactive)
REMARK    1  A    between atoms: C_7  and  C_8
REMARK    2  A    between atoms: C_7  and  C_13
REMARK    3  A    between atoms: C_8  and  O_10
REMARK    4  A    between atoms: O_10  and  C_11
REMARK    5  A    between atoms: C_11  and  C_12
REMARK    6  A    between atoms: C_13  and  O_15
REMARK    7  A    between atoms: O_15  and  C_16
REMARK    8  A    between atoms: C_16  and  C_17
REMARK                            x       y       z     vdW  Elec       q    Type
REMARK                         _______ _______ _______ _____ _____    ______ ____
ROOT
ATOM      1  C   UNL     1       5.058   4.281  15.886  0.00  0.00    +0.000 C 
ATOM      2  C   UNL     1       5.284   4.397  17.204  0.00  0.00    +0.000 C 
ATOM      3  C   UNL     1       6.652   4.552  17.736  0.00  0.00    +0.000 C 
ATOM      4  O   UNL     1       7.684   4.462  17.098  0.00  0.00    +0.000 OA
ATOM      5  O   UNL     1       6.567   4.816  19.063  0.00  0.00    +0.000 OA
ATOM      6  C   UNL     1       5.200   4.961  19.458  0.00  0.00    +0.000 C 
ATOM      7  C   UNL     1       4.326   4.394  18.354  0.00  0.00    +0.000 C 
ENDROOT
BRANCH   7   8
ATOM      8  C   UNL     1       3.142   5.315  18.182  0.00  0.00    +0.000 C 
ATOM      9  O   UNL     1       2.078   5.017  17.656  0.00  0.00    +0.000 OA
BRANCH   8  10
ATOM     10  O   UNL     1       3.463   6.581  18.593  0.00  0.00    +0.000 OA
BRANCH  10  11
ATOM     11  C   UNL     1       3.347   7.596  17.586  0.00  0.00    +0.000 C 
ATOM     12  C   UNL     1       2.219   8.531  17.988  0.00  0.00    +0.000 C 
ENDBRANCH  10  11
ENDBRANCH   8  10
ENDBRANCH   7   8
BRANCH   7  13
ATOM     13  C   UNL     1       3.974   2.951  18.633  0.00  0.00    +0.000 C 
ATOM     14  O   UNL     1       3.757   2.115  17.764  0.00  0.00    +0.000 OA
BRANCH  13  15
ATOM     15  O   UNL     1       3.766   2.744  19.964  0.00  0.00    +0.000 OA
BRANCH  15  16
ATOM     16  C   UNL     1       2.399   2.534  20.351  0.00  0.00    +0.000 C 
ATOM     17  C   UNL     1       2.155   3.315  21.630  0.00  0.00    +0.000 C 
ENDBRANCH  15  16
ENDBRANCH  13  15
ENDBRANCH   7  13
TORSDOF 6
ENDMDL
MODEL 4
REMARK VINA RESULT:      -6.1      1.897      4.677
REMARK  Name = 
REMARK  8 active torsions:
REMARK  status: ('A' for Active; 'I' for Inactive)
REMARK    1  A    between atoms: C_7  and  C_8
REMARK    2  A    between atoms: C_7  and  C_13
REMARK    3  A    between atoms: C_8  and  O_10
REMARK    4  A    between atoms: O_10  and  C_11
REMARK    5  A    between atoms: C_11  and  C_12
REMARK    6  A    between atoms: C_13  and  O_15
REMARK    7  A    between atoms: O_15  and  C_16
REMARK    8  A    between atoms: C_16  and  C_17
REMARK                            x       y       z     vdW  Elec       q    Type
REMARK                         _______ _______ _______ _____ _____    ______ ____
ROOT
ATOM      1  C   UNL     1       4.040   2.826  17.538  0.00  0.00    +0.000 C 
ATOM      2  C   UNL     1       3.811   4.147  17.587  0.00  0.00    +0.000 C 
ATOM      3  C   UNL     1       2.440   4.683  17.701  0.00  0.00    +0.000 C 
ATOM      4  O   UNL     1       1.411   4.039  17.629  0.00  0.00    +0.000 OA
ATOM      5  O   UNL     1       2.520   6.021  17.901  0.00  0.00    +0.000 OA
ATOM      6  C   UNL     1       3.884   6.426  18.044  0.00  0.00    +0.000 C 
ATOM      7  C   UNL     1       4.766   5.298  17.540  0.00  0.00    +0.000 C 
ENDROOT
BRANCH   7   8
ATOM      8  C   UNL     1       5.940   5.173  18.483  0.00  0.00    +0.000 C 
ATOM      9  O   UNL     1       5.871   4.894  19.672  0.00  0.00    +0.000 OA
BRANCH   8  10
ATOM     10  O   UNL     1       7.098   5.534  17.848  0.00  0.00    +0.000 OA
BRANCH  10  11
ATOM     11  C   UNL     1       7.844   6.578  18.490  0.00  0.00    +0.000 C 
ATOM     12  C   UNL     1       7.752   7.824  17.624  0.00  0.00    +0.000 C 
ENDBRANCH  10  11
ENDBRANCH   8  10
ENDBRANCH   7   8
BRANCH   7  13
ATOM     13  C   UNL     1       5.136   5.509  16.090  0.00  0.00    +0.000 C 
ATOM     14  O   UNL     1       5.164   6.602  15.539  0.00  0.00    +0.000 OA
BRANCH  13  15
ATOM     15  O   UNL     1       5.270   4.319  15.439  0.00  0.00    +0.000 OA
BRANCH  15  16
ATOM     16  C   UNL     1       6.468   4.171  14.661  0.00  0.00    +0.000 C 
ATOM     17  C   UNL     1       6.063   3.741  13.263  0.00  0.00    +0.000 C 
ENDBRANCH  15  16
ENDBRANCH  13  15
ENDBRANCH   7  13
TORSDOF 6
ENDMDL
MODEL 5
REMARK VINA RESULT:      -6.1      0.751      1.092
REMARK  Name = 
REMARK  8 active torsions:
REMARK  status: ('A' for Active; 'I' for Inactive)
REMARK    1  A    between atoms: C_7  and  C_8
REMARK    2  A    between atoms: C_7  and  C_13
REMARK    3  A    between atoms: C_8  and  O_10
REMARK    4  A    between atoms: O_10  and  C_11
REMARK    5  A    between atoms: C_11  and  C_12
REMARK    6  A    between atoms: C_13  and  O_15
REMARK    7  A    between atoms: O_15  and  C_16
REMARK    8  A    between atoms: C_16  and  C_17
REMARK                            x       y       z     vdW  Elec       q    Type
REMARK                         _______ _______ _______ _____ _____    ______ ____
ROOT
ATOM      1  C   UNL     1       5.585   5.343  15.434  0.00  0.00    +0.000 C 
ATOM      2  C   UNL     1       5.666   5.041  16.739  0.00  0.00    +0.000 C 
ATOM      3  C   UNL     1       6.946   4.628  17.350  0.00  0.00    +0.000 C 
ATOM      4  O   UNL     1       7.980   4.392  16.757  0.00  0.00    +0.000 OA
ATOM      5  O   UNL     1       6.773   4.555  18.693  0.00  0.00    +0.000 OA
ATOM      6  C   UNL     1       5.465   5.006  19.056  0.00  0.00    +0.000 C 
ATOM      7  C   UNL     1       4.611   5.037  17.800  0.00  0.00    +0.000 C 
ENDROOT
BRANCH   7   8
ATOM      8  C   UNL     1       3.767   6.289  17.846  0.00  0.00    +0.000 C 
ATOM      9  O   UNL     1       4.143   7.412  17.539  0.00  0.00    +0.000 OA
BRANCH   8  10
ATOM     10  O   UNL     1       2.544   6.016  18.396  0.00  0.00    +0.000 OA
BRANCH  10  11
ATOM     11  C   UNL     1       2.314   6.595  19.688  0.00  0.00    +0.000 C 
ATOM     12  C   UNL     1       1.860   5.490  20.627  0.00  0.00    +0.000 C 
ENDBRANCH  10  11
ENDBRANCH   8  10
ENDBRANCH   7   8
BRANCH   7  13
ATOM     13  C   UNL     1       3.832   3.751  17.645  0.00  0.00    +0.000 C 
ATOM     14  O   UNL     1       3.133   3.483  16.676  0.00  0.00    +0.000 OA
BRANCH  13  15
ATOM     15  O   UNL     1       3.877   3.009  18.787  0.00  0.00    +0.000 OA
BRANCH  15  16
ATOM     16  C   UNL     1       3.160   1.765  18.745  0.00  0.00    +0.000 C 
ATOM     17  C   UNL     1       1.799   1.993  19.377  0.00  0.00    +0.000 C 
ENDBRANCH  15  16
ENDBRANCH  13  15
ENDBRANCH   7  13
TORSDOF 6
ENDMDL
MODEL 6
REMARK VINA RESULT:      -6.1      1.721      4.270
REMARK  Name = 
REMARK  8 active torsions:
REMARK  status: ('A' for Active; 'I' for Inactive)
REMARK    1  A    between atoms: C_7  and  C_8
REMARK    2  A    between atoms: C_7  and  C_13
REMARK    3  A    between atoms: C_8  and  O_10
REMARK    4  A    between atoms: O_10  and  C_11
REMARK    5  A    between atoms: C_11  and  C_12
REMARK    6  A    between atoms: C_13  and  O_15
REMARK    7  A    between atoms: O_15  and  C_16
REMARK    8  A    between atoms: C_16  and  C_17
REMARK                            x       y       z     vdW  Elec       q    Type
REMARK                         _______ _______ _______ _____ _____    ______ ____
ROOT
ATOM      1  C   UNL     1       2.893   5.875  18.815  0.00  0.00    +0.000 C 
ATOM      2  C   UNL     1       3.083   4.637  18.335  0.00  0.00    +0.000 C 
ATOM      3  C   UNL     1       2.037   3.952  17.548  0.00  0.00    +0.000 C 
ATOM      4  O   UNL     1       0.901   4.347  17.369  0.00  0.00    +0.000 OA
ATOM      5  O   UNL     1       2.559   2.802  17.055  0.00  0.00    +0.000 OA
ATOM      6  C   UNL     1       3.951   2.708  17.368  0.00  0.00    +0.000 C 
ATOM      7  C   UNL     1       4.259   3.720  18.457  0.00  0.00    +0.000 C 
ENDROOT
BRANCH   7   8
ATOM      8  C   UNL     1       5.587   4.362  18.129  0.00  0.00    +0.000 C 
ATOM      9  O   UNL     1       6.497   4.560  18.923  0.00  0.00    +0.000 OA
BRANCH   8  10
ATOM     10  O   UNL     1       5.591   4.806  16.834  0.00  0.00    +0.000 OA
BRANCH  10  11
ATOM     11  C   UNL     1       6.797   4.540  16.103  0.00  0.00    +0.000 C 
ATOM     12  C   UNL     1       6.411   4.091  14.704  0.00  0.00    +0.000 C 
ENDBRANCH  10  11
ENDBRANCH   8  10
ENDBRANCH   7   8
BRANCH   7  13
ATOM     13  C   UNL     1       4.183   3.081  19.825  0.00  0.00    +0.000 C 
ATOM     14  O   UNL     1       4.765   2.048  20.134  0.00  0.00    +0.000 OA
BRANCH  13  15
ATOM     15  O   UNL     1       3.261   3.706  20.609  0.00  0.00    +0.000 OA
BRANCH  15  16
ATOM     16  C   UNL     1       2.485   2.845  21.457  0.00  0.00    +0.000 C 
ATOM     17  C   UNL     1       1.045   2.901  20.981  0.00  0.00    +0.000 C 
ENDBRANCH  15  16
ENDBRANCH  13  15
ENDBRANCH   7  13
TORSDOF 6
ENDMDL
MODEL 7
REMARK VINA RESULT:      -6.0      1.726      3.852
REMARK  Name = 
REMARK  8 active torsions:
REMARK  status: ('A' for Active; 'I' for Inactive)
REMARK    1  A    between atoms: C_7  and  C_8
REMARK    2  A    between atoms: C_7  and  C_13
REMARK    3  A    between atoms: C_8  and  O_10
REMARK    4  A    between atoms: O_10  and  C_11
REMARK    5  A    between atoms: C_11  and  C_12
REMARK    6  A    between atoms: C_13  and  O_15
REMARK    7  A    between atoms: O_15  and  C_16
REMARK    8  A    between atoms: C_16  and  C_17
REMARK                            x       y       z     vdW  Elec       q    Type
REMARK                         _______ _______ _______ _____ _____    ______ ____
ROOT
ATOM      1  C   UNL     1       6.376   5.401  19.157  0.00  0.00    +0.000 C 
ATOM      2  C   UNL     1       5.618   4.725  18.280  0.00  0.00    +0.000 C 
ATOM      3  C   UNL     1       4.838   3.542  18.696  0.00  0.00    +0.000 C 
ATOM      4  O   UNL     1       4.894   2.991  19.779  0.00  0.00    +0.000 OA
ATOM      5  O   UNL     1       4.044   3.169  17.662  0.00  0.00    +0.000 OA
ATOM      6  C   UNL     1       4.152   4.104  16.585  0.00  0.00    +0.000 C 
ATOM      7  C   UNL     1       5.389   4.954  16.819  0.00  0.00    +0.000 C 
ENDROOT
BRANCH   7   8
ATOM      8  C   UNL     1       5.045   6.380  16.458  0.00  0.00    +0.000 C 
ATOM      9  O   UNL     1       5.154   6.878  15.346  0.00  0.00    +0.000 OA
BRANCH   8  10
ATOM     10  O   UNL     1       4.700   7.083  17.581  0.00  0.00    +0.000 OA
BRANCH  10  11
ATOM     11  C   UNL     1       3.318   7.459  17.663  0.00  0.00    +0.000 C 
ATOM     12  C   UNL     1       2.745   6.871  18.942  0.00  0.00    +0.000 C 
ENDBRANCH  10  11
ENDBRANCH   8  10
ENDBRANCH   7   8
BRANCH   7  13
ATOM     13  C   UNL     1       6.582   4.383  16.088  0.00  0.00    +0.000 C 
ATOM     14  O   UNL     1       7.747   4.645  16.363  0.00  0.00    +0.000 OA
BRANCH  13  15
ATOM     15  O   UNL     1       6.194   3.678  14.989  0.00  0.00    +0.000 OA
BRANCH  15  16
ATOM     16  C   UNL     1       6.498   4.287  13.724  0.00  0.00    +0.000 C 
ATOM     17  C   UNL     1       6.022   3.348  12.631  0.00  0.00    +0.000 C 
ENDBRANCH  15  16
ENDBRANCH  13  15
ENDBRANCH   7  13
TORSDOF 6
ENDMDL
MODEL 8
REMARK VINA RESULT:      -6.0      1.774      4.901
REMARK  Name = 
REMARK  8 active torsions:
REMARK  status: ('A' for Active; 'I' for Inactive)
REMARK    1  A    between atoms: C_7  and  C_8
REMARK    2  A    between atoms: C_7  and  C_13
REMARK    3  A    between atoms: C_8  and  O_10
REMARK    4  A    between atoms: O_10  and  C_11
REMARK    5  A    between atoms: C_11  and  C_12
REMARK    6  A    between atoms: C_13  and  O_15
REMARK    7  A    between atoms: O_15  and  C_16
REMARK    8  A    between atoms: C_16  and  C_17
REMARK                            x       y       z     vdW  Elec       q    Type
REMARK                         _______ _______ _______ _____ _____    ______ ____
ROOT
ATOM      1  C   UNL     1       1.361   4.372  19.791  0.00  0.00    +0.000 C 
ATOM      2  C   UNL     1       2.521   3.711  19.930  0.00  0.00    +0.000 C 
ATOM      3  C   UNL     1       2.768   2.835  21.093  0.00  0.00    +0.000 C 
ATOM      4  O   UNL     1       2.053   2.722  22.070  0.00  0.00    +0.000 OA
ATOM      5  O   UNL     1       3.933   2.172  20.888  0.00  0.00    +0.000 OA
ATOM      6  C   UNL     1       4.452   2.462  19.587  0.00  0.00    +0.000 C 
ATOM      7  C   UNL     1       3.734   3.689  19.054  0.00  0.00    +0.000 C 
ENDROOT
BRANCH   7   8
ATOM      8  C   UNL     1       3.442   3.455  17.590  0.00  0.00    +0.000 C 
ATOM      9  O   UNL     1       2.332   3.297  17.102  0.00  0.00    +0.000 OA
BRANCH   8  10
ATOM     10  O   UNL     1       4.611   3.326  16.890  0.00  0.00    +0.000 OA
BRANCH  10  11
ATOM     11  C   UNL     1       4.815   4.302  15.859  0.00  0.00    +0.000 C 
ATOM     12  C   UNL     1       5.999   3.858  15.016  0.00  0.00    +0.000 C 
ENDBRANCH  10  11
ENDBRANCH   8  10
ENDBRANCH   7   8
BRANCH   7  13
ATOM     13  C   UNL     1       4.519   4.945  19.353  0.00  0.00    +0.000 C 
ATOM     14  O   UNL     1       4.107   6.080  19.144  0.00  0.00    +0.000 OA
BRANCH  13  15
ATOM     15  O   UNL     1       5.796   4.650  19.725  0.00  0.00    +0.000 OA
BRANCH  15  16
ATOM     16  C   UNL     1       6.797   5.588  19.300  0.00  0.00    +0.000 C 
ATOM     17  C   UNL     1       7.551   4.967  18.138  0.00  0.00    +0.000 C 
ENDBRANCH  15  16
ENDBRANCH  13  15
ENDBRANCH   7  13
TORSDOF 6
ENDMDL
MODEL 9
REMARK VINA RESULT:      -5.9      1.763      4.033
REMARK  Name = 
REMARK  8 active torsions:
REMARK  status: ('A' for Active; 'I' for Inactive)
REMARK    1  A    between atoms: C_7  and  C_8
REMARK    2  A    between atoms: C_7  and  C_13
REMARK    3  A    between atoms: C_8  and  O_10
REMARK    4  A    between atoms: O_10  and  C_11
REMARK    5  A    between atoms: C_11  and  C_12
REMARK    6  A    between atoms: C_13  and  O_15
REMARK    7  A    between atoms: O_15  and  C_16
REMARK    8  A    between atoms: C_16  and  C_17
REMARK                            x       y       z     vdW  Elec       q    Type
REMARK                         _______ _______ _______ _____ _____    ______ ____
ROOT
ATOM      1  C   UNL     1       2.643   5.952  19.333  0.00  0.00    +0.000 C 
ATOM      2  C   UNL     1       3.094   4.882  18.662  0.00  0.00    +0.000 C 
ATOM      3  C   UNL     1       2.287   4.248  17.600  0.00  0.00    +0.000 C 
ATOM      4  O   UNL     1       1.135   4.517  17.319  0.00  0.00    +0.000 OA
ATOM      5  O   UNL     1       3.050   3.311  16.985  0.00  0.00    +0.000 OA
ATOM      6  C   UNL     1       4.386   3.339  17.495  0.00  0.00    +0.000 C 
ATOM      7  C   UNL     1       4.379   4.126  18.794  0.00  0.00    +0.000 C 
ENDROOT
BRANCH   7   8
ATOM      8  C   UNL     1       5.615   4.995  18.814  0.00  0.00    +0.000 C 
ATOM      9  O   UNL     1       6.359   5.151  19.772  0.00  0.00    +0.000 OA
BRANCH   8  10
ATOM     10  O   UNL     1       5.726   5.687  17.638  0.00  0.00    +0.000 OA
BRANCH  10  11
ATOM     11  C   UNL     1       7.069   5.899  17.181  0.00  0.00    +0.000 C 
ATOM     12  C   UNL     1       7.457   7.332  17.508  0.00  0.00    +0.000 C 
ENDBRANCH  10  11
ENDBRANCH   8  10
ENDBRANCH   7   8
BRANCH   7  13
ATOM     13  C   UNL     1       4.231   3.205  19.982  0.00  0.00    +0.000 C 
ATOM     14  O   UNL     1       4.743   2.095  20.060  0.00  0.00    +0.000 OA
BRANCH  13  15
ATOM     15  O   UNL     1       3.327   3.696  20.876  0.00  0.00    +0.000 OA
BRANCH  15  16
ATOM     16  C   UNL     1       2.494   2.716  21.515  0.00  0.00    +0.000 C 
ATOM     17  C   UNL     1       1.132   2.757  20.845  0.00  0.00    +0.000 C 
ENDBRANCH  15  16
ENDBRANCH  13  15
ENDBRANCH   7  13
TORSDOF 6
ENDMDL
