MODEL 1
REMARK VINA RESULT:      -8.4      0.000      0.000
REMARK  Name = 
REMARK  9 active torsions:
REMARK  status: ('A' for Active; 'I' for Inactive)
REMARK    1  A    between atoms: C_1  and  N_2
REMARK    2  A    between atoms: N_2  and  C_3
REMARK    3  A    between atoms: C_4  and  C_6
REMARK    4  A    between atoms: C_6  and  N_7
REMARK    5  A    between atoms: N_10  and  C_11
REMARK    6  A    between atoms: C_13  and  C_14
REMARK    7  A    between atoms: C_17  and  C_18
REMARK    8  A    between atoms: C_18  and  C_19
REMARK    9  A    between atoms: C_27  and  O_28
REMARK                            x       y       z     vdW  Elec       q    Type
REMARK                         _______ _______ _______ _____ _____    ______ ____
ROOT
ATOM      1  C   UNL     1       0.534  12.528  21.017  0.00  0.00    +0.000 A 
ATOM      2  N   UNL     1       1.078  11.338  20.653  0.00  0.00    +0.000 NA
ATOM      3  C   UNL     1       0.585  10.190  21.174  0.00  0.00    +0.000 A 
ATOM      4  C   UNL     1      -0.437  10.179  22.117  0.00  0.00    +0.000 A 
ATOM      5  C   UNL     1      -1.033  11.376  22.495  0.00  0.00    +0.000 A 
ATOM      6  N   UNL     1      -2.038  11.350  23.406  0.00  0.00    +0.000 NA
ATOM      7  C   UNL     1      -2.682  12.485  23.726  0.00  0.00    +0.000 A 
ATOM      8  C   UNL     1      -2.400  13.693  23.142  0.00  0.00    +0.000 A 
ATOM      9  C   UNL     1      -1.376  13.722  22.206  0.00  0.00    +0.000 A 
ATOM     10  C   UNL     1      -0.596  12.573  21.894  0.00  0.00    +0.000 A 
ENDROOT
BRANCH   1  14
ATOM     11  N   UNL     1       3.110  15.322  19.039  0.00  0.00    +0.000 NA
ATOM     12  C   UNL     1       3.435  14.718  20.341  0.00  0.00    +0.000 C 
ATOM     13  C   UNL     1       2.221  14.384  21.228  0.00  0.00    +0.000 C 
ATOM     14  N   UNL     1       1.163  13.656  20.514  0.00  0.00    +0.000 N 
ATOM     15  C   UNL     1       0.869  14.094  19.135  0.00  0.00    +0.000 C 
ATOM     16  C   UNL     1       2.163  14.412  18.351  0.00  0.00    +0.000 C 
BRANCH  11  17
ATOM     17  C   UNL     1       2.562  16.687  19.212  0.00  0.00    +0.000 C 
BRANCH  17  21
ATOM     18  C   UNL     1       0.481  18.419  16.503  0.00  0.00    +0.000 C 
ATOM     19  N   UNL     1       0.821  17.724  17.729  0.00  0.00    +0.000 N 
ATOM     20  C   UNL     1      -0.109  17.805  18.846  0.00  0.00    +0.000 C 
ATOM     21  C   UNL     1       2.142  17.307  17.873  0.00  0.00    +0.000 C 
ATOM     22  O   UNL     1       2.968  17.415  16.962  0.00  0.00    +0.000 OA
ENDBRANCH  17  21
ENDBRANCH  11  17
ENDBRANCH   1  14
BRANCH   3  23
ATOM     23  C   UNL     1       1.164   8.936  20.693  0.00  0.00    +0.000 A 
ATOM     24  N   UNL     1       1.346   7.815  21.373  0.00  0.00    +0.000 NA
ATOM     25  N   UNL     1       1.948   6.925  20.522  0.00  0.00    +0.000 NA
ATOM     26  C   UNL     1       2.100   7.552  19.370  0.00  0.00    +0.000 A 
ATOM     27  O   UNL     1       1.621   8.842  19.399  0.00  0.00    +0.000 OA
BRANCH  26  28
ATOM     28  C   UNL     1       2.808   7.088  18.153  0.00  0.00    +0.000 C 
BRANCH  28  29
ATOM     29  C   UNL     1       3.015   5.591  18.073  0.00  0.00    +0.000 A 
ATOM     30  C   UNL     1       1.928   4.739  17.819  0.00  0.00    +0.000 A 
ATOM     31  C   UNL     1       2.126   3.364  17.676  0.00  0.00    +0.000 A 
ATOM     32  C   UNL     1       3.407   2.836  17.797  0.00  0.00    +0.000 A 
ATOM     33  F   UNL     1       3.596   1.520  17.636  0.00  0.00    +0.000 F 
ATOM     34  C   UNL     1       4.492   3.657  18.075  0.00  0.00    +0.000 A 
ATOM     35  C   UNL     1       4.298   5.033  18.219  0.00  0.00    +0.000 A 
ENDBRANCH  28  29
ENDBRANCH  26  28
ENDBRANCH   3  23
BRANCH   4  36
ATOM     36  O   UNL     1      -0.913   9.014  22.687  0.00  0.00    +0.000 OA
ATOM     37  H   UNL     1      -0.519   8.871  23.569  0.00  0.00    +0.000 HD
ENDBRANCH   4  36
TORSDOF 7
ENDMDL
MODEL 2
REMARK VINA RESULT:      -8.3      4.380      7.503
REMARK  Name = 
REMARK  9 active torsions:
REMARK  status: ('A' for Active; 'I' for Inactive)
REMARK    1  A    between atoms: C_1  and  N_2
REMARK    2  A    between atoms: N_2  and  C_3
REMARK    3  A    between atoms: C_4  and  C_6
REMARK    4  A    between atoms: C_6  and  N_7
REMARK    5  A    between atoms: N_10  and  C_11
REMARK    6  A    between atoms: C_13  and  C_14
REMARK    7  A    between atoms: C_17  and  C_18
REMARK    8  A    between atoms: C_18  and  C_19
REMARK    9  A    between atoms: C_27  and  O_28
REMARK                            x       y       z     vdW  Elec       q    Type
REMARK                         _______ _______ _______ _____ _____    ______ ____
ROOT
ATOM      1  C   UNL     1       2.971   6.271  18.673  0.00  0.00    +0.000 A 
ATOM      2  N   UNL     1       4.036   6.152  17.839  0.00  0.00    +0.000 NA
ATOM      3  C   UNL     1       4.626   4.944  17.679  0.00  0.00    +0.000 A 
ATOM      4  C   UNL     1       4.214   3.815  18.377  0.00  0.00    +0.000 A 
ATOM      5  C   UNL     1       3.113   3.895  19.221  0.00  0.00    +0.000 A 
ATOM      6  N   UNL     1       2.713   2.783  19.887  0.00  0.00    +0.000 NA
ATOM      7  C   UNL     1       1.604   2.818  20.646  0.00  0.00    +0.000 A 
ATOM      8  C   UNL     1       0.812   3.931  20.758  0.00  0.00    +0.000 A 
ATOM      9  C   UNL     1       1.215   5.069  20.074  0.00  0.00    +0.000 A 
ATOM     10  C   UNL     1       2.428   5.121  19.331  0.00  0.00    +0.000 A 
ENDROOT
BRANCH   1  14
ATOM     11  N   UNL     1       0.570   9.785  19.167  0.00  0.00    +0.000 NA
ATOM     12  C   UNL     1       0.884   9.210  17.850  0.00  0.00    +0.000 C 
ATOM     13  C   UNL     1       2.247   8.500  17.754  0.00  0.00    +0.000 C 
ATOM     14  N   UNL     1       2.490   7.559  18.855  0.00  0.00    +0.000 N 
ATOM     15  C   UNL     1       2.066   7.988  20.203  0.00  0.00    +0.000 C 
ATOM     16  C   UNL     1       0.693   8.698  20.167  0.00  0.00    +0.000 C 
BRANCH  11  17
ATOM     17  C   UNL     1       1.456  10.934  19.466  0.00  0.00    +0.000 C 
BRANCH  17  21
ATOM     18  C   UNL     1       0.539  14.604  18.861  0.00  0.00    +0.000 C 
ATOM     19  N   UNL     1       1.328  13.392  18.965  0.00  0.00    +0.000 N 
ATOM     20  C   UNL     1       2.589  13.329  18.241  0.00  0.00    +0.000 C 
ATOM     21  C   UNL     1       0.687  12.262  19.468  0.00  0.00    +0.000 C 
ATOM     22  O   UNL     1      -0.463  12.304  19.915  0.00  0.00    +0.000 OA
ENDBRANCH  17  21
ENDBRANCH  11  17
ENDBRANCH   1  14
BRANCH   3  23
ATOM     23  C   UNL     1       5.724   4.861  16.716  0.00  0.00    +0.000 A 
ATOM     24  N   UNL     1       7.014   4.710  16.971  0.00  0.00    +0.000 NA
ATOM     25  N   UNL     1       7.663   4.720  15.764  0.00  0.00    +0.000 NA
ATOM     26  C   UNL     1       6.734   4.874  14.840  0.00  0.00    +0.000 A 
ATOM     27  O   UNL     1       5.467   4.971  15.370  0.00  0.00    +0.000 OA
BRANCH  26  28
ATOM     28  C   UNL     1       6.907   5.075  13.381  0.00  0.00    +0.000 C 
BRANCH  28  29
ATOM     29  C   UNL     1       6.633   3.851  12.536  0.00  0.00    +0.000 A 
ATOM     30  C   UNL     1       7.691   3.169  11.914  0.00  0.00    +0.000 A 
ATOM     31  C   UNL     1       7.450   1.999  11.191  0.00  0.00    +0.000 A 
ATOM     32  C   UNL     1       6.151   1.514  11.078  0.00  0.00    +0.000 A 
ATOM     33  F   UNL     1       5.927   0.379  10.403  0.00  0.00    +0.000 F 
ATOM     34  C   UNL     1       5.087   2.187  11.663  0.00  0.00    +0.000 A 
ATOM     35  C   UNL     1       5.323   3.358  12.387  0.00  0.00    +0.000 A 
ENDBRANCH  28  29
ENDBRANCH  26  28
ENDBRANCH   3  23
BRANCH   4  36
ATOM     36  O   UNL     1       4.842   2.590  18.253  0.00  0.00    +0.000 OA
ATOM     37  H   UNL     1       5.300   2.519  17.393  0.00  0.00    +0.000 HD
ENDBRANCH   4  36
TORSDOF 7
ENDMDL
MODEL 3
REMARK VINA RESULT:      -8.1      4.494      7.743
REMARK  Name = 
REMARK  9 active torsions:
REMARK  status: ('A' for Active; 'I' for Inactive)
REMARK    1  A    between atoms: C_1  and  N_2
REMARK    2  A    between atoms: N_2  and  C_3
REMARK    3  A    between atoms: C_4  and  C_6
REMARK    4  A    between atoms: C_6  and  N_7
REMARK    5  A    between atoms: N_10  and  C_11
REMARK    6  A    between atoms: C_13  and  C_14
REMARK    7  A    between atoms: C_17  and  C_18
REMARK    8  A    between atoms: C_18  and  C_19
REMARK    9  A    between atoms: C_27  and  O_28
REMARK                            x       y       z     vdW  Elec       q    Type
REMARK                         _______ _______ _______ _____ _____    ______ ____
ROOT
ATOM      1  C   UNL     1       2.838   5.931  18.820  0.00  0.00    +0.000 A 
ATOM      2  N   UNL     1       3.877   5.891  17.946  0.00  0.00    +0.000 NA
ATOM      3  C   UNL     1       4.716   4.829  17.954  0.00  0.00    +0.000 A 
ATOM      4  C   UNL     1       4.587   3.785  18.864  0.00  0.00    +0.000 A 
ATOM      5  C   UNL     1       3.522   3.782  19.757  0.00  0.00    +0.000 A 
ATOM      6  N   UNL     1       3.400   2.751  20.630  0.00  0.00    +0.000 NA
ATOM      7  C   UNL     1       2.336   2.686  21.448  0.00  0.00    +0.000 A 
ATOM      8  C   UNL     1       1.320   3.606  21.422  0.00  0.00    +0.000 A 
ATOM      9  C   UNL     1       1.438   4.659  20.526  0.00  0.00    +0.000 A 
ATOM     10  C   UNL     1       2.585   4.832  19.702  0.00  0.00    +0.000 A 
ENDROOT
BRANCH   1  14
ATOM     11  N   UNL     1       1.425   9.969  19.050  0.00  0.00    +0.000 NA
ATOM     12  C   UNL     1       1.582   9.108  20.233  0.00  0.00    +0.000 C 
ATOM     13  C   UNL     1       1.360   7.605  19.982  0.00  0.00    +0.000 C 
ATOM     14  N   UNL     1       2.089   7.098  18.812  0.00  0.00    +0.000 N 
ATOM     15  C   UNL     1       2.118   7.967  17.618  0.00  0.00    +0.000 C 
ATOM     16  C   UNL     1       2.332   9.450  17.999  0.00  0.00    +0.000 C 
BRANCH  11  17
ATOM     17  C   UNL     1       0.011  10.009  18.611  0.00  0.00    +0.000 C 
BRANCH  17  21
ATOM     18  C   UNL     1      -2.828  12.375  19.620  0.00  0.00    +0.000 C 
ATOM     19  N   UNL     1      -2.072  11.389  18.874  0.00  0.00    +0.000 N 
ATOM     20  C   UNL     1      -2.798  10.496  17.983  0.00  0.00    +0.000 C 
ATOM     21  C   UNL     1      -0.768  11.139  19.297  0.00  0.00    +0.000 C 
ATOM     22  O   UNL     1      -0.230  11.801  20.190  0.00  0.00    +0.000 OA
ENDBRANCH  17  21
ENDBRANCH  11  17
ENDBRANCH   1  14
BRANCH   3  23
ATOM     23  C   UNL     1       5.775   4.807  16.945  0.00  0.00    +0.000 A 
ATOM     24  N   UNL     1       7.076   4.670  17.142  0.00  0.00    +0.000 NA
ATOM     25  N   UNL     1       7.675   4.743  15.910  0.00  0.00    +0.000 NA
ATOM     26  C   UNL     1       6.706   4.919  15.032  0.00  0.00    +0.000 A 
ATOM     27  O   UNL     1       5.461   4.969  15.617  0.00  0.00    +0.000 OA
BRANCH  26  28
ATOM     28  C   UNL     1       6.816   5.186  13.578  0.00  0.00    +0.000 C 
BRANCH  28  29
ATOM     29  C   UNL     1       6.571   3.982  12.694  0.00  0.00    +0.000 A 
ATOM     30  C   UNL     1       7.650   3.318  12.089  0.00  0.00    +0.000 A 
ATOM     31  C   UNL     1       7.434   2.166  11.329  0.00  0.00    +0.000 A 
ATOM     32  C   UNL     1       6.141   1.682  11.162  0.00  0.00    +0.000 A 
ATOM     33  F   UNL     1       5.941   0.565  10.452  0.00  0.00    +0.000 F 
ATOM     34  C   UNL     1       5.057   2.339  11.730  0.00  0.00    +0.000 A 
ATOM     35  C   UNL     1       5.268   3.492  12.490  0.00  0.00    +0.000 A 
ENDBRANCH  28  29
ENDBRANCH  26  28
ENDBRANCH   3  23
BRANCH   4  36
ATOM     36  O   UNL     1       5.467   2.721  18.908  0.00  0.00    +0.000 OA
ATOM     37  H   UNL     1       6.217   2.913  19.504  0.00  0.00    +0.000 HD
ENDBRANCH   4  36
TORSDOF 7
ENDMDL
MODEL 4
REMARK VINA RESULT:      -8.1      4.257      7.600
REMARK  Name = 
REMARK  9 active torsions:
REMARK  status: ('A' for Active; 'I' for Inactive)
REMARK    1  A    between atoms: C_1  and  N_2
REMARK    2  A    between atoms: N_2  and  C_3
REMARK    3  A    between atoms: C_4  and  C_6
REMARK    4  A    between atoms: C_6  and  N_7
REMARK    5  A    between atoms: N_10  and  C_11
REMARK    6  A    between atoms: C_13  and  C_14
REMARK    7  A    between atoms: C_17  and  C_18
REMARK    8  A    between atoms: C_18  and  C_19
REMARK    9  A    between atoms: C_27  and  O_28
REMARK                            x       y       z     vdW  Elec       q    Type
REMARK                         _______ _______ _______ _____ _____    ______ ____
ROOT
ATOM      1  C   UNL     1       2.791   5.735  19.201  0.00  0.00    +0.000 A 
ATOM      2  N   UNL     1       3.920   5.724  18.448  0.00  0.00    +0.000 NA
ATOM      3  C   UNL     1       4.748   4.654  18.500  0.00  0.00    +0.000 A 
ATOM      4  C   UNL     1       4.514   3.571  19.340  0.00  0.00    +0.000 A 
ATOM      5  C   UNL     1       3.356   3.538  20.108  0.00  0.00    +0.000 A 
ATOM      6  N   UNL     1       3.132   2.470  20.914  0.00  0.00    +0.000 NA
ATOM      7  C   UNL     1       1.983   2.379  21.604  0.00  0.00    +0.000 A 
ATOM      8  C   UNL     1       0.981   3.310  21.509  0.00  0.00    +0.000 A 
ATOM      9  C   UNL     1       1.204   4.401  20.682  0.00  0.00    +0.000 A 
ATOM     10  C   UNL     1       2.436   4.600  19.998  0.00  0.00    +0.000 A 
ENDROOT
BRANCH   1  14
ATOM     11  N   UNL     1       1.441   9.801  19.190  0.00  0.00    +0.000 NA
ATOM     12  C   UNL     1       1.732   9.058  20.427  0.00  0.00    +0.000 C 
ATOM     13  C   UNL     1       1.472   7.542  20.356  0.00  0.00    +0.000 C 
ATOM     14  N   UNL     1       2.054   6.909  19.165  0.00  0.00    +0.000 N 
ATOM     15  C   UNL     1       1.946   7.654  17.895  0.00  0.00    +0.000 C 
ATOM     16  C   UNL     1       2.213   9.163  18.097  0.00  0.00    +0.000 C 
BRANCH  11  17
ATOM     17  C   UNL     1      -0.015   9.823  18.918  0.00  0.00    +0.000 C 
BRANCH  17  21
ATOM     18  C   UNL     1      -2.570  12.508  19.888  0.00  0.00    +0.000 C 
ATOM     19  N   UNL     1      -1.852  11.527  19.097  0.00  0.00    +0.000 N 
ATOM     20  C   UNL     1      -2.519  10.957  17.937  0.00  0.00    +0.000 C 
ATOM     21  C   UNL     1      -0.720  10.956  19.676  0.00  0.00    +0.000 C 
ATOM     22  O   UNL     1      -0.272  11.340  20.760  0.00  0.00    +0.000 OA
ENDBRANCH  17  21
ENDBRANCH  11  17
ENDBRANCH   1  14
BRANCH   3  23
ATOM     23  C   UNL     1       5.913   4.667  17.614  0.00  0.00    +0.000 A 
ATOM     24  N   UNL     1       7.185   4.533  17.950  0.00  0.00    +0.000 NA
ATOM     25  N   UNL     1       7.916   4.644  16.795  0.00  0.00    +0.000 NA
ATOM     26  C   UNL     1       7.049   4.839  15.820  0.00  0.00    +0.000 A 
ATOM     27  O   UNL     1       5.746   4.864  16.264  0.00  0.00    +0.000 OA
BRANCH  26  28
ATOM     28  C   UNL     1       7.317   5.146  14.395  0.00  0.00    +0.000 C 
BRANCH  28  29
ATOM     29  C   UNL     1       6.622   4.232  13.409  0.00  0.00    +0.000 A 
ATOM     30  C   UNL     1       5.225   4.093  13.437  0.00  0.00    +0.000 A 
ATOM     31  C   UNL     1       4.574   3.305  12.485  0.00  0.00    +0.000 A 
ATOM     32  C   UNL     1       5.317   2.647  11.511  0.00  0.00    +0.000 A 
ATOM     33  F   UNL     1       4.688   1.911  10.586  0.00  0.00    +0.000 F 
ATOM     34  C   UNL     1       6.701   2.749  11.481  0.00  0.00    +0.000 A 
ATOM     35  C   UNL     1       7.357   3.536  12.432  0.00  0.00    +0.000 A 
ENDBRANCH  28  29
ENDBRANCH  26  28
ENDBRANCH   3  23
BRANCH   4  36
ATOM     36  O   UNL     1       5.378   2.497  19.431  0.00  0.00    +0.000 OA
ATOM     37  H   UNL     1       5.759   2.432  20.328  0.00  0.00    +0.000 HD
ENDBRANCH   4  36
TORSDOF 7
ENDMDL
MODEL 5
REMARK VINA RESULT:      -8.1      1.452      2.300
REMARK  Name = 
REMARK  9 active torsions:
REMARK  status: ('A' for Active; 'I' for Inactive)
REMARK    1  A    between atoms: C_1  and  N_2
REMARK    2  A    between atoms: N_2  and  C_3
REMARK    3  A    between atoms: C_4  and  C_6
REMARK    4  A    between atoms: C_6  and  N_7
REMARK    5  A    between atoms: N_10  and  C_11
REMARK    6  A    between atoms: C_13  and  C_14
REMARK    7  A    between atoms: C_17  and  C_18
REMARK    8  A    between atoms: C_18  and  C_19
REMARK    9  A    between atoms: C_27  and  O_28
REMARK                            x       y       z     vdW  Elec       q    Type
REMARK                         _______ _______ _______ _____ _____    ______ ____
ROOT
ATOM      1  C   UNL     1       0.852  12.167  20.721  0.00  0.00    +0.000 A 
ATOM      2  N   UNL     1       1.305  10.919  20.433  0.00  0.00    +0.000 NA
ATOM      3  C   UNL     1       0.747   9.848  21.044  0.00  0.00    +0.000 A 
ATOM      4  C   UNL     1      -0.251   9.974  22.003  0.00  0.00    +0.000 A 
ATOM      5  C   UNL     1      -0.756  11.233  22.305  0.00  0.00    +0.000 A 
ATOM      6  N   UNL     1      -1.740  11.342  23.234  0.00  0.00    +0.000 NA
ATOM      7  C   UNL     1      -2.297  12.539  23.484  0.00  0.00    +0.000 A 
ATOM      8  C   UNL     1      -1.947  13.680  22.810  0.00  0.00    +0.000 A 
ATOM      9  C   UNL     1      -0.945  13.572  21.856  0.00  0.00    +0.000 A 
ATOM     10  C   UNL     1      -0.253  12.352  21.613  0.00  0.00    +0.000 A 
ENDROOT
BRANCH   1  14
ATOM     11  N   UNL     1       2.434  15.968  19.537  0.00  0.00    +0.000 NA
ATOM     12  C   UNL     1       1.161  15.436  19.024  0.00  0.00    +0.000 C 
ATOM     13  C   UNL     1       1.090  13.902  18.913  0.00  0.00    +0.000 C 
ATOM     14  N   UNL     1       1.544  13.211  20.127  0.00  0.00    +0.000 N 
ATOM     15  C   UNL     1       2.733  13.767  20.804  0.00  0.00    +0.000 C 
ATOM     16  C   UNL     1       2.696  15.312  20.840  0.00  0.00    +0.000 C 
BRANCH  11  17
ATOM     17  C   UNL     1       3.528  15.750  18.562  0.00  0.00    +0.000 C 
BRANCH  17  21
ATOM     18  C   UNL     1       7.146  16.988  18.791  0.00  0.00    +0.000 C 
ATOM     19  N   UNL     1       6.015  16.100  18.606  0.00  0.00    +0.000 N 
ATOM     20  C   UNL     1       6.219  14.875  17.849  0.00  0.00    +0.000 C 
ATOM     21  C   UNL     1       4.751  16.623  18.873  0.00  0.00    +0.000 C 
ATOM     22  O   UNL     1       4.595  17.749  19.353  0.00  0.00    +0.000 OA
ENDBRANCH  17  21
ENDBRANCH  11  17
ENDBRANCH   1  14
BRANCH   3  23
ATOM     23  C   UNL     1       1.228   8.526  20.644  0.00  0.00    +0.000 A 
ATOM     24  N   UNL     1       1.154   7.396  21.329  0.00  0.00    +0.000 NA
ATOM     25  N   UNL     1       1.763   6.430  20.571  0.00  0.00    +0.000 NA
ATOM     26  C   UNL     1       2.173   7.023  19.466  0.00  0.00    +0.000 A 
ATOM     27  O   UNL     1       1.867   8.364  19.437  0.00  0.00    +0.000 OA
BRANCH  26  28
ATOM     28  C   UNL     1       2.998   6.462  18.369  0.00  0.00    +0.000 C 
BRANCH  28  29
ATOM     29  C   UNL     1       3.158   4.957  18.403  0.00  0.00    +0.000 A 
ATOM     30  C   UNL     1       2.308   4.139  17.641  0.00  0.00    +0.000 A 
ATOM     31  C   UNL     1       2.496   2.755  17.616  0.00  0.00    +0.000 A 
ATOM     32  C   UNL     1       3.525   2.186  18.358  0.00  0.00    +0.000 A 
ATOM     33  F   UNL     1       3.717   0.861  18.313  0.00  0.00    +0.000 F 
ATOM     34  C   UNL     1       4.360   2.974  19.139  0.00  0.00    +0.000 A 
ATOM     35  C   UNL     1       4.175   4.358  19.168  0.00  0.00    +0.000 A 
ENDBRANCH  28  29
ENDBRANCH  26  28
ENDBRANCH   3  23
BRANCH   4  36
ATOM     36  O   UNL     1      -0.793   8.888  22.664  0.00  0.00    +0.000 OA
ATOM     37  H   UNL     1      -0.138   8.169  22.747  0.00  0.00    +0.000 HD
ENDBRANCH   4  36
TORSDOF 7
ENDMDL
MODEL 6
REMARK VINA RESULT:      -8.0      3.930      7.337
REMARK  Name = 
REMARK  9 active torsions:
REMARK  status: ('A' for Active; 'I' for Inactive)
REMARK    1  A    between atoms: C_1  and  N_2
REMARK    2  A    between atoms: N_2  and  C_3
REMARK    3  A    between atoms: C_4  and  C_6
REMARK    4  A    between atoms: C_6  and  N_7
REMARK    5  A    between atoms: N_10  and  C_11
REMARK    6  A    between atoms: C_13  and  C_14
REMARK    7  A    between atoms: C_17  and  C_18
REMARK    8  A    between atoms: C_18  and  C_19
REMARK    9  A    between atoms: C_27  and  O_28
REMARK                            x       y       z     vdW  Elec       q    Type
REMARK                         _______ _______ _______ _____ _____    ______ ____
ROOT
ATOM      1  C   UNL     1       2.644   6.320  19.331  0.00  0.00    +0.000 A 
ATOM      2  N   UNL     1       3.748   6.551  18.574  0.00  0.00    +0.000 NA
ATOM      3  C   UNL     1       4.666   5.569  18.415  0.00  0.00    +0.000 A 
ATOM      4  C   UNL     1       4.550   4.333  19.040  0.00  0.00    +0.000 A 
ATOM      5  C   UNL     1       3.422   4.053  19.802  0.00  0.00    +0.000 A 
ATOM      6  N   UNL     1       3.315   2.838  20.396  0.00  0.00    +0.000 NA
ATOM      7  C   UNL     1       2.198   2.518  21.071  0.00  0.00    +0.000 A 
ATOM      8  C   UNL     1       1.117   3.356  21.164  0.00  0.00    +0.000 A 
ATOM      9  C   UNL     1       1.221   4.598  20.553  0.00  0.00    +0.000 A 
ATOM     10  C   UNL     1       2.412   5.030  19.904  0.00  0.00    +0.000 A 
ENDROOT
BRANCH   1  14
ATOM     11  N   UNL     1       0.945  10.212  19.899  0.00  0.00    +0.000 NA
ATOM     12  C   UNL     1       1.527   9.425  20.998  0.00  0.00    +0.000 C 
ATOM     13  C   UNL     1       1.400   7.898  20.848  0.00  0.00    +0.000 C 
ATOM     14  N   UNL     1       1.808   7.409  19.523  0.00  0.00    +0.000 N 
ATOM     15  C   UNL     1       1.399   8.221  18.360  0.00  0.00    +0.000 C 
ATOM     16  C   UNL     1       1.558   9.733  18.637  0.00  0.00    +0.000 C 
BRANCH  11  17
ATOM     17  C   UNL     1      -0.531  10.097  19.892  0.00  0.00    +0.000 C 
BRANCH  17  21
ATOM     18  C   UNL     1      -2.153  13.306  21.217  0.00  0.00    +0.000 C 
ATOM     19  N   UNL     1      -1.629  11.954  21.180  0.00  0.00    +0.000 N 
ATOM     20  C   UNL     1      -1.255  11.327  22.439  0.00  0.00    +0.000 C 
ATOM     21  C   UNL     1      -1.210  11.473  19.941  0.00  0.00    +0.000 C 
ATOM     22  O   UNL     1      -1.378  12.111  18.898  0.00  0.00    +0.000 OA
ENDBRANCH  17  21
ENDBRANCH  11  17
ENDBRANCH   1  14
BRANCH   3  23
ATOM     23  C   UNL     1       5.799   5.852  17.534  0.00  0.00    +0.000 A 
ATOM     24  N   UNL     1       6.552   6.939  17.508  0.00  0.00    +0.000 NA
ATOM     25  N   UNL     1       7.465   6.768  16.500  0.00  0.00    +0.000 NA
ATOM     26  C   UNL     1       7.219   5.586  15.968  0.00  0.00    +0.000 A 
ATOM     27  O   UNL     1       6.169   4.937  16.576  0.00  0.00    +0.000 OA
BRANCH  26  28
ATOM     28  C   UNL     1       7.832   4.969  14.767  0.00  0.00    +0.000 C 
BRANCH  28  29
ATOM     29  C   UNL     1       6.844   4.404  13.770  0.00  0.00    +0.000 A 
ATOM     30  C   UNL     1       7.273   4.014  12.492  0.00  0.00    +0.000 A 
ATOM     31  C   UNL     1       6.378   3.428  11.594  0.00  0.00    +0.000 A 
ATOM     32  C   UNL     1       5.051   3.242  11.967  0.00  0.00    +0.000 A 
ATOM     33  F   UNL     1       4.201   2.659  11.112  0.00  0.00    +0.000 F 
ATOM     34  C   UNL     1       4.599   3.645  13.217  0.00  0.00    +0.000 A 
ATOM     35  C   UNL     1       5.491   4.231  14.117  0.00  0.00    +0.000 A 
ENDBRANCH  28  29
ENDBRANCH  26  28
ENDBRANCH   3  23
BRANCH   4  36
ATOM     36  O   UNL     1       5.506   3.343  18.918  0.00  0.00    +0.000 OA
ATOM     37  H   UNL     1       5.597   3.058  17.988  0.00  0.00    +0.000 HD
ENDBRANCH   4  36
TORSDOF 7
ENDMDL
MODEL 7
REMARK VINA RESULT:      -8.0      4.364      7.500
REMARK  Name = 
REMARK  9 active torsions:
REMARK  status: ('A' for Active; 'I' for Inactive)
REMARK    1  A    between atoms: C_1  and  N_2
REMARK    2  A    between atoms: N_2  and  C_3
REMARK    3  A    between atoms: C_4  and  C_6
REMARK    4  A    between atoms: C_6  and  N_7
REMARK    5  A    between atoms: N_10  and  C_11
REMARK    6  A    between atoms: C_13  and  C_14
REMARK    7  A    between atoms: C_17  and  C_18
REMARK    8  A    between atoms: C_18  and  C_19
REMARK    9  A    between atoms: C_27  and  O_28
REMARK                            x       y       z     vdW  Elec       q    Type
REMARK                         _______ _______ _______ _____ _____    ______ ____
ROOT
ATOM      1  C   UNL     1       3.055   6.283  18.899  0.00  0.00    +0.000 A 
ATOM      2  N   UNL     1       4.087   6.149  18.026  0.00  0.00    +0.000 NA
ATOM      3  C   UNL     1       4.724   4.959  17.923  0.00  0.00    +0.000 A 
ATOM      4  C   UNL     1       4.396   3.867  18.717  0.00  0.00    +0.000 A 
ATOM      5  C   UNL     1       3.330   3.960  19.604  0.00  0.00    +0.000 A 
ATOM      6  N   UNL     1       3.011   2.882  20.364  0.00  0.00    +0.000 NA
ATOM      7  C   UNL     1       1.936   2.924  21.170  0.00  0.00    +0.000 A 
ATOM      8  C   UNL     1       1.100   4.008  21.241  0.00  0.00    +0.000 A 
ATOM      9  C   UNL     1       1.420   5.110  20.461  0.00  0.00    +0.000 A 
ATOM     10  C   UNL     1       2.595   5.160  19.660  0.00  0.00    +0.000 A 
ENDROOT
BRANCH   1  14
ATOM     11  N   UNL     1       0.521   9.729  19.134  0.00  0.00    +0.000 NA
ATOM     12  C   UNL     1       0.943   9.132  17.856  0.00  0.00    +0.000 C 
ATOM     13  C   UNL     1       2.330   8.464  17.873  0.00  0.00    +0.000 C 
ATOM     14  N   UNL     1       2.525   7.559  19.013  0.00  0.00    +0.000 N 
ATOM     15  C   UNL     1       1.995   8.006  20.317  0.00  0.00    +0.000 C 
ATOM     16  C   UNL     1       0.608   8.671  20.168  0.00  0.00    +0.000 C 
BRANCH  11  17
ATOM     17  C   UNL     1       1.349  10.913  19.461  0.00  0.00    +0.000 C 
BRANCH  17  21
ATOM     18  C   UNL     1      -0.913  13.767  20.650  0.00  0.00    +0.000 C 
ATOM     19  N   UNL     1      -0.117  12.928  19.775  0.00  0.00    +0.000 N 
ATOM     20  C   UNL     1      -0.378  12.983  18.344  0.00  0.00    +0.000 C 
ATOM     21  C   UNL     1       0.603  11.896  20.373  0.00  0.00    +0.000 C 
ATOM     22  O   UNL     1       0.662  11.761  21.599  0.00  0.00    +0.000 OA
ENDBRANCH  17  21
ENDBRANCH  11  17
ENDBRANCH   1  14
BRANCH   3  23
ATOM     23  C   UNL     1       5.782   4.854  16.917  0.00  0.00    +0.000 A 
ATOM     24  N   UNL     1       7.074   4.655  17.121  0.00  0.00    +0.000 NA
ATOM     25  N   UNL     1       7.677   4.662  15.889  0.00  0.00    +0.000 NA
ATOM     26  C   UNL     1       6.719   4.863  15.004  0.00  0.00    +0.000 A 
ATOM     27  O   UNL     1       5.478   4.994  15.584  0.00  0.00    +0.000 OA
BRANCH  26  28
ATOM     28  C   UNL     1       6.844   5.082  13.543  0.00  0.00    +0.000 C 
BRANCH  28  29
ATOM     29  C   UNL     1       6.615   3.849  12.697  0.00  0.00    +0.000 A 
ATOM     30  C   UNL     1       5.315   3.353  12.506  0.00  0.00    +0.000 A 
ATOM     31  C   UNL     1       5.093   2.257  11.670  0.00  0.00    +0.000 A 
ATOM     32  C   UNL     1       6.168   1.647  11.032  0.00  0.00    +0.000 A 
ATOM     33  F   UNL     1       5.948   0.611  10.212  0.00  0.00    +0.000 F 
ATOM     34  C   UNL     1       7.464   2.104  11.227  0.00  0.00    +0.000 A 
ATOM     35  C   UNL     1       7.691   3.200  12.063  0.00  0.00    +0.000 A 
ENDBRANCH  28  29
ENDBRANCH  26  28
ENDBRANCH   3  23
BRANCH   4  36
ATOM     36  O   UNL     1       5.073   2.664  18.648  0.00  0.00    +0.000 OA
ATOM     37  H   UNL     1       6.038   2.804  18.702  0.00  0.00    +0.000 HD
ENDBRANCH   4  36
TORSDOF 7
ENDMDL
MODEL 8
REMARK VINA RESULT:      -7.9      2.437      5.622
REMARK  Name = 
REMARK  9 active torsions:
REMARK  status: ('A' for Active; 'I' for Inactive)
REMARK    1  A    between atoms: C_1  and  N_2
REMARK    2  A    between atoms: N_2  and  C_3
REMARK    3  A    between atoms: C_4  and  C_6
REMARK    4  A    between atoms: C_6  and  N_7
REMARK    5  A    between atoms: N_10  and  C_11
REMARK    6  A    between atoms: C_13  and  C_14
REMARK    7  A    between atoms: C_17  and  C_18
REMARK    8  A    between atoms: C_18  and  C_19
REMARK    9  A    between atoms: C_27  and  O_28
REMARK                            x       y       z     vdW  Elec       q    Type
REMARK                         _______ _______ _______ _____ _____    ______ ____
ROOT
ATOM      1  C   UNL     1      -0.138  12.988  20.437  0.00  0.00    +0.000 A 
ATOM      2  N   UNL     1       0.212  11.730  20.066  0.00  0.00    +0.000 NA
ATOM      3  C   UNL     1       1.176  11.552  19.133  0.00  0.00    +0.000 A 
ATOM      4  C   UNL     1       1.798  12.617  18.492  0.00  0.00    +0.000 A 
ATOM      5  C   UNL     1       1.482  13.919  18.863  0.00  0.00    +0.000 A 
ATOM      6  N   UNL     1       2.105  14.950  18.239  0.00  0.00    +0.000 NA
ATOM      7  C   UNL     1       1.874  16.213  18.636  0.00  0.00    +0.000 A 
ATOM      8  C   UNL     1       1.051  16.525  19.687  0.00  0.00    +0.000 A 
ATOM      9  C   UNL     1       0.415  15.473  20.331  0.00  0.00    +0.000 A 
ATOM     10  C   UNL     1       0.548  14.123  19.897  0.00  0.00    +0.000 A 
ENDROOT
BRANCH   1  14
ATOM     11  N   UNL     1      -3.548  12.283  22.932  0.00  0.00    +0.000 NA
ATOM     12  C   UNL     1      -3.656  12.574  21.494  0.00  0.00    +0.000 C 
ATOM     13  C   UNL     1      -2.556  13.490  20.927  0.00  0.00    +0.000 C 
ATOM     14  N   UNL     1      -1.201  13.082  21.322  0.00  0.00    +0.000 N 
ATOM     15  C   UNL     1      -1.023  12.624  22.715  0.00  0.00    +0.000 C 
ATOM     16  C   UNL     1      -2.196  11.726  23.172  0.00  0.00    +0.000 C 
BRANCH  11  17
ATOM     17  C   UNL     1      -3.813  13.497  23.738  0.00  0.00    +0.000 C 
BRANCH  17  21
ATOM     18  C   UNL     1      -7.165  15.340  23.533  0.00  0.00    +0.000 C 
ATOM     19  N   UNL     1      -5.735  15.105  23.562  0.00  0.00    +0.000 N 
ATOM     20  C   UNL     1      -4.860  16.116  22.988  0.00  0.00    +0.000 C 
ATOM     21  C   UNL     1      -5.314  13.804  23.830  0.00  0.00    +0.000 C 
ATOM     22  O   UNL     1      -6.105  12.910  24.143  0.00  0.00    +0.000 OA
ENDBRANCH  17  21
ENDBRANCH  11  17
ENDBRANCH   1  14
BRANCH   3  23
ATOM     23  C   UNL     1       1.560  10.174  18.824  0.00  0.00    +0.000 A 
ATOM     24  N   UNL     1       1.869   9.666  17.642  0.00  0.00    +0.000 NA
ATOM     25  N   UNL     1       2.128   8.334  17.836  0.00  0.00    +0.000 NA
ATOM     26  C   UNL     1       1.964   8.104  19.125  0.00  0.00    +0.000 A 
ATOM     27  O   UNL     1       1.602   9.233  19.825  0.00  0.00    +0.000 OA
BRANCH  26  28
ATOM     28  C   UNL     1       1.998   6.807  19.843  0.00  0.00    +0.000 C 
BRANCH  28  29
ATOM     29  C   UNL     1       2.642   5.675  19.073  0.00  0.00    +0.000 A 
ATOM     30  C   UNL     1       4.002   5.380  19.255  0.00  0.00    +0.000 A 
ATOM     31  C   UNL     1       4.584   4.292  18.599  0.00  0.00    +0.000 A 
ATOM     32  C   UNL     1       3.810   3.504  17.753  0.00  0.00    +0.000 A 
ATOM     33  F   UNL     1       4.365   2.448  17.144  0.00  0.00    +0.000 F 
ATOM     34  C   UNL     1       2.469   3.793  17.539  0.00  0.00    +0.000 A 
ATOM     35  C   UNL     1       1.884   4.881  18.193  0.00  0.00    +0.000 A 
ENDBRANCH  28  29
ENDBRANCH  26  28
ENDBRANCH   3  23
BRANCH   4  36
ATOM     36  O   UNL     1       2.749  12.442  17.505  0.00  0.00    +0.000 OA
ATOM     37  H   UNL     1       3.562  12.044  17.872  0.00  0.00    +0.000 HD
ENDBRANCH   4  36
TORSDOF 7
ENDMDL
MODEL 9
REMARK VINA RESULT:      -7.8      1.330      1.638
REMARK  Name = 
REMARK  9 active torsions:
REMARK  status: ('A' for Active; 'I' for Inactive)
REMARK    1  A    between atoms: C_1  and  N_2
REMARK    2  A    between atoms: N_2  and  C_3
REMARK    3  A    between atoms: C_4  and  C_6
REMARK    4  A    between atoms: C_6  and  N_7
REMARK    5  A    between atoms: N_10  and  C_11
REMARK    6  A    between atoms: C_13  and  C_14
REMARK    7  A    between atoms: C_17  and  C_18
REMARK    8  A    between atoms: C_18  and  C_19
REMARK    9  A    between atoms: C_27  and  O_28
REMARK                            x       y       z     vdW  Elec       q    Type
REMARK                         _______ _______ _______ _____ _____    ______ ____
ROOT
ATOM      1  C   UNL     1       0.724  12.313  20.815  0.00  0.00    +0.000 A 
ATOM      2  N   UNL     1       1.267  11.147  20.379  0.00  0.00    +0.000 NA
ATOM      3  C   UNL     1       0.797   9.971  20.858  0.00  0.00    +0.000 A 
ATOM      4  C   UNL     1      -0.198   9.905  21.826  0.00  0.00    +0.000 A 
ATOM      5  C   UNL     1      -0.793  11.077  22.278  0.00  0.00    +0.000 A 
ATOM      6  N   UNL     1      -1.772  10.998  23.214  0.00  0.00    +0.000 NA
ATOM      7  C   UNL     1      -2.415  12.111  23.607  0.00  0.00    +0.000 A 
ATOM      8  C   UNL     1      -2.158  13.347  23.075  0.00  0.00    +0.000 A 
ATOM      9  C   UNL     1      -1.161  13.431  22.114  0.00  0.00    +0.000 A 
ATOM     10  C   UNL     1      -0.382  12.305  21.725  0.00  0.00    +0.000 A 
ENDROOT
BRANCH   1  14
ATOM     11  N   UNL     1       3.226  15.222  18.910  0.00  0.00    +0.000 NA
ATOM     12  C   UNL     1       3.586  14.563  20.176  0.00  0.00    +0.000 C 
ATOM     13  C   UNL     1       2.396  14.176  21.074  0.00  0.00    +0.000 C 
ATOM     14  N   UNL     1       1.330  13.470  20.351  0.00  0.00    +0.000 N 
ATOM     15  C   UNL     1       1.000  13.966  19.000  0.00  0.00    +0.000 C 
ATOM     16  C   UNL     1       2.272  14.334  18.203  0.00  0.00    +0.000 C 
BRANCH  11  17
ATOM     17  C   UNL     1       2.668  16.572  19.158  0.00  0.00    +0.000 C 
BRANCH  17  21
ATOM     18  C   UNL     1       0.520  18.403  16.568  0.00  0.00    +0.000 C 
ATOM     19  N   UNL     1       0.889  17.653  17.753  0.00  0.00    +0.000 N 
ATOM     20  C   UNL     1      -0.025  17.665  18.886  0.00  0.00    +0.000 C 
ATOM     21  C   UNL     1       2.219  17.251  17.858  0.00  0.00    +0.000 C 
ATOM     22  O   UNL     1       3.029  17.417  16.941  0.00  0.00    +0.000 OA
ENDBRANCH  17  21
ENDBRANCH  11  17
ENDBRANCH   1  14
BRANCH   3  23
ATOM     23  C   UNL     1       1.373   8.747  20.300  0.00  0.00    +0.000 A 
ATOM     24  N   UNL     1       1.571   7.593  20.917  0.00  0.00    +0.000 NA
ATOM     25  N   UNL     1       2.161   6.752  20.009  0.00  0.00    +0.000 NA
ATOM     26  C   UNL     1       2.288   7.439  18.890  0.00  0.00    +0.000 A 
ATOM     27  O   UNL     1       1.805   8.723  18.996  0.00  0.00    +0.000 OA
BRANCH  26  28
ATOM     28  C   UNL     1       2.975   7.043  17.637  0.00  0.00    +0.000 C 
BRANCH  28  29
ATOM     29  C   UNL     1       4.344   6.429  17.832  0.00  0.00    +0.000 A 
ATOM     30  C   UNL     1       4.496   5.272  18.612  0.00  0.00    +0.000 A 
ATOM     31  C   UNL     1       5.747   4.664  18.738  0.00  0.00    +0.000 A 
ATOM     32  C   UNL     1       6.850   5.216  18.095  0.00  0.00    +0.000 A 
ATOM     33  F   UNL     1       8.043   4.617  18.198  0.00  0.00    +0.000 F 
ATOM     34  C   UNL     1       6.727   6.375  17.340  0.00  0.00    +0.000 A 
ATOM     35  C   UNL     1       5.478   6.987  17.212  0.00  0.00    +0.000 A 
ENDBRANCH  28  29
ENDBRANCH  26  28
ENDBRANCH   3  23
BRANCH   4  36
ATOM     36  O   UNL     1      -0.649   8.709  22.352  0.00  0.00    +0.000 OA
ATOM     37  H   UNL     1      -1.624   8.694  22.396  0.00  0.00    +0.000 HD
ENDBRANCH   4  36
TORSDOF 7
ENDMDL
