MODEL 1
REMARK VINA RESULT:      -7.0      0.000      0.000
REMARK  Name = 
REMARK  5 active torsions:
REMARK  status: ('A' for Active; 'I' for Inactive)
REMARK    1  A    between atoms: C_1  and  O_2
REMARK    2  A    between atoms: O_2  and  C_3
REMARK    3  A    between atoms: N_5  and  C_6
REMARK    4  A    between atoms: C_11  and  C_12
REMARK    5  A    between atoms: N_21  and  C_22
REMARK                            x       y       z     vdW  Elec       q    Type
REMARK                         _______ _______ _______ _____ _____    ______ ____
ROOT
ATOM      1  C   UNL     1       0.946   9.726  19.689  0.00  0.00    +0.000 A 
ATOM      2  C   UNL     1       0.594   9.218  20.943  0.00  0.00    +0.000 A 
ATOM      3  C   UNL     1       0.993   7.938  21.319  0.00  0.00    +0.000 A 
ATOM      4  C   UNL     1       1.754   7.147  20.455  0.00  0.00    +0.000 A 
ATOM      5 CL   UNL     1       2.264   5.617  21.091  0.00  0.00    +0.000 Cl
ATOM      6  C   UNL     1       2.106   7.621  19.176  0.00  0.00    +0.000 A 
ATOM      7  C   UNL     1       1.673   8.912  18.807  0.00  0.00    +0.000 A 
ENDROOT
BRANCH   6   8
ATOM      8  C   UNL     1       2.962   6.885  18.231  0.00  0.00    +0.000 A 
ATOM      9  N   UNL     1       3.681   7.387  17.233  0.00  0.00    +0.000 NA
ATOM     10  C   UNL     1       4.464   6.339  16.785  0.00  0.00    +0.000 A 
ATOM     11  C   UNL     1       5.326   6.227  15.692  0.00  0.00    +0.000 A 
ATOM     12  C   UNL     1       6.001   5.011  15.518  0.00  0.00    +0.000 A 
ATOM     13 CL   UNL     1       6.904   4.752  14.073  0.00  0.00    +0.000 Cl
ATOM     14  C   UNL     1       5.914   3.973  16.454  0.00  0.00    +0.000 A 
ATOM     15  C   UNL     1       5.027   4.053  17.529  0.00  0.00    +0.000 A 
ATOM     16  C   UNL     1       4.265   5.221  17.586  0.00  0.00    +0.000 A 
ATOM     17  N   UNL     1       3.021   5.502  18.118  0.00  0.00    +0.000 N 
ATOM     18  C   UNL     1       1.864   4.755  17.633  0.00  0.00    +0.000 C 
ENDBRANCH   6   8
BRANCH   1  21
ATOM     19  C   UNL     1      -0.519  11.418  18.627  0.00  0.00    +0.000 C 
ATOM     20  O   UNL     1      -1.451  10.706  18.297  0.00  0.00    +0.000 OA
ATOM     21  N   UNL     1       0.626  11.035  19.282  0.00  0.00    +0.000 N 
ATOM     22  H   UNL     1       1.204  11.799  19.602  0.00  0.00    +0.000 HD
BRANCH  19  24
ATOM     23  C   UNL     1       0.790  13.335  18.692  0.00  0.00    +0.000 C 
ATOM     24  O   UNL     1      -0.495  12.766  18.442  0.00  0.00    +0.000 OA
ENDBRANCH  19  24
ENDBRANCH   1  21
TORSDOF 3
ENDMDL
MODEL 2
REMARK VINA RESULT:      -6.9      0.918      1.130
REMARK  Name = 
REMARK  5 active torsions:
REMARK  status: ('A' for Active; 'I' for Inactive)
REMARK    1  A    between atoms: C_1  and  O_2
REMARK    2  A    between atoms: O_2  and  C_3
REMARK    3  A    between atoms: N_5  and  C_6
REMARK    4  A    between atoms: C_11  and  C_12
REMARK    5  A    between atoms: N_21  and  C_22
REMARK                            x       y       z     vdW  Elec       q    Type
REMARK                         _______ _______ _______ _____ _____    ______ ____
ROOT
ATOM      1  C   UNL     1       0.947   9.763  19.752  0.00  0.00    +0.000 A 
ATOM      2  C   UNL     1       0.554   9.240  20.988  0.00  0.00    +0.000 A 
ATOM      3  C   UNL     1       0.914   7.943  21.348  0.00  0.00    +0.000 A 
ATOM      4  C   UNL     1       1.677   7.152  20.486  0.00  0.00    +0.000 A 
ATOM      5 CL   UNL     1       2.136   5.599  21.103  0.00  0.00    +0.000 Cl
ATOM      6  C   UNL     1       2.070   7.642  19.225  0.00  0.00    +0.000 A 
ATOM      7  C   UNL     1       1.675   8.950  18.872  0.00  0.00    +0.000 A 
ENDROOT
BRANCH   6   8
ATOM      8  C   UNL     1       2.930   6.905  18.286  0.00  0.00    +0.000 A 
ATOM      9  N   UNL     1       3.666   7.407  17.299  0.00  0.00    +0.000 NA
ATOM     10  C   UNL     1       4.445   6.354  16.854  0.00  0.00    +0.000 A 
ATOM     11  C   UNL     1       5.319   6.241  15.770  0.00  0.00    +0.000 A 
ATOM     12  C   UNL     1       5.986   5.021  15.597  0.00  0.00    +0.000 A 
ATOM     13 CL   UNL     1       6.903   4.762  14.161  0.00  0.00    +0.000 Cl
ATOM     14  C   UNL     1       5.879   3.978  16.526  0.00  0.00    +0.000 A 
ATOM     15  C   UNL     1       4.980   4.059  17.590  0.00  0.00    +0.000 A 
ATOM     16  C   UNL     1       4.227   5.233  17.646  0.00  0.00    +0.000 A 
ATOM     17  N   UNL     1       2.979   5.521  18.164  0.00  0.00    +0.000 N 
ATOM     18  C   UNL     1       1.821   4.788  17.661  0.00  0.00    +0.000 C 
ENDBRANCH   6   8
BRANCH   1  21
ATOM     19  C   UNL     1       1.026  12.222  20.048  0.00  0.00    +0.000 C 
ATOM     20  O   UNL     1       1.653  12.284  21.091  0.00  0.00    +0.000 OA
ATOM     21  N   UNL     1       0.666  11.087  19.364  0.00  0.00    +0.000 N 
ATOM     22  H   UNL     1       0.287  11.253  18.442  0.00  0.00    +0.000 HD
BRANCH  19  24
ATOM     23  C   UNL     1      -0.562  13.073  18.583  0.00  0.00    +0.000 C 
ATOM     24  O   UNL     1       0.623  13.313  19.342  0.00  0.00    +0.000 OA
ENDBRANCH  19  24
ENDBRANCH   1  21
TORSDOF 3
ENDMDL
MODEL 3
REMARK VINA RESULT:      -6.8      1.995      2.407
REMARK  Name = 
REMARK  5 active torsions:
REMARK  status: ('A' for Active; 'I' for Inactive)
REMARK    1  A    between atoms: C_1  and  O_2
REMARK    2  A    between atoms: O_2  and  C_3
REMARK    3  A    between atoms: N_5  and  C_6
REMARK    4  A    between atoms: C_11  and  C_12
REMARK    5  A    between atoms: N_21  and  C_22
REMARK                            x       y       z     vdW  Elec       q    Type
REMARK                         _______ _______ _______ _____ _____    ______ ____
ROOT
ATOM      1  C   UNL     1      -0.425  10.041  18.272  0.00  0.00    +0.000 A 
ATOM      2  C   UNL     1      -0.654  10.377  19.610  0.00  0.00    +0.000 A 
ATOM      3  C   UNL     1       0.109   9.796  20.620  0.00  0.00    +0.000 A 
ATOM      4  C   UNL     1       1.116   8.878  20.313  0.00  0.00    +0.000 A 
ATOM      5 CL   UNL     1       2.052   8.313  21.658  0.00  0.00    +0.000 Cl
ATOM      6  C   UNL     1       1.358   8.503  18.977  0.00  0.00    +0.000 A 
ATOM      7  C   UNL     1       0.557   9.087  17.971  0.00  0.00    +0.000 A 
ENDROOT
BRANCH   6   8
ATOM      8  C   UNL     1       2.441   7.600  18.557  0.00  0.00    +0.000 A 
ATOM      9  N   UNL     1       3.243   7.733  17.505  0.00  0.00    +0.000 NA
ATOM     10  C   UNL     1       4.214   6.762  17.663  0.00  0.00    +0.000 A 
ATOM     11  C   UNL     1       5.249   6.340  16.824  0.00  0.00    +0.000 A 
ATOM     12  C   UNL     1       6.092   5.324  17.292  0.00  0.00    +0.000 A 
ATOM     13 CL   UNL     1       7.242   4.625  16.214  0.00  0.00    +0.000 Cl
ATOM     14  C   UNL     1       5.988   4.811  18.591  0.00  0.00    +0.000 A 
ATOM     15  C   UNL     1       4.936   5.192  19.426  0.00  0.00    +0.000 A 
ATOM     16  C   UNL     1       4.033   6.099  18.871  0.00  0.00    +0.000 A 
ATOM     17  N   UNL     1       2.694   6.348  19.103  0.00  0.00    +0.000 N 
ATOM     18  C   UNL     1       1.734   5.261  18.923  0.00  0.00    +0.000 C 
ENDBRANCH   6   8
BRANCH   1  21
ATOM     19  C   UNL     1      -2.385  10.312  16.780  0.00  0.00    +0.000 C 
ATOM     20  O   UNL     1      -3.119   9.459  17.247  0.00  0.00    +0.000 OA
ATOM     21  N   UNL     1      -1.122  10.643  17.208  0.00  0.00    +0.000 N 
ATOM     22  H   UNL     1      -0.742  11.481  16.791  0.00  0.00    +0.000 HD
BRANCH  19  24
ATOM     23  C   UNL     1      -3.346  10.449  14.671  0.00  0.00    +0.000 C 
ATOM     24  O   UNL     1      -2.740  11.141  15.762  0.00  0.00    +0.000 OA
ENDBRANCH  19  24
ENDBRANCH   1  21
TORSDOF 3
ENDMDL
MODEL 4
REMARK VINA RESULT:      -6.8      4.075      8.418
REMARK  Name = 
REMARK  5 active torsions:
REMARK  status: ('A' for Active; 'I' for Inactive)
REMARK    1  A    between atoms: C_1  and  O_2
REMARK    2  A    between atoms: O_2  and  C_3
REMARK    3  A    between atoms: N_5  and  C_6
REMARK    4  A    between atoms: C_11  and  C_12
REMARK    5  A    between atoms: N_21  and  C_22
REMARK                            x       y       z     vdW  Elec       q    Type
REMARK                         _______ _______ _______ _____ _____    ______ ____
ROOT
ATOM      1  C   UNL     1       2.237   6.315  20.199  0.00  0.00    +0.000 A 
ATOM      2  C   UNL     1       2.908   6.456  18.981  0.00  0.00    +0.000 A 
ATOM      3  C   UNL     1       2.780   7.628  18.240  0.00  0.00    +0.000 A 
ATOM      4  C   UNL     1       1.987   8.680  18.704  0.00  0.00    +0.000 A 
ATOM      5 CL   UNL     1       1.999  10.114  17.730  0.00  0.00    +0.000 Cl
ATOM      6  C   UNL     1       1.280   8.562  19.916  0.00  0.00    +0.000 A 
ATOM      7  C   UNL     1       1.407   7.357  20.640  0.00  0.00    +0.000 A 
ENDROOT
BRANCH   6   8
ATOM      8  C   UNL     1       0.480   9.643  20.513  0.00  0.00    +0.000 A 
ATOM      9  N   UNL     1       0.122   9.776  21.786  0.00  0.00    +0.000 NA
ATOM     10  C   UNL     1      -0.426  11.042  21.880  0.00  0.00    +0.000 A 
ATOM     11  C   UNL     1      -1.078  11.694  22.929  0.00  0.00    +0.000 A 
ATOM     12  C   UNL     1      -1.510  13.009  22.709  0.00  0.00    +0.000 A 
ATOM     13 CL   UNL     1      -2.503  13.775  23.891  0.00  0.00    +0.000 Cl
ATOM     14  C   UNL     1      -1.212  13.701  21.528  0.00  0.00    +0.000 A 
ATOM     15  C   UNL     1      -0.599  13.051  20.456  0.00  0.00    +0.000 A 
ATOM     16  C   UNL     1      -0.315  11.700  20.662  0.00  0.00    +0.000 A 
ATOM     17  N   UNL     1      -0.191  10.628  19.799  0.00  0.00    +0.000 N 
ATOM     18  C   UNL     1      -1.325  10.274  18.949  0.00  0.00    +0.000 C 
ENDBRANCH   6   8
BRANCH   1  21
ATOM     19  C   UNL     1       1.582   4.062  20.997  0.00  0.00    +0.000 C 
ATOM     20  O   UNL     1       0.630   3.854  20.265  0.00  0.00    +0.000 OA
ATOM     21  N   UNL     1       2.380   5.181  21.020  0.00  0.00    +0.000 N 
ATOM     22  H   UNL     1       3.210   5.095  21.590  0.00  0.00    +0.000 HD
BRANCH  19  24
ATOM     23  C   UNL     1       3.121   2.366  21.377  0.00  0.00    +0.000 C 
ATOM     24  O   UNL     1       2.056   3.160  21.898  0.00  0.00    +0.000 OA
ENDBRANCH  19  24
ENDBRANCH   1  21
TORSDOF 3
ENDMDL
MODEL 5
REMARK VINA RESULT:      -6.8      4.622      8.035
REMARK  Name = 
REMARK  5 active torsions:
REMARK  status: ('A' for Active; 'I' for Inactive)
REMARK    1  A    between atoms: C_1  and  O_2
REMARK    2  A    between atoms: O_2  and  C_3
REMARK    3  A    between atoms: N_5  and  C_6
REMARK    4  A    between atoms: C_11  and  C_12
REMARK    5  A    between atoms: N_21  and  C_22
REMARK                            x       y       z     vdW  Elec       q    Type
REMARK                         _______ _______ _______ _____ _____    ______ ____
ROOT
ATOM      1  C   UNL     1       5.759   4.373  14.290  0.00  0.00    +0.000 A 
ATOM      2  C   UNL     1       7.117   4.702  14.306  0.00  0.00    +0.000 A 
ATOM      3  C   UNL     1       7.651   5.432  15.366  0.00  0.00    +0.000 A 
ATOM      4  C   UNL     1       6.841   5.838  16.429  0.00  0.00    +0.000 A 
ATOM      5 CL   UNL     1       7.656   6.650  17.725  0.00  0.00    +0.000 Cl
ATOM      6  C   UNL     1       5.464   5.541  16.433  0.00  0.00    +0.000 A 
ATOM      7  C   UNL     1       4.940   4.820  15.338  0.00  0.00    +0.000 A 
ENDROOT
BRANCH   6   8
ATOM      8  C   UNL     1       4.553   5.868  17.541  0.00  0.00    +0.000 A 
ATOM      9  N   UNL     1       3.937   7.024  17.767  0.00  0.00    +0.000 NA
ATOM     10  C   UNL     1       3.041   6.765  18.789  0.00  0.00    +0.000 A 
ATOM     11  C   UNL     1       2.208   7.609  19.527  0.00  0.00    +0.000 A 
ATOM     12  C   UNL     1       1.389   7.024  20.502  0.00  0.00    +0.000 A 
ATOM     13 CL   UNL     1       0.509   8.042  21.579  0.00  0.00    +0.000 Cl
ATOM     14  C   UNL     1       1.311   5.636  20.671  0.00  0.00    +0.000 A 
ATOM     15  C   UNL     1       2.166   4.783  19.971  0.00  0.00    +0.000 A 
ATOM     16  C   UNL     1       3.069   5.415  19.115  0.00  0.00    +0.000 A 
ATOM     17  N   UNL     1       4.320   5.061  18.648  0.00  0.00    +0.000 N 
ATOM     18  C   UNL     1       5.388   4.815  19.614  0.00  0.00    +0.000 C 
ENDBRANCH   6   8
BRANCH   1  21
ATOM     19  C   UNL     1       5.801   3.163  12.128  0.00  0.00    +0.000 C 
ATOM     20  O   UNL     1       6.951   3.384  11.791  0.00  0.00    +0.000 OA
ATOM     21  N   UNL     1       5.179   3.585  13.278  0.00  0.00    +0.000 N 
ATOM     22  H   UNL     1       4.275   3.166  13.446  0.00  0.00    +0.000 HD
BRANCH  19  24
ATOM     23  C   UNL     1       3.777   3.092  10.992  0.00  0.00    +0.000 C 
ATOM     24  O   UNL     1       4.941   2.384  11.418  0.00  0.00    +0.000 OA
ENDBRANCH  19  24
ENDBRANCH   1  21
TORSDOF 3
ENDMDL
MODEL 6
REMARK VINA RESULT:      -6.7      5.135      8.287
REMARK  Name = 
REMARK  5 active torsions:
REMARK  status: ('A' for Active; 'I' for Inactive)
REMARK    1  A    between atoms: C_1  and  O_2
REMARK    2  A    between atoms: O_2  and  C_3
REMARK    3  A    between atoms: N_5  and  C_6
REMARK    4  A    between atoms: C_11  and  C_12
REMARK    5  A    between atoms: N_21  and  C_22
REMARK                            x       y       z     vdW  Elec       q    Type
REMARK                         _______ _______ _______ _____ _____    ______ ____
ROOT
ATOM      1  C   UNL     1       6.312   3.868  14.264  0.00  0.00    +0.000 A 
ATOM      2  C   UNL     1       7.207   4.936  14.379  0.00  0.00    +0.000 A 
ATOM      3  C   UNL     1       7.197   5.741  15.516  0.00  0.00    +0.000 A 
ATOM      4  C   UNL     1       6.303   5.488  16.558  0.00  0.00    +0.000 A 
ATOM      5 CL   UNL     1       6.470   6.505  17.953  0.00  0.00    +0.000 Cl
ATOM      6  C   UNL     1       5.374   4.433  16.465  0.00  0.00    +0.000 A 
ATOM      7  C   UNL     1       5.386   3.645  15.294  0.00  0.00    +0.000 A 
ENDROOT
BRANCH   6   8
ATOM      8  C   UNL     1       4.445   4.054  17.541  0.00  0.00    +0.000 A 
ATOM      9  N   UNL     1       4.705   3.300  18.605  0.00  0.00    +0.000 NA
ATOM     10  C   UNL     1       3.589   3.414  19.413  0.00  0.00    +0.000 A 
ATOM     11  C   UNL     1       3.231   2.763  20.596  0.00  0.00    +0.000 A 
ATOM     12  C   UNL     1       2.015   3.123  21.194  0.00  0.00    +0.000 A 
ATOM     13 CL   UNL     1       1.431   2.202  22.528  0.00  0.00    +0.000 Cl
ATOM     14  C   UNL     1       1.226   4.170  20.700  0.00  0.00    +0.000 A 
ATOM     15  C   UNL     1       1.549   4.801  19.498  0.00  0.00    +0.000 A 
ATOM     16  C   UNL     1       2.690   4.316  18.857  0.00  0.00    +0.000 A 
ATOM     17  N   UNL     1       3.075   4.282  17.531  0.00  0.00    +0.000 N 
ATOM     18  C   UNL     1       2.223   3.589  16.568  0.00  0.00    +0.000 C 
ENDBRANCH   6   8
BRANCH   1  21
ATOM     19  C   UNL     1       5.413   2.972  12.135  0.00  0.00    +0.000 C 
ATOM     20  O   UNL     1       4.463   3.720  11.982  0.00  0.00    +0.000 OA
ATOM     21  N   UNL     1       6.320   2.985  13.168  0.00  0.00    +0.000 N 
ATOM     22  H   UNL     1       7.122   2.386  13.031  0.00  0.00    +0.000 HD
BRANCH  19  24
ATOM     23  C   UNL     1       7.186   1.888  11.100  0.00  0.00    +0.000 C 
ATOM     24  O   UNL     1       5.771   2.011  11.242  0.00  0.00    +0.000 OA
ENDBRANCH  19  24
ENDBRANCH   1  21
TORSDOF 3
ENDMDL
MODEL 7
REMARK VINA RESULT:      -6.5      4.311      8.566
REMARK  Name = 
REMARK  5 active torsions:
REMARK  status: ('A' for Active; 'I' for Inactive)
REMARK    1  A    between atoms: C_1  and  O_2
REMARK    2  A    between atoms: O_2  and  C_3
REMARK    3  A    between atoms: N_5  and  C_6
REMARK    4  A    between atoms: C_11  and  C_12
REMARK    5  A    between atoms: N_21  and  C_22
REMARK                            x       y       z     vdW  Elec       q    Type
REMARK                         _______ _______ _______ _____ _____    ______ ____
ROOT
ATOM      1  C   UNL     1       2.058   6.755  20.248  0.00  0.00    +0.000 A 
ATOM      2  C   UNL     1       2.424   6.885  18.905  0.00  0.00    +0.000 A 
ATOM      3  C   UNL     1       2.202   8.082  18.229  0.00  0.00    +0.000 A 
ATOM      4  C   UNL     1       1.621   9.171  18.883  0.00  0.00    +0.000 A 
ATOM      5 CL   UNL     1       1.497  10.627  17.951  0.00  0.00    +0.000 Cl
ATOM      6  C   UNL     1       1.222   9.067  20.230  0.00  0.00    +0.000 A 
ATOM      7  C   UNL     1       1.435   7.836  20.889  0.00  0.00    +0.000 A 
ENDROOT
BRANCH   6   8
ATOM      8  C   UNL     1       0.667  10.181  21.015  0.00  0.00    +0.000 A 
ATOM      9  N   UNL     1       1.029  11.459  20.971  0.00  0.00    +0.000 NA
ATOM     10  C   UNL     1       0.083  12.132  21.722  0.00  0.00    +0.000 A 
ATOM     11  C   UNL     1       0.002  13.464  22.134  0.00  0.00    +0.000 A 
ATOM     12  C   UNL     1      -1.118  13.845  22.887  0.00  0.00    +0.000 A 
ATOM     13 CL   UNL     1      -1.156  15.415  23.597  0.00  0.00    +0.000 Cl
ATOM     14  C   UNL     1      -2.180  12.966  23.135  0.00  0.00    +0.000 A 
ATOM     15  C   UNL     1      -2.095  11.622  22.767  0.00  0.00    +0.000 A 
ATOM     16  C   UNL     1      -0.902  11.248  22.147  0.00  0.00    +0.000 A 
ATOM     17  N   UNL     1      -0.222  10.048  22.073  0.00  0.00    +0.000 N 
ATOM     18  C   UNL     1       0.204   9.403  23.313  0.00  0.00    +0.000 C 
ENDBRANCH   6   8
BRANCH   1  21
ATOM     19  C   UNL     1       1.603   4.419  20.937  0.00  0.00    +0.000 C 
ATOM     20  O   UNL     1       0.643   4.178  20.226  0.00  0.00    +0.000 OA
ATOM     21  N   UNL     1       2.316   5.592  20.997  0.00  0.00    +0.000 N 
ATOM     22  H   UNL     1       3.170   5.539  21.534  0.00  0.00    +0.000 HD
BRANCH  19  24
ATOM     23  C   UNL     1       3.049   2.608  21.086  0.00  0.00    +0.000 C 
ATOM     24  O   UNL     1       2.177   3.508  21.769  0.00  0.00    +0.000 OA
ENDBRANCH  19  24
ENDBRANCH   1  21
TORSDOF 3
ENDMDL
MODEL 8
REMARK VINA RESULT:      -6.5      4.039      7.308
REMARK  Name = 
REMARK  5 active torsions:
REMARK  status: ('A' for Active; 'I' for Inactive)
REMARK    1  A    between atoms: C_1  and  O_2
REMARK    2  A    between atoms: O_2  and  C_3
REMARK    3  A    between atoms: N_5  and  C_6
REMARK    4  A    between atoms: C_11  and  C_12
REMARK    5  A    between atoms: N_21  and  C_22
REMARK                            x       y       z     vdW  Elec       q    Type
REMARK                         _______ _______ _______ _____ _____    ______ ____
ROOT
ATOM      1  C   UNL     1       4.574   4.730  17.927  0.00  0.00    +0.000 A 
ATOM      2  C   UNL     1       3.989   3.608  18.522  0.00  0.00    +0.000 A 
ATOM      3  C   UNL     1       2.854   3.747  19.316  0.00  0.00    +0.000 A 
ATOM      4  C   UNL     1       2.279   5.003  19.524  0.00  0.00    +0.000 A 
ATOM      5 CL   UNL     1       0.814   5.014  20.450  0.00  0.00    +0.000 Cl
ATOM      6  C   UNL     1       2.856   6.156  18.956  0.00  0.00    +0.000 A 
ATOM      7  C   UNL     1       4.020   5.995  18.173  0.00  0.00    +0.000 A 
ENDROOT
BRANCH   6   8
ATOM      8  C   UNL     1       2.280   7.505  19.065  0.00  0.00    +0.000 A 
ATOM      9  N   UNL     1       2.513   8.550  18.277  0.00  0.00    +0.000 NA
ATOM     10  C   UNL     1       1.588   9.505  18.654  0.00  0.00    +0.000 A 
ATOM     11  C   UNL     1       1.422  10.838  18.271  0.00  0.00    +0.000 A 
ATOM     12  C   UNL     1       0.353  11.548  18.834  0.00  0.00    +0.000 A 
ATOM     13 CL   UNL     1       0.237  13.246  18.560  0.00  0.00    +0.000 Cl
ATOM     14  C   UNL     1      -0.590  10.933  19.668  0.00  0.00    +0.000 A 
ATOM     15  C   UNL     1      -0.417   9.615  20.092  0.00  0.00    +0.000 A 
ATOM     16  C   UNL     1       0.739   8.986  19.624  0.00  0.00    +0.000 A 
ATOM     17  N   UNL     1       1.518   7.965  20.132  0.00  0.00    +0.000 N 
ATOM     18  C   UNL     1       2.126   8.131  21.449  0.00  0.00    +0.000 C 
ENDBRANCH   6   8
BRANCH   1  21
ATOM     19  C   UNL     1       7.003   4.650  17.444  0.00  0.00    +0.000 C 
ATOM     20  O   UNL     1       7.441   4.723  18.579  0.00  0.00    +0.000 OA
ATOM     21  N   UNL     1       5.683   4.642  17.064  0.00  0.00    +0.000 N 
ATOM     22  H   UNL     1       5.525   4.418  16.092  0.00  0.00    +0.000 HD
BRANCH  19  24
ATOM     23  C   UNL     1       7.079   4.756  15.125  0.00  0.00    +0.000 C 
ATOM     24  O   UNL     1       7.784   4.500  16.340  0.00  0.00    +0.000 OA
ENDBRANCH  19  24
ENDBRANCH   1  21
TORSDOF 3
ENDMDL
MODEL 9
REMARK VINA RESULT:      -6.5      2.724      3.645
REMARK  Name = 
REMARK  5 active torsions:
REMARK  status: ('A' for Active; 'I' for Inactive)
REMARK    1  A    between atoms: C_1  and  O_2
REMARK    2  A    between atoms: O_2  and  C_3
REMARK    3  A    between atoms: N_5  and  C_6
REMARK    4  A    between atoms: C_11  and  C_12
REMARK    5  A    between atoms: N_21  and  C_22
REMARK                            x       y       z     vdW  Elec       q    Type
REMARK                         _______ _______ _______ _____ _____    ______ ____
ROOT
ATOM      1  C   UNL     1       1.785   5.862  20.441  0.00  0.00    +0.000 A 
ATOM      2  C   UNL     1       0.962   4.769  20.730  0.00  0.00    +0.000 A 
ATOM      3  C   UNL     1       1.062   3.599  19.981  0.00  0.00    +0.000 A 
ATOM      4  C   UNL     1       1.986   3.497  18.939  0.00  0.00    +0.000 A 
ATOM      5 CL   UNL     1       2.071   1.951  18.160  0.00  0.00    +0.000 Cl
ATOM      6  C   UNL     1       2.815   4.587  18.609  0.00  0.00    +0.000 A 
ATOM      7  C   UNL     1       2.681   5.771  19.366  0.00  0.00    +0.000 A 
ENDROOT
BRANCH   6   8
ATOM      8  C   UNL     1       3.862   4.544  17.576  0.00  0.00    +0.000 A 
ATOM      9  N   UNL     1       3.777   4.015  16.360  0.00  0.00    +0.000 NA
ATOM     10  C   UNL     1       4.929   4.412  15.708  0.00  0.00    +0.000 A 
ATOM     11  C   UNL     1       5.452   4.071  14.458  0.00  0.00    +0.000 A 
ATOM     12  C   UNL     1       6.658   4.673  14.072  0.00  0.00    +0.000 A 
ATOM     13 CL   UNL     1       7.448   4.124  12.642  0.00  0.00    +0.000 Cl
ATOM     14  C   UNL     1       7.275   5.664  14.846  0.00  0.00    +0.000 A 
ATOM     15  C   UNL     1       6.788   5.986  16.113  0.00  0.00    +0.000 A 
ATOM     16  C   UNL     1       5.668   5.260  16.524  0.00  0.00    +0.000 A 
ATOM     17  N   UNL     1       5.190   4.903  17.770  0.00  0.00    +0.000 N 
ATOM     18  C   UNL     1       6.043   4.110  18.650  0.00  0.00    +0.000 C 
ENDBRANCH   6   8
BRANCH   1  21
ATOM     19  C   UNL     1       1.471   8.302  20.737  0.00  0.00    +0.000 C 
ATOM     20  O   UNL     1       1.155   8.609  19.601  0.00  0.00    +0.000 OA
ATOM     21  N   UNL     1       1.772   7.045  21.203  0.00  0.00    +0.000 N 
ATOM     22  H   UNL     1       1.856   6.977  22.208  0.00  0.00    +0.000 HD
BRANCH  19  24
ATOM     23  C   UNL     1       0.278   9.277  22.476  0.00  0.00    +0.000 C 
ATOM     24  O   UNL     1       1.517   9.183  21.774  0.00  0.00    +0.000 OA
ENDBRANCH  19  24
ENDBRANCH   1  21
TORSDOF 3
ENDMDL
