MODEL 1
REMARK VINA RESULT:      -8.0      0.000      0.000
REMARK  Name = 
REMARK  7 active torsions:
REMARK  status: ('A' for Active; 'I' for Inactive)
REMARK    1  A    between atoms: C_1  and  N_2
REMARK    2  A    between atoms: N_2  and  C_3
REMARK    3  A    between atoms: C_3  and  C_4
REMARK    4  A    between atoms: C_4  and  O_5
REMARK    5  A    between atoms: O_5  and  C_6
REMARK    6  A    between atoms: C_9  and  C_10
REMARK    7  A    between atoms: C_10  and  C_11
REMARK                            x       y       z     vdW  Elec       q    Type
REMARK                         _______ _______ _______ _____ _____    ______ ____
ROOT
ATOM      1  C   UNL     1       1.816   7.163  20.430  0.00  0.00    +0.000 A 
ATOM      2  C   UNL     1       1.572   5.818  20.704  0.00  0.00    +0.000 A 
ATOM      3  C   UNL     1       1.785   4.834  19.738  0.00  0.00    +0.000 A 
ATOM      4  C   UNL     1       2.249   5.172  18.464  0.00  0.00    +0.000 A 
ATOM      5  C   UNL     1       2.500   6.521  18.183  0.00  0.00    +0.000 A 
ATOM      6  C   UNL     1       2.284   7.508  19.159  0.00  0.00    +0.000 A 
ENDROOT
BRANCH   1   7
ATOM      7  O   UNL     1       1.641   8.192  21.325  0.00  0.00    +0.000 OA
BRANCH   7   8
ATOM      8  C   UNL     1       0.441   8.965  21.135  0.00  0.00    +0.000 C 
BRANCH   8   9
ATOM      9  C   UNL     1       0.725  10.349  20.534  0.00  0.00    +0.000 C 
BRANCH   9  11
ATOM     10  C   UNL     1      -1.147  11.532  21.678  0.00  0.00    +0.000 C 
ATOM     11  N   UNL     1      -0.492  11.167  20.431  0.00  0.00    +0.000 N 
ATOM     12  C   UNL     1      -1.268  11.039  19.282  0.00  0.00    +0.000 A 
ATOM     13  C   UNL     1      -2.451  11.771  19.117  0.00  0.00    +0.000 A 
ATOM     14  C   UNL     1      -3.235  11.618  17.969  0.00  0.00    +0.000 A 
ATOM     15  C   UNL     1      -2.826  10.731  16.987  0.00  0.00    +0.000 A 
ATOM     16 CL   UNL     1      -3.768  10.495  15.575  0.00  0.00    +0.000 Cl
ATOM     17  C   UNL     1      -1.642  10.054  17.193  0.00  0.00    +0.000 A 
ATOM     18  N   UNL     1      -0.861  10.195  18.299  0.00  0.00    +0.000 NA
ENDBRANCH   9  11
ENDBRANCH   8   9
ENDBRANCH   7   8
ENDBRANCH   1   7
BRANCH   4  19
ATOM     19  C   UNL     1       2.478   4.083  17.439  0.00  0.00    +0.000 C 
BRANCH  19  20
ATOM     20  C   UNL     1       3.657   3.137  17.694  0.00  0.00    +0.000 C 
ATOM     21  S   UNL     1       3.318   1.831  18.921  0.00  0.00    +0.000 S 
ATOM     22  C   UNL     1       4.645   2.319  19.944  0.00  0.00    +0.000 C 
ATOM     23  O   UNL     1       4.881   1.824  21.033  0.00  0.00    +0.000 OA
ATOM     24  N   UNL     1       5.361   3.306  19.357  0.00  0.00    +0.000 N 
ATOM     25  C   UNL     1       4.892   3.853  18.200  0.00  0.00    +0.000 C 
ATOM     26  O   UNL     1       5.428   4.802  17.642  0.00  0.00    +0.000 OA
ATOM     27  H   UNL     1       6.154   3.703  19.832  0.00  0.00    +0.000 HD
ENDBRANCH  19  20
ENDBRANCH   4  19
TORSDOF 6
ENDMDL
MODEL 2
REMARK VINA RESULT:      -7.8      8.849     11.483
REMARK  Name = 
REMARK  7 active torsions:
REMARK  status: ('A' for Active; 'I' for Inactive)
REMARK    1  A    between atoms: C_1  and  N_2
REMARK    2  A    between atoms: N_2  and  C_3
REMARK    3  A    between atoms: C_3  and  C_4
REMARK    4  A    between atoms: C_4  and  O_5
REMARK    5  A    between atoms: O_5  and  C_6
REMARK    6  A    between atoms: C_9  and  C_10
REMARK    7  A    between atoms: C_10  and  C_11
REMARK                            x       y       z     vdW  Elec       q    Type
REMARK                         _______ _______ _______ _____ _____    ______ ____
ROOT
ATOM      1  C   UNL     1       8.950   9.977  18.843  0.00  0.00    +0.000 A 
ATOM      2  C   UNL     1       8.519  10.704  17.734  0.00  0.00    +0.000 A 
ATOM      3  C   UNL     1       8.655  12.092  17.684  0.00  0.00    +0.000 A 
ATOM      4  C   UNL     1       9.226  12.793  18.748  0.00  0.00    +0.000 A 
ATOM      5  C   UNL     1       9.665  12.068  19.864  0.00  0.00    +0.000 A 
ATOM      6  C   UNL     1       9.526  10.672  19.910  0.00  0.00    +0.000 A 
ENDROOT
BRANCH   1   7
ATOM      7  O   UNL     1       8.862   8.611  18.970  0.00  0.00    +0.000 OA
BRANCH   7   8
ATOM      8  C   UNL     1       7.935   7.976  18.069  0.00  0.00    +0.000 C 
BRANCH   8   9
ATOM      9  C   UNL     1       7.857   6.458  18.283  0.00  0.00    +0.000 C 
BRANCH   9  11
ATOM     10  C   UNL     1       5.718   5.393  18.991  0.00  0.00    +0.000 C 
ATOM     11  N   UNL     1       6.543   5.914  17.911  0.00  0.00    +0.000 N 
ATOM     12  C   UNL     1       6.400   5.367  16.638  0.00  0.00    +0.000 A 
ATOM     13  C   UNL     1       5.185   4.813  16.217  0.00  0.00    +0.000 A 
ATOM     14  C   UNL     1       5.058   4.245  14.944  0.00  0.00    +0.000 A 
ATOM     15  C   UNL     1       6.153   4.240  14.097  0.00  0.00    +0.000 A 
ATOM     16 CL   UNL     1       6.050   3.536  12.538  0.00  0.00    +0.000 Cl
ATOM     17  C   UNL     1       7.318   4.820  14.558  0.00  0.00    +0.000 A 
ATOM     18  N   UNL     1       7.458   5.384  15.788  0.00  0.00    +0.000 NA
ENDBRANCH   9  11
ENDBRANCH   8   9
ENDBRANCH   7   8
ENDBRANCH   1   7
BRANCH   4  19
ATOM     19  C   UNL     1       9.367  14.297  18.664  0.00  0.00    +0.000 C 
BRANCH  19  20
ATOM     20  C   UNL     1      10.793  14.846  18.534  0.00  0.00    +0.000 C 
ATOM     21  S   UNL     1      10.978  16.584  19.057  0.00  0.00    +0.000 S 
ATOM     22  C   UNL     1      11.604  17.080  17.506  0.00  0.00    +0.000 C 
ATOM     23  O   UNL     1      11.850  18.237  17.212  0.00  0.00    +0.000 OA
ATOM     24  N   UNL     1      11.774  16.009  16.696  0.00  0.00    +0.000 N 
ATOM     25  C   UNL     1      11.322  14.795  17.117  0.00  0.00    +0.000 C 
ATOM     26  O   UNL     1      11.360  13.788  16.420  0.00  0.00    +0.000 OA
ATOM     27  H   UNL     1      12.117  16.137  15.759  0.00  0.00    +0.000 HD
ENDBRANCH  19  20
ENDBRANCH   4  19
TORSDOF 6
ENDMDL
MODEL 3
REMARK VINA RESULT:      -7.7      2.677      3.229
REMARK  Name = 
REMARK  7 active torsions:
REMARK  status: ('A' for Active; 'I' for Inactive)
REMARK    1  A    between atoms: C_1  and  N_2
REMARK    2  A    between atoms: N_2  and  C_3
REMARK    3  A    between atoms: C_3  and  C_4
REMARK    4  A    between atoms: C_4  and  O_5
REMARK    5  A    between atoms: O_5  and  C_6
REMARK    6  A    between atoms: C_9  and  C_10
REMARK    7  A    between atoms: C_10  and  C_11
REMARK                            x       y       z     vdW  Elec       q    Type
REMARK                         _______ _______ _______ _____ _____    ______ ____
ROOT
ATOM      1  C   UNL     1       2.371   7.716  18.960  0.00  0.00    +0.000 A 
ATOM      2  C   UNL     1       3.064   7.876  17.761  0.00  0.00    +0.000 A 
ATOM      3  C   UNL     1       3.842   6.845  17.234  0.00  0.00    +0.000 A 
ATOM      4  C   UNL     1       3.951   5.620  17.899  0.00  0.00    +0.000 A 
ATOM      5  C   UNL     1       3.253   5.452  19.102  0.00  0.00    +0.000 A 
ATOM      6  C   UNL     1       2.471   6.493  19.627  0.00  0.00    +0.000 A 
ENDROOT
BRANCH   1   7
ATOM      7  O   UNL     1       1.576   8.676  19.542  0.00  0.00    +0.000 OA
BRANCH   7   8
ATOM      8  C   UNL     1       1.381   9.864  18.752  0.00  0.00    +0.000 C 
BRANCH   8   9
ATOM      9  C   UNL     1      -0.062  10.002  18.248  0.00  0.00    +0.000 C 
BRANCH   9  11
ATOM     10  C   UNL     1      -0.274  11.461  20.258  0.00  0.00    +0.000 C 
ATOM     11  N   UNL     1      -0.800  11.053  18.963  0.00  0.00    +0.000 N 
ATOM     12  C   UNL     1      -2.170  11.157  18.736  0.00  0.00    +0.000 A 
ATOM     13  C   UNL     1      -2.945  12.121  19.392  0.00  0.00    +0.000 A 
ATOM     14  C   UNL     1      -4.324  12.203  19.174  0.00  0.00    +0.000 A 
ATOM     15  C   UNL     1      -4.921  11.317  18.292  0.00  0.00    +0.000 A 
ATOM     16 CL   UNL     1      -6.610  11.367  18.011  0.00  0.00    +0.000 Cl
ATOM     17  C   UNL     1      -4.104  10.404  17.657  0.00  0.00    +0.000 A 
ATOM     18  N   UNL     1      -2.760  10.314  17.850  0.00  0.00    +0.000 NA
ENDBRANCH   9  11
ENDBRANCH   8   9
ENDBRANCH   7   8
ENDBRANCH   1   7
BRANCH   4  19
ATOM     19  C   UNL     1       4.797   4.517  17.301  0.00  0.00    +0.000 C 
BRANCH  19  20
ATOM     20  C   UNL     1       6.314   4.731  17.318  0.00  0.00    +0.000 C 
ATOM     21  S   UNL     1       6.937   5.570  18.813  0.00  0.00    +0.000 S 
ATOM     22  C   UNL     1       7.664   6.865  17.897  0.00  0.00    +0.000 C 
ATOM     23  O   UNL     1       8.195   7.839  18.401  0.00  0.00    +0.000 OA
ATOM     24  N   UNL     1       7.553   6.628  16.568  0.00  0.00    +0.000 N 
ATOM     25  C   UNL     1       6.808   5.566  16.155  0.00  0.00    +0.000 C 
ATOM     26  O   UNL     1       6.587   5.321  14.975  0.00  0.00    +0.000 OA
ATOM     27  H   UNL     1       7.915   7.295  15.907  0.00  0.00    +0.000 HD
ENDBRANCH  19  20
ENDBRANCH   4  19
TORSDOF 6
ENDMDL
MODEL 4
REMARK VINA RESULT:      -7.6      2.715      3.541
REMARK  Name = 
REMARK  7 active torsions:
REMARK  status: ('A' for Active; 'I' for Inactive)
REMARK    1  A    between atoms: C_1  and  N_2
REMARK    2  A    between atoms: N_2  and  C_3
REMARK    3  A    between atoms: C_3  and  C_4
REMARK    4  A    between atoms: C_4  and  O_5
REMARK    5  A    between atoms: O_5  and  C_6
REMARK    6  A    between atoms: C_9  and  C_10
REMARK    7  A    between atoms: C_10  and  C_11
REMARK                            x       y       z     vdW  Elec       q    Type
REMARK                         _______ _______ _______ _____ _____    ______ ____
ROOT
ATOM      1  C   UNL     1       2.311   8.165  18.546  0.00  0.00    +0.000 A 
ATOM      2  C   UNL     1       2.253   7.247  19.595  0.00  0.00    +0.000 A 
ATOM      3  C   UNL     1       3.082   6.126  19.619  0.00  0.00    +0.000 A 
ATOM      4  C   UNL     1       3.995   5.889  18.588  0.00  0.00    +0.000 A 
ATOM      5  C   UNL     1       4.061   6.809  17.534  0.00  0.00    +0.000 A 
ATOM      6  C   UNL     1       3.225   7.937  17.514  0.00  0.00    +0.000 A 
ENDROOT
BRANCH   1   7
ATOM      7  O   UNL     1       1.538   9.298  18.450  0.00  0.00    +0.000 OA
BRANCH   7   8
ATOM      8  C   UNL     1       0.667   9.536  19.571  0.00  0.00    +0.000 C 
BRANCH   8   9
ATOM      9  C   UNL     1       0.729  10.988  20.063  0.00  0.00    +0.000 C 
BRANCH   9  11
ATOM     10  C   UNL     1      -0.547  12.697  18.773  0.00  0.00    +0.000 C 
ATOM     11  N   UNL     1      -0.535  11.704  19.837  0.00  0.00    +0.000 N 
ATOM     12  C   UNL     1      -1.389  11.879  20.924  0.00  0.00    +0.000 A 
ATOM     13  C   UNL     1      -2.602  12.566  20.793  0.00  0.00    +0.000 A 
ATOM     14  C   UNL     1      -3.442  12.756  21.895  0.00  0.00    +0.000 A 
ATOM     15  C   UNL     1      -3.060  12.251  23.127  0.00  0.00    +0.000 A 
ATOM     16 CL   UNL     1      -4.047  12.480  24.509  0.00  0.00    +0.000 Cl
ATOM     17  C   UNL     1      -1.865  11.564  23.192  0.00  0.00    +0.000 A 
ATOM     18  N   UNL     1      -1.039  11.362  22.130  0.00  0.00    +0.000 NA
ENDBRANCH   9  11
ENDBRANCH   8   9
ENDBRANCH   7   8
ENDBRANCH   1   7
BRANCH   4  19
ATOM     19  C   UNL     1       4.886   4.668  18.644  0.00  0.00    +0.000 C 
BRANCH  19  20
ATOM     20  C   UNL     1       4.244   3.332  18.253  0.00  0.00    +0.000 C 
ATOM     21  S   UNL     1       2.681   3.493  17.327  0.00  0.00    +0.000 S 
ATOM     22  C   UNL     1       1.784   2.560  18.498  0.00  0.00    +0.000 C 
ATOM     23  O   UNL     1       0.579   2.387  18.449  0.00  0.00    +0.000 OA
ATOM     24  N   UNL     1       2.612   2.065  19.447  0.00  0.00    +0.000 N 
ATOM     25  C   UNL     1       3.916   2.460  19.447  0.00  0.00    +0.000 C 
ATOM     26  O   UNL     1       4.717   2.128  20.312  0.00  0.00    +0.000 OA
ATOM     27  H   UNL     1       2.239   1.514  20.202  0.00  0.00    +0.000 HD
ENDBRANCH  19  20
ENDBRANCH   4  19
TORSDOF 6
ENDMDL
MODEL 5
REMARK VINA RESULT:      -7.6      3.238      4.080
REMARK  Name = 
REMARK  7 active torsions:
REMARK  status: ('A' for Active; 'I' for Inactive)
REMARK    1  A    between atoms: C_1  and  N_2
REMARK    2  A    between atoms: N_2  and  C_3
REMARK    3  A    between atoms: C_3  and  C_4
REMARK    4  A    between atoms: C_4  and  O_5
REMARK    5  A    between atoms: O_5  and  C_6
REMARK    6  A    between atoms: C_9  and  C_10
REMARK    7  A    between atoms: C_10  and  C_11
REMARK                            x       y       z     vdW  Elec       q    Type
REMARK                         _______ _______ _______ _____ _____    ______ ____
ROOT
ATOM      1  C   UNL     1       2.420   7.201  19.193  0.00  0.00    +0.000 A 
ATOM      2  C   UNL     1       2.990   7.457  17.946  0.00  0.00    +0.000 A 
ATOM      3  C   UNL     1       3.849   6.537  17.345  0.00  0.00    +0.000 A 
ATOM      4  C   UNL     1       4.166   5.333  17.979  0.00  0.00    +0.000 A 
ATOM      5  C   UNL     1       3.593   5.069  19.230  0.00  0.00    +0.000 A 
ATOM      6  C   UNL     1       2.728   5.998  19.831  0.00  0.00    +0.000 A 
ENDROOT
BRANCH   1   7
ATOM      7  O   UNL     1       1.557   8.048  19.851  0.00  0.00    +0.000 OA
BRANCH   7   8
ATOM      8  C   UNL     1       1.345   9.318  19.207  0.00  0.00    +0.000 C 
BRANCH   8   9
ATOM      9  C   UNL     1       1.105  10.451  20.214  0.00  0.00    +0.000 C 
BRANCH   9  11
ATOM     10  C   UNL     1       0.056  12.184  18.760  0.00  0.00    +0.000 C 
ATOM     11  N   UNL     1      -0.079  11.254  19.872  0.00  0.00    +0.000 N 
ATOM     12  C   UNL     1      -0.977  11.558  20.892  0.00  0.00    +0.000 A 
ATOM     13  C   UNL     1      -2.118  12.332  20.649  0.00  0.00    +0.000 A 
ATOM     14  C   UNL     1      -3.003  12.651  21.685  0.00  0.00    +0.000 A 
ATOM     15  C   UNL     1      -2.739  12.187  22.962  0.00  0.00    +0.000 A 
ATOM     16 CL   UNL     1      -3.783  12.571  24.265  0.00  0.00    +0.000 Cl
ATOM     17  C   UNL     1      -1.613  11.410  23.138  0.00  0.00    +0.000 A 
ATOM     18  N   UNL     1      -0.745  11.082  22.141  0.00  0.00    +0.000 NA
ENDBRANCH   9  11
ENDBRANCH   8   9
ENDBRANCH   7   8
ENDBRANCH   1   7
BRANCH   4  19
ATOM     19  C   UNL     1       5.096   4.351  17.300  0.00  0.00    +0.000 C 
BRANCH  19  20
ATOM     20  C   UNL     1       6.580   4.732  17.256  0.00  0.00    +0.000 C 
ATOM     21  S   UNL     1       7.176   5.604  18.743  0.00  0.00    +0.000 S 
ATOM     22  C   UNL     1       7.713   6.989  17.828  0.00  0.00    +0.000 C 
ATOM     23  O   UNL     1       8.158   8.005  18.333  0.00  0.00    +0.000 OA
ATOM     24  N   UNL     1       7.568   6.768  16.501  0.00  0.00    +0.000 N 
ATOM     25  C   UNL     1       6.925   5.639  16.093  0.00  0.00    +0.000 C 
ATOM     26  O   UNL     1       6.677   5.395  14.919  0.00  0.00    +0.000 OA
ATOM     27  H   UNL     1       7.823   7.484  15.841  0.00  0.00    +0.000 HD
ENDBRANCH  19  20
ENDBRANCH   4  19
TORSDOF 6
ENDMDL
MODEL 6
REMARK VINA RESULT:      -7.6      3.231      4.498
REMARK  Name = 
REMARK  7 active torsions:
REMARK  status: ('A' for Active; 'I' for Inactive)
REMARK    1  A    between atoms: C_1  and  N_2
REMARK    2  A    between atoms: N_2  and  C_3
REMARK    3  A    between atoms: C_3  and  C_4
REMARK    4  A    between atoms: C_4  and  O_5
REMARK    5  A    between atoms: O_5  and  C_6
REMARK    6  A    between atoms: C_9  and  C_10
REMARK    7  A    between atoms: C_10  and  C_11
REMARK                            x       y       z     vdW  Elec       q    Type
REMARK                         _______ _______ _______ _____ _____    ______ ____
ROOT
ATOM      1  C   UNL     1       1.151   9.365  19.585  0.00  0.00    +0.000 A 
ATOM      2  C   UNL     1       1.547   9.348  18.248  0.00  0.00    +0.000 A 
ATOM      3  C   UNL     1       2.281   8.282  17.726  0.00  0.00    +0.000 A 
ATOM      4  C   UNL     1       2.643   7.200  18.533  0.00  0.00    +0.000 A 
ATOM      5  C   UNL     1       2.244   7.209  19.876  0.00  0.00    +0.000 A 
ATOM      6  C   UNL     1       1.505   8.284  20.396  0.00  0.00    +0.000 A 
ENDROOT
BRANCH   1   7
ATOM      7  O   UNL     1       0.420  10.369  20.175  0.00  0.00    +0.000 OA
BRANCH   7   8
ATOM      8  C   UNL     1      -0.803  10.710  19.496  0.00  0.00    +0.000 C 
BRANCH   8   9
ATOM      9  C   UNL     1      -1.212  12.171  19.724  0.00  0.00    +0.000 C 
BRANCH   9  11
ATOM     10  C   UNL     1      -3.697  12.340  19.622  0.00  0.00    +0.000 C 
ATOM     11  N   UNL     1      -2.493  12.283  20.438  0.00  0.00    +0.000 N 
ATOM     12  C   UNL     1      -2.495  12.917  21.678  0.00  0.00    +0.000 A 
ATOM     13  C   UNL     1      -3.678  13.077  22.410  0.00  0.00    +0.000 A 
ATOM     14  C   UNL     1      -3.674  13.736  23.644  0.00  0.00    +0.000 A 
ATOM     15  C   UNL     1      -2.479  14.228  24.141  0.00  0.00    +0.000 A 
ATOM     16 CL   UNL     1      -2.431  15.061  25.638  0.00  0.00    +0.000 Cl
ATOM     17  C   UNL     1      -1.342  14.021  23.387  0.00  0.00    +0.000 A 
ATOM     18  N   UNL     1      -1.325  13.376  22.189  0.00  0.00    +0.000 NA
ENDBRANCH   9  11
ENDBRANCH   8   9
ENDBRANCH   7   8
ENDBRANCH   1   7
BRANCH   4  19
ATOM     19  C   UNL     1       3.433   6.055  17.939  0.00  0.00    +0.000 C 
BRANCH  19  20
ATOM     20  C   UNL     1       4.830   5.811  18.521  0.00  0.00    +0.000 C 
ATOM     21  S   UNL     1       6.196   6.369  17.448  0.00  0.00    +0.000 S 
ATOM     22  C   UNL     1       6.921   4.783  17.391  0.00  0.00    +0.000 C 
ATOM     23  O   UNL     1       7.890   4.503  16.706  0.00  0.00    +0.000 OA
ATOM     24  N   UNL     1       6.261   3.928  18.206  0.00  0.00    +0.000 N 
ATOM     25  C   UNL     1       5.110   4.350  18.800  0.00  0.00    +0.000 C 
ATOM     26  O   UNL     1       4.404   3.622  19.487  0.00  0.00    +0.000 OA
ATOM     27  H   UNL     1       6.554   2.967  18.270  0.00  0.00    +0.000 HD
ENDBRANCH  19  20
ENDBRANCH   4  19
TORSDOF 6
ENDMDL
MODEL 7
REMARK VINA RESULT:      -7.6      3.276      4.203
REMARK  Name = 
REMARK  7 active torsions:
REMARK  status: ('A' for Active; 'I' for Inactive)
REMARK    1  A    between atoms: C_1  and  N_2
REMARK    2  A    between atoms: N_2  and  C_3
REMARK    3  A    between atoms: C_3  and  C_4
REMARK    4  A    between atoms: C_4  and  O_5
REMARK    5  A    between atoms: O_5  and  C_6
REMARK    6  A    between atoms: C_9  and  C_10
REMARK    7  A    between atoms: C_10  and  C_11
REMARK                            x       y       z     vdW  Elec       q    Type
REMARK                         _______ _______ _______ _____ _____    ______ ____
ROOT
ATOM      1  C   UNL     1       0.983   8.968  19.861  0.00  0.00    +0.000 A 
ATOM      2  C   UNL     1       1.357   9.232  18.544  0.00  0.00    +0.000 A 
ATOM      3  C   UNL     1       2.247   8.399  17.866  0.00  0.00    +0.000 A 
ATOM      4  C   UNL     1       2.793   7.275  18.491  0.00  0.00    +0.000 A 
ATOM      5  C   UNL     1       2.418   7.002  19.813  0.00  0.00    +0.000 A 
ATOM      6  C   UNL     1       1.522   7.843  20.492  0.00  0.00    +0.000 A 
ENDROOT
BRANCH   1   7
ATOM      7  O   UNL     1       0.107   9.730  20.598  0.00  0.00    +0.000 OA
BRANCH   7   8
ATOM      8  C   UNL     1       0.443   9.866  21.991  0.00  0.00    +0.000 C 
BRANCH   8   9
ATOM      9  C   UNL     1      -0.626  10.635  22.779  0.00  0.00    +0.000 C 
BRANCH   9  11
ATOM     10  C   UNL     1       0.047  12.722  21.594  0.00  0.00    +0.000 C 
ATOM     11  N   UNL     1      -1.024  11.878  22.103  0.00  0.00    +0.000 N 
ATOM     12  C   UNL     1      -2.219  12.478  22.493  0.00  0.00    +0.000 A 
ATOM     13  C   UNL     1      -2.658  13.673  21.909  0.00  0.00    +0.000 A 
ATOM     14  C   UNL     1      -3.848  14.279  22.323  0.00  0.00    +0.000 A 
ATOM     15  C   UNL     1      -4.597  13.680  23.322  0.00  0.00    +0.000 A 
ATOM     16 CL   UNL     1      -6.050  14.400  23.876  0.00  0.00    +0.000 Cl
ATOM     17  C   UNL     1      -4.127  12.493  23.845  0.00  0.00    +0.000 A 
ATOM     18  N   UNL     1      -2.977  11.884  23.449  0.00  0.00    +0.000 NA
ENDBRANCH   9  11
ENDBRANCH   8   9
ENDBRANCH   7   8
ENDBRANCH   1   7
BRANCH   4  19
ATOM     19  C   UNL     1       3.750   6.386  17.729  0.00  0.00    +0.000 C 
BRANCH  19  20
ATOM     20  C   UNL     1       5.061   6.024  18.437  0.00  0.00    +0.000 C 
ATOM     21  S   UNL     1       6.560   6.339  17.447  0.00  0.00    +0.000 S 
ATOM     22  C   UNL     1       7.088   4.679  17.549  0.00  0.00    +0.000 C 
ATOM     23  O   UNL     1       8.064   4.239  16.965  0.00  0.00    +0.000 OA
ATOM     24  N   UNL     1       6.270   3.968  18.360  0.00  0.00    +0.000 N 
ATOM     25  C   UNL     1       5.139   4.564  18.830  0.00  0.00    +0.000 C 
ATOM     26  O   UNL     1       4.302   3.975  19.503  0.00  0.00    +0.000 OA
ATOM     27  H   UNL     1       6.439   2.987  18.509  0.00  0.00    +0.000 HD
ENDBRANCH  19  20
ENDBRANCH   4  19
TORSDOF 6
ENDMDL
MODEL 8
REMARK VINA RESULT:      -7.6      2.249      2.853
REMARK  Name = 
REMARK  7 active torsions:
REMARK  status: ('A' for Active; 'I' for Inactive)
REMARK    1  A    between atoms: C_1  and  N_2
REMARK    2  A    between atoms: N_2  and  C_3
REMARK    3  A    between atoms: C_3  and  C_4
REMARK    4  A    between atoms: C_4  and  O_5
REMARK    5  A    between atoms: O_5  and  C_6
REMARK    6  A    between atoms: C_9  and  C_10
REMARK    7  A    between atoms: C_10  and  C_11
REMARK                            x       y       z     vdW  Elec       q    Type
REMARK                         _______ _______ _______ _____ _____    ______ ____
ROOT
ATOM      1  C   UNL     1       1.835   7.167  20.442  0.00  0.00    +0.000 A 
ATOM      2  C   UNL     1       1.636   5.812  20.706  0.00  0.00    +0.000 A 
ATOM      3  C   UNL     1       1.875   4.845  19.729  0.00  0.00    +0.000 A 
ATOM      4  C   UNL     1       2.319   5.209  18.455  0.00  0.00    +0.000 A 
ATOM      5  C   UNL     1       2.525   6.568  18.185  0.00  0.00    +0.000 A 
ATOM      6  C   UNL     1       2.283   7.538  19.171  0.00  0.00    +0.000 A 
ENDROOT
BRANCH   1   7
ATOM      7  O   UNL     1       1.633   8.182  21.348  0.00  0.00    +0.000 OA
BRANCH   7   8
ATOM      8  C   UNL     1       0.455   8.977  21.116  0.00  0.00    +0.000 C 
BRANCH   8   9
ATOM      9  C   UNL     1       0.716  10.478  21.301  0.00  0.00    +0.000 C 
BRANCH   9  11
ATOM     10  C   UNL     1       0.174  12.086  19.475  0.00  0.00    +0.000 C 
ATOM     11  N   UNL     1      -0.287  11.303  20.612  0.00  0.00    +0.000 N 
ATOM     12  C   UNL     1      -1.364  11.778  21.357  0.00  0.00    +0.000 A 
ATOM     13  C   UNL     1      -2.351  12.584  20.776  0.00  0.00    +0.000 A 
ATOM     14  C   UNL     1      -3.417  13.074  21.538  0.00  0.00    +0.000 A 
ATOM     15  C   UNL     1      -3.490  12.748  22.882  0.00  0.00    +0.000 A 
ATOM     16 CL   UNL     1      -4.765  13.345  23.859  0.00  0.00    +0.000 Cl
ATOM     17  C   UNL     1      -2.502  11.932  23.395  0.00  0.00    +0.000 A 
ATOM     18  N   UNL     1      -1.462  11.439  22.668  0.00  0.00    +0.000 NA
ENDBRANCH   9  11
ENDBRANCH   8   9
ENDBRANCH   7   8
ENDBRANCH   1   7
BRANCH   4  19
ATOM     19  C   UNL     1       2.576   4.138  17.418  0.00  0.00    +0.000 C 
BRANCH  19  20
ATOM     20  C   UNL     1       3.755   3.194  17.684  0.00  0.00    +0.000 C 
ATOM     21  S   UNL     1       3.394   1.861  18.876  0.00  0.00    +0.000 S 
ATOM     22  C   UNL     1       4.691   2.336  19.941  0.00  0.00    +0.000 C 
ATOM     23  O   UNL     1       4.903   1.822  21.025  0.00  0.00    +0.000 OA
ATOM     24  N   UNL     1       5.415   3.340  19.392  0.00  0.00    +0.000 N 
ATOM     25  C   UNL     1       4.972   3.907  18.236  0.00  0.00    +0.000 C 
ATOM     26  O   UNL     1       5.515   4.871  17.710  0.00  0.00    +0.000 OA
ATOM     27  H   UNL     1       6.193   3.733  19.895  0.00  0.00    +0.000 HD
ENDBRANCH  19  20
ENDBRANCH   4  19
TORSDOF 6
ENDMDL
MODEL 9
REMARK VINA RESULT:      -7.6      3.628      4.526
REMARK  Name = 
REMARK  7 active torsions:
REMARK  status: ('A' for Active; 'I' for Inactive)
REMARK    1  A    between atoms: C_1  and  N_2
REMARK    2  A    between atoms: N_2  and  C_3
REMARK    3  A    between atoms: C_3  and  C_4
REMARK    4  A    between atoms: C_4  and  O_5
REMARK    5  A    between atoms: O_5  and  C_6
REMARK    6  A    between atoms: C_9  and  C_10
REMARK    7  A    between atoms: C_10  and  C_11
REMARK                            x       y       z     vdW  Elec       q    Type
REMARK                         _______ _______ _______ _____ _____    ______ ____
ROOT
ATOM      1  C   UNL     1       1.158   9.245  19.591  0.00  0.00    +0.000 A 
ATOM      2  C   UNL     1       1.511   8.115  20.328  0.00  0.00    +0.000 A 
ATOM      3  C   UNL     1       2.276   7.095  19.761  0.00  0.00    +0.000 A 
ATOM      4  C   UNL     1       2.707   7.177  18.435  0.00  0.00    +0.000 A 
ATOM      5  C   UNL     1       2.359   8.312  17.691  0.00  0.00    +0.000 A 
ATOM      6  C   UNL     1       1.589   9.336  18.266  0.00  0.00    +0.000 A 
ENDROOT
BRANCH   1   7
ATOM      7  O   UNL     1       0.416  10.298  20.074  0.00  0.00    +0.000 OA
BRANCH   7   8
ATOM      8  C   UNL     1      -0.284  11.058  19.072  0.00  0.00    +0.000 C 
BRANCH   8   9
ATOM      9  C   UNL     1      -0.430  12.537  19.455  0.00  0.00    +0.000 C 
BRANCH   9  11
ATOM     10  C   UNL     1       0.085  13.329  21.761  0.00  0.00    +0.000 C 
ATOM     11  N   UNL     1       0.575  12.955  20.443  0.00  0.00    +0.000 N 
ATOM     12  C   UNL     1       1.745  13.548  19.972  0.00  0.00    +0.000 A 
ATOM     13  C   UNL     1       2.741  13.988  20.851  0.00  0.00    +0.000 A 
ATOM     14  C   UNL     1       3.902  14.602  20.370  0.00  0.00    +0.000 A 
ATOM     15  C   UNL     1       4.060  14.768  19.004  0.00  0.00    +0.000 A 
ATOM     16 CL   UNL     1       5.456  15.534  18.371  0.00  0.00    +0.000 Cl
ATOM     17  C   UNL     1       3.056  14.294  18.185  0.00  0.00    +0.000 A 
ATOM     18  N   UNL     1       1.923  13.687  18.634  0.00  0.00    +0.000 NA
ENDBRANCH   9  11
ENDBRANCH   8   9
ENDBRANCH   7   8
ENDBRANCH   1   7
BRANCH   4  19
ATOM     19  C   UNL     1       3.541   6.059  17.848  0.00  0.00    +0.000 C 
BRANCH  19  20
ATOM     20  C   UNL     1       4.923   5.834  18.474  0.00  0.00    +0.000 C 
ATOM     21  S   UNL     1       6.318   6.330  17.408  0.00  0.00    +0.000 S 
ATOM     22  C   UNL     1       7.031   4.738  17.443  0.00  0.00    +0.000 C 
ATOM     23  O   UNL     1       8.013   4.420  16.796  0.00  0.00    +0.000 OA
ATOM     24  N   UNL     1       6.345   3.928  18.282  0.00  0.00    +0.000 N 
ATOM     25  C   UNL     1       5.184   4.386  18.828  0.00  0.00    +0.000 C 
ATOM     26  O   UNL     1       4.457   3.696  19.533  0.00  0.00    +0.000 OA
ATOM     27  H   UNL     1       6.629   2.969  18.399  0.00  0.00    +0.000 HD
ENDBRANCH  19  20
ENDBRANCH   4  19
TORSDOF 6
ENDMDL
