MODEL 1
REMARK VINA RESULT:      -7.9      0.000      0.000
REMARK  Name = 
REMARK  3 active torsions:
REMARK  status: ('A' for Active; 'I' for Inactive)
REMARK    1  A    between atoms: C_2  and  O_3
REMARK    2  A    between atoms: C_2  and  C_13
REMARK    3  A    between atoms: O_3  and  C_4
REMARK                            x       y       z     vdW  Elec       q    Type
REMARK                         _______ _______ _______ _____ _____    ______ ____
ROOT
ATOM      1  C   UNL     1       2.774   7.372  18.416  0.00  0.00    +0.000 A 
ATOM      2  C   UNL     1       2.268   6.526  19.383  0.00  0.00    +0.000 A 
ATOM      3  N   UNL     1       2.940   5.325  19.357  0.00  0.00    +0.000 N 
ATOM      4  C   UNL     1       2.696   4.266  20.243  0.00  0.00    +0.000 A 
ATOM      5  N   UNL     1       1.718   4.317  21.138  0.00  0.00    +0.000 NA
ATOM      6  C   UNL     1       1.804   3.129  21.814  0.00  0.00    +0.000 A 
ATOM      7  C   UNL     1       2.846   2.392  21.320  0.00  0.00    +0.000 A 
ATOM      8  O   UNL     1       3.416   3.094  20.303  0.00  0.00    +0.000 OA
ATOM      9  C   UNL     1       3.863   5.364  18.314  0.00  0.00    +0.000 A 
ATOM     10  C   UNL     1       4.747   4.381  17.820  0.00  0.00    +0.000 A 
ATOM     11  C   UNL     1       5.553   4.692  16.724  0.00  0.00    +0.000 A 
ATOM     12  C   UNL     1       5.492   5.946  16.131  0.00  0.00    +0.000 A 
ATOM     13  C   UNL     1       4.622   6.923  16.624  0.00  0.00    +0.000 A 
ATOM     14  C   UNL     1       3.785   6.635  17.726  0.00  0.00    +0.000 A 
ENDROOT
BRANCH   1  16
ATOM     15  O   UNL     1       2.446   9.294  17.076  0.00  0.00    +0.000 OA
ATOM     16  C   UNL     1       2.260   8.703  18.132  0.00  0.00    +0.000 C 
BRANCH  16  17
ATOM     17  O   UNL     1       1.425   9.138  19.129  0.00  0.00    +0.000 OA
BRANCH  17  18
ATOM     18  C   UNL     1       0.437  10.097  18.714  0.00  0.00    +0.000 C 
ATOM     19  C   UNL     1      -0.788   9.945  19.635  0.00  0.00    +0.000 C 
ATOM     20  C   UNL     1      -1.012  11.074  20.644  0.00  0.00    +0.000 C 
ATOM     21  C   UNL     1      -0.126  10.940  21.907  0.00  0.00    +0.000 C 
ATOM     22  O   UNL     1       1.262  11.122  21.612  0.00  0.00    +0.000 OA
ATOM     23  C   UNL     1       1.458  12.393  20.987  0.00  0.00    +0.000 C 
ATOM     24  C   UNL     1       0.630  12.510  19.690  0.00  0.00    +0.000 C 
ATOM     25  C   UNL     1       1.069  11.494  18.627  0.00  0.00    +0.000 C 
ATOM     26  N   UNL     1      -0.809  12.370  19.974  0.00  0.00    +0.000 NA
ATOM     27  H   UNL     1      -1.342  12.398  19.103  0.00  0.00    +0.000 HD
ENDBRANCH  17  18
ENDBRANCH  16  17
ENDBRANCH   1  16
TORSDOF 3
ENDMDL
MODEL 2
REMARK VINA RESULT:      -7.9      1.643      3.634
REMARK  Name = 
REMARK  3 active torsions:
REMARK  status: ('A' for Active; 'I' for Inactive)
REMARK    1  A    between atoms: C_2  and  O_3
REMARK    2  A    between atoms: C_2  and  C_13
REMARK    3  A    between atoms: O_3  and  C_4
REMARK                            x       y       z     vdW  Elec       q    Type
REMARK                         _______ _______ _______ _____ _____    ______ ____
ROOT
ATOM      1  C   UNL     1       2.190   6.647  19.552  0.00  0.00    +0.000 A 
ATOM      2  C   UNL     1       3.118   6.764  18.536  0.00  0.00    +0.000 A 
ATOM      3  N   UNL     1       3.436   5.518  18.043  0.00  0.00    +0.000 N 
ATOM      4  C   UNL     1       4.316   5.296  16.974  0.00  0.00    +0.000 A 
ATOM      5  N   UNL     1       4.985   6.288  16.404  0.00  0.00    +0.000 NA
ATOM      6  C   UNL     1       5.713   5.690  15.410  0.00  0.00    +0.000 A 
ATOM      7  C   UNL     1       5.453   4.345  15.394  0.00  0.00    +0.000 A 
ATOM      8  O   UNL     1       4.577   4.072  16.398  0.00  0.00    +0.000 OA
ATOM      9  C   UNL     1       2.748   4.565  18.790  0.00  0.00    +0.000 A 
ATOM     10  C   UNL     1       2.771   3.155  18.741  0.00  0.00    +0.000 A 
ATOM     11  C   UNL     1       1.986   2.438  19.646  0.00  0.00    +0.000 A 
ATOM     12  C   UNL     1       1.193   3.097  20.575  0.00  0.00    +0.000 A 
ATOM     13  C   UNL     1       1.165   4.494  20.620  0.00  0.00    +0.000 A 
ATOM     14  C   UNL     1       1.957   5.248  19.725  0.00  0.00    +0.000 A 
ENDROOT
BRANCH   1  16
ATOM     15  O   UNL     1       1.122   7.637  21.416  0.00  0.00    +0.000 OA
ATOM     16  C   UNL     1       1.674   7.762  20.331  0.00  0.00    +0.000 C 
BRANCH  16  17
ATOM     17  O   UNL     1       2.019   8.965  19.769  0.00  0.00    +0.000 OA
BRANCH  17  18
ATOM     18  C   UNL     1       1.003   9.558  18.942  0.00  0.00    +0.000 C 
ATOM     19  C   UNL     1      -0.292   9.645  19.771  0.00  0.00    +0.000 C 
ATOM     20  C   UNL     1      -0.708  11.048  20.218  0.00  0.00    +0.000 C 
ATOM     21  C   UNL     1       0.052  11.531  21.477  0.00  0.00    +0.000 C 
ATOM     22  O   UNL     1       1.444  11.740  21.217  0.00  0.00    +0.000 OA
ATOM     23  C   UNL     1       1.598  12.671  20.142  0.00  0.00    +0.000 C 
ATOM     24  C   UNL     1       0.899  12.165  18.863  0.00  0.00    +0.000 C 
ATOM     25  C   UNL     1       1.525  10.868  18.333  0.00  0.00    +0.000 C 
ATOM     26  N   UNL     1      -0.545  11.984  19.093  0.00  0.00    +0.000 NA
ATOM     27  H   UNL     1      -0.987  11.602  18.256  0.00  0.00    +0.000 HD
ENDBRANCH  17  18
ENDBRANCH  16  17
ENDBRANCH   1  16
TORSDOF 3
ENDMDL
MODEL 3
REMARK VINA RESULT:      -7.9      2.304      7.594
REMARK  Name = 
REMARK  3 active torsions:
REMARK  status: ('A' for Active; 'I' for Inactive)
REMARK    1  A    between atoms: C_2  and  O_3
REMARK    2  A    between atoms: C_2  and  C_13
REMARK    3  A    between atoms: O_3  and  C_4
REMARK                            x       y       z     vdW  Elec       q    Type
REMARK                         _______ _______ _______ _____ _____    ______ ____
ROOT
ATOM      1  C   UNL     1       1.392   8.745  18.696  0.00  0.00    +0.000 A 
ATOM      2  C   UNL     1       0.370   9.278  17.935  0.00  0.00    +0.000 A 
ATOM      3  N   UNL     1      -0.518   9.951  18.743  0.00  0.00    +0.000 N 
ATOM      4  C   UNL     1      -1.644  10.643  18.272  0.00  0.00    +0.000 A 
ATOM      5  N   UNL     1      -1.986  10.627  16.992  0.00  0.00    +0.000 NA
ATOM      6  C   UNL     1      -3.105  11.413  16.922  0.00  0.00    +0.000 A 
ATOM      7  C   UNL     1      -3.404  11.900  18.166  0.00  0.00    +0.000 A 
ATOM      8  O   UNL     1      -2.492  11.404  19.045  0.00  0.00    +0.000 OA
ATOM      9  C   UNL     1      -0.101   9.805  20.065  0.00  0.00    +0.000 A 
ATOM     10  C   UNL     1      -0.686  10.238  21.274  0.00  0.00    +0.000 A 
ATOM     11  C   UNL     1      -0.052   9.921  22.477  0.00  0.00    +0.000 A 
ATOM     12  C   UNL     1       1.133   9.198  22.486  0.00  0.00    +0.000 A 
ATOM     13  C   UNL     1       1.716   8.775  21.288  0.00  0.00    +0.000 A 
ATOM     14  C   UNL     1       1.093   9.070  20.055  0.00  0.00    +0.000 A 
ENDROOT
BRANCH   1  16
ATOM     15  O   UNL     1       3.549   8.378  17.797  0.00  0.00    +0.000 OA
ATOM     16  C   UNL     1       2.473   7.927  18.169  0.00  0.00    +0.000 C 
BRANCH  16  17
ATOM     17  O   UNL     1       2.190   6.590  18.285  0.00  0.00    +0.000 OA
BRANCH  17  18
ATOM     18  C   UNL     1       3.010   5.878  19.227  0.00  0.00    +0.000 C 
ATOM     19  C   UNL     1       2.077   5.165  20.223  0.00  0.00    +0.000 C 
ATOM     20  C   UNL     1       1.990   3.643  20.088  0.00  0.00    +0.000 C 
ATOM     21  C   UNL     1       1.028   3.191  18.963  0.00  0.00    +0.000 C 
ATOM     22  O   UNL     1       1.515   3.542  17.664  0.00  0.00    +0.000 OA
ATOM     23  C   UNL     1       2.818   2.985  17.472  0.00  0.00    +0.000 C 
ATOM     24  C   UNL     1       3.801   3.484  18.551  0.00  0.00    +0.000 C 
ATOM     25  C   UNL     1       4.024   5.001  18.478  0.00  0.00    +0.000 C 
ATOM     26  N   UNL     1       3.344   3.095  19.897  0.00  0.00    +0.000 NA
ATOM     27  H   UNL     1       3.975   3.473  20.604  0.00  0.00    +0.000 HD
ENDBRANCH  17  18
ENDBRANCH  16  17
ENDBRANCH   1  16
TORSDOF 3
ENDMDL
MODEL 4
REMARK VINA RESULT:      -7.8      2.297      7.612
REMARK  Name = 
REMARK  3 active torsions:
REMARK  status: ('A' for Active; 'I' for Inactive)
REMARK    1  A    between atoms: C_2  and  O_3
REMARK    2  A    between atoms: C_2  and  C_13
REMARK    3  A    between atoms: O_3  and  C_4
REMARK                            x       y       z     vdW  Elec       q    Type
REMARK                         _______ _______ _______ _____ _____    ______ ____
ROOT
ATOM      1  C   UNL     1       1.356   8.662  18.985  0.00  0.00    +0.000 A 
ATOM      2  C   UNL     1       0.387   9.167  18.140  0.00  0.00    +0.000 A 
ATOM      3  N   UNL     1      -0.527   9.904  18.858  0.00  0.00    +0.000 N 
ATOM      4  C   UNL     1      -1.611  10.587  18.288  0.00  0.00    +0.000 A 
ATOM      5  N   UNL     1      -1.887  10.500  16.994  0.00  0.00    +0.000 NA
ATOM      6  C   UNL     1      -2.984  11.301  16.818  0.00  0.00    +0.000 A 
ATOM      7  C   UNL     1      -3.336  11.869  18.014  0.00  0.00    +0.000 A 
ATOM      8  O   UNL     1      -2.481  11.410  18.967  0.00  0.00    +0.000 OA
ATOM      9  C   UNL     1      -0.182   9.831  20.206  0.00  0.00    +0.000 A 
ATOM     10  C   UNL     1      -0.819  10.348  21.355  0.00  0.00    +0.000 A 
ATOM     11  C   UNL     1      -0.255  10.093  22.606  0.00  0.00    +0.000 A 
ATOM     12  C   UNL     1       0.912   9.350  22.722  0.00  0.00    +0.000 A 
ATOM     13  C   UNL     1       1.547   8.844  21.584  0.00  0.00    +0.000 A 
ATOM     14  C   UNL     1       0.995   9.075  20.303  0.00  0.00    +0.000 A 
ENDROOT
BRANCH   1  16
ATOM     15  O   UNL     1       3.360   8.152  17.835  0.00  0.00    +0.000 OA
ATOM     16  C   UNL     1       2.446   7.793  18.566  0.00  0.00    +0.000 C 
BRANCH  16  17
ATOM     17  O   UNL     1       2.394   6.583  19.209  0.00  0.00    +0.000 OA
BRANCH  17  18
ATOM     18  C   UNL     1       2.989   5.490  18.488  0.00  0.00    +0.000 C 
ATOM     19  C   UNL     1       3.959   4.767  19.440  0.00  0.00    +0.000 C 
ATOM     20  C   UNL     1       3.512   3.389  19.932  0.00  0.00    +0.000 C 
ATOM     21  C   UNL     1       2.513   3.464  21.112  0.00  0.00    +0.000 C 
ATOM     22  O   UNL     1       1.256   4.023  20.718  0.00  0.00    +0.000 OA
ATOM     23  C   UNL     1       0.709   3.263  19.638  0.00  0.00    +0.000 C 
ATOM     24  C   UNL     1       1.671   3.238  18.431  0.00  0.00    +0.000 C 
ATOM     25  C   UNL     1       1.892   4.636  17.836  0.00  0.00    +0.000 C 
ATOM     26  N   UNL     1       2.959   2.626  18.800  0.00  0.00    +0.000 NA
ATOM     27  H   UNL     1       3.603   2.661  18.009  0.00  0.00    +0.000 HD
ENDBRANCH  17  18
ENDBRANCH  16  17
ENDBRANCH   1  16
TORSDOF 3
ENDMDL
MODEL 5
REMARK VINA RESULT:      -7.8      2.071      7.547
REMARK  Name = 
REMARK  3 active torsions:
REMARK  status: ('A' for Active; 'I' for Inactive)
REMARK    1  A    between atoms: C_2  and  O_3
REMARK    2  A    between atoms: C_2  and  C_13
REMARK    3  A    between atoms: O_3  and  C_4
REMARK                            x       y       z     vdW  Elec       q    Type
REMARK                         _______ _______ _______ _____ _____    ______ ____
ROOT
ATOM      1  C   UNL     1       0.314   9.853  18.467  0.00  0.00    +0.000 A 
ATOM      2  C   UNL     1       0.351  10.537  19.666  0.00  0.00    +0.000 A 
ATOM      3  N   UNL     1      -0.875  11.112  19.918  0.00  0.00    +0.000 N 
ATOM      4  C   UNL     1      -1.181  11.839  21.077  0.00  0.00    +0.000 A 
ATOM      5  N   UNL     1      -0.263  12.102  21.997  0.00  0.00    +0.000 NA
ATOM      6  C   UNL     1      -0.933  12.803  22.965  0.00  0.00    +0.000 A 
ATOM      7  C   UNL     1      -2.249  12.934  22.611  0.00  0.00    +0.000 A 
ATOM      8  O   UNL     1      -2.422  12.341  21.399  0.00  0.00    +0.000 OA
ATOM      9  C   UNL     1      -1.710  10.848  18.834  0.00  0.00    +0.000 A 
ATOM     10  C   UNL     1      -3.032  11.261  18.561  0.00  0.00    +0.000 A 
ATOM     11  C   UNL     1      -3.625  10.863  17.362  0.00  0.00    +0.000 A 
ATOM     12  C   UNL     1      -2.932  10.073  16.454  0.00  0.00    +0.000 A 
ATOM     13  C   UNL     1      -1.625   9.659  16.728  0.00  0.00    +0.000 A 
ATOM     14  C   UNL     1      -0.993  10.054  17.928  0.00  0.00    +0.000 A 
ENDROOT
BRANCH   1  16
ATOM     15  O   UNL     1       2.342   9.745  17.252  0.00  0.00    +0.000 OA
ATOM     16  C   UNL     1       1.454   9.172  17.870  0.00  0.00    +0.000 C 
BRANCH  16  17
ATOM     17  O   UNL     1       1.480   7.845  18.217  0.00  0.00    +0.000 OA
BRANCH  17  18
ATOM     18  C   UNL     1       2.626   7.444  18.987  0.00  0.00    +0.000 C 
ATOM     19  C   UNL     1       2.123   6.654  20.209  0.00  0.00    +0.000 C 
ATOM     20  C   UNL     1       2.384   5.146  20.185  0.00  0.00    +0.000 C 
ATOM     21  C   UNL     1       1.349   4.368  19.337  0.00  0.00    +0.000 C 
ATOM     22  O   UNL     1       1.455   4.674  17.943  0.00  0.00    +0.000 OA
ATOM     23  C   UNL     1       2.786   4.408  17.493  0.00  0.00    +0.000 C 
ATOM     24  C   UNL     1       3.820   5.231  18.289  0.00  0.00    +0.000 C 
ATOM     25  C   UNL     1       3.646   6.741  18.078  0.00  0.00    +0.000 C 
ATOM     26  N   UNL     1       3.761   4.900  19.723  0.00  0.00    +0.000 NA
ATOM     27  H   UNL     1       4.413   5.487  20.245  0.00  0.00    +0.000 HD
ENDBRANCH  17  18
ENDBRANCH  16  17
ENDBRANCH   1  16
TORSDOF 3
ENDMDL
MODEL 6
REMARK VINA RESULT:      -7.8      0.781      1.008
REMARK  Name = 
REMARK  3 active torsions:
REMARK  status: ('A' for Active; 'I' for Inactive)
REMARK    1  A    between atoms: C_2  and  O_3
REMARK    2  A    between atoms: C_2  and  C_13
REMARK    3  A    between atoms: O_3  and  C_4
REMARK                            x       y       z     vdW  Elec       q    Type
REMARK                         _______ _______ _______ _____ _____    ______ ____
ROOT
ATOM      1  C   UNL     1       2.753   7.390  18.435  0.00  0.00    +0.000 A 
ATOM      2  C   UNL     1       2.300   6.527  19.414  0.00  0.00    +0.000 A 
ATOM      3  N   UNL     1       2.970   5.327  19.331  0.00  0.00    +0.000 N 
ATOM      4  C   UNL     1       2.774   4.253  20.211  0.00  0.00    +0.000 A 
ATOM      5  N   UNL     1       1.847   4.288  21.158  0.00  0.00    +0.000 NA
ATOM      6  C   UNL     1       1.970   3.089  21.808  0.00  0.00    +0.000 A 
ATOM      7  C   UNL     1       2.984   2.361  21.245  0.00  0.00    +0.000 A 
ATOM      8  O   UNL     1       3.498   3.081  20.212  0.00  0.00    +0.000 OA
ATOM      9  C   UNL     1       3.835   5.386  18.240  0.00  0.00    +0.000 A 
ATOM     10  C   UNL     1       4.691   4.412  17.682  0.00  0.00    +0.000 A 
ATOM     11  C   UNL     1       5.437   4.743  16.550  0.00  0.00    +0.000 A 
ATOM     12  C   UNL     1       5.344   6.007  15.983  0.00  0.00    +0.000 A 
ATOM     13  C   UNL     1       4.502   6.974  16.539  0.00  0.00    +0.000 A 
ATOM     14  C   UNL     1       3.725   6.667  17.679  0.00  0.00    +0.000 A 
ENDROOT
BRANCH   1  16
ATOM     15  O   UNL     1       2.073   9.214  17.090  0.00  0.00    +0.000 OA
ATOM     16  C   UNL     1       2.223   8.725  18.203  0.00  0.00    +0.000 C 
BRANCH  16  17
ATOM     17  O   UNL     1       1.780   9.296  19.368  0.00  0.00    +0.000 OA
BRANCH  17  18
ATOM     18  C   UNL     1       0.351   9.397  19.487  0.00  0.00    +0.000 C 
ATOM     19  C   UNL     1       0.024   9.836  20.926  0.00  0.00    +0.000 C 
ATOM     20  C   UNL     1      -0.481  11.271  21.090  0.00  0.00    +0.000 C 
ATOM     21  C   UNL     1       0.661  12.315  21.100  0.00  0.00    +0.000 C 
ATOM     22  O   UNL     1       1.315  12.411  19.830  0.00  0.00    +0.000 OA
ATOM     23  C   UNL     1       0.354  12.718  18.817  0.00  0.00    +0.000 C 
ATOM     24  C   UNL     1      -0.754  11.646  18.756  0.00  0.00    +0.000 C 
ATOM     25  C   UNL     1      -0.207  10.269  18.352  0.00  0.00    +0.000 C 
ATOM     26  N   UNL     1      -1.472  11.559  20.039  0.00  0.00    +0.000 NA
ATOM     27  H   UNL     1      -2.167  10.813  20.002  0.00  0.00    +0.000 HD
ENDBRANCH  17  18
ENDBRANCH  16  17
ENDBRANCH   1  16
TORSDOF 3
ENDMDL
MODEL 7
REMARK VINA RESULT:      -7.7      1.941      7.821
REMARK  Name = 
REMARK  3 active torsions:
REMARK  status: ('A' for Active; 'I' for Inactive)
REMARK    1  A    between atoms: C_2  and  O_3
REMARK    2  A    between atoms: C_2  and  C_13
REMARK    3  A    between atoms: O_3  and  C_4
REMARK                            x       y       z     vdW  Elec       q    Type
REMARK                         _______ _______ _______ _____ _____    ______ ____
ROOT
ATOM      1  C   UNL     1       1.513   9.500  19.133  0.00  0.00    +0.000 A 
ATOM      2  C   UNL     1       1.524  10.821  18.730  0.00  0.00    +0.000 A 
ATOM      3  N   UNL     1       0.938  11.612  19.693  0.00  0.00    +0.000 N 
ATOM      4  C   UNL     1       0.832  13.008  19.608  0.00  0.00    +0.000 A 
ATOM      5  N   UNL     1       1.223  13.672  18.530  0.00  0.00    +0.000 NA
ATOM      6  C   UNL     1       0.980  14.988  18.825  0.00  0.00    +0.000 A 
ATOM      7  C   UNL     1       0.460  15.087  20.088  0.00  0.00    +0.000 A 
ATOM      8  O   UNL     1       0.341  13.832  20.597  0.00  0.00    +0.000 OA
ATOM      9  C   UNL     1       0.483  10.785  20.718  0.00  0.00    +0.000 A 
ATOM     10  C   UNL     1      -0.239  11.079  21.895  0.00  0.00    +0.000 A 
ATOM     11  C   UNL     1      -0.594  10.031  22.744  0.00  0.00    +0.000 A 
ATOM     12  C   UNL     1      -0.242   8.722  22.442  0.00  0.00    +0.000 A 
ATOM     13  C   UNL     1       0.479   8.431  21.280  0.00  0.00    +0.000 A 
ATOM     14  C   UNL     1       0.844   9.469  20.394  0.00  0.00    +0.000 A 
ENDROOT
BRANCH   1  16
ATOM     15  O   UNL     1       2.452   8.512  17.199  0.00  0.00    +0.000 OA
ATOM     16  C   UNL     1       2.004   8.389  18.332  0.00  0.00    +0.000 C 
BRANCH  16  17
ATOM     17  O   UNL     1       2.039   7.227  19.059  0.00  0.00    +0.000 OA
BRANCH  17  18
ATOM     18  C   UNL     1       2.823   6.172  18.475  0.00  0.00    +0.000 C 
ATOM     19  C   UNL     1       3.808   5.666  19.545  0.00  0.00    +0.000 C 
ATOM     20  C   UNL     1       3.512   4.283  20.128  0.00  0.00    +0.000 C 
ATOM     21  C   UNL     1       2.429   4.314  21.233  0.00  0.00    +0.000 C 
ATOM     22  O   UNL     1       1.141   4.662  20.716  0.00  0.00    +0.000 OA
ATOM     23  C   UNL     1       0.779   3.751  19.675  0.00  0.00    +0.000 C 
ATOM     24  C   UNL     1       1.820   3.764  18.536  0.00  0.00    +0.000 C 
ATOM     25  C   UNL     1       1.898   5.127  17.835  0.00  0.00    +0.000 C 
ATOM     26  N   UNL     1       3.147   3.364  19.036  0.00  0.00    +0.000 NA
ATOM     27  H   UNL     1       3.836   3.425  18.286  0.00  0.00    +0.000 HD
ENDBRANCH  17  18
ENDBRANCH  16  17
ENDBRANCH   1  16
TORSDOF 3
ENDMDL
MODEL 8
REMARK VINA RESULT:      -7.6      2.307      7.578
REMARK  Name = 
REMARK  3 active torsions:
REMARK  status: ('A' for Active; 'I' for Inactive)
REMARK    1  A    between atoms: C_2  and  O_3
REMARK    2  A    between atoms: C_2  and  C_13
REMARK    3  A    between atoms: O_3  and  C_4
REMARK                            x       y       z     vdW  Elec       q    Type
REMARK                         _______ _______ _______ _____ _____    ______ ____
ROOT
ATOM      1  C   UNL     1       1.565   8.432  19.016  0.00  0.00    +0.000 A 
ATOM      2  C   UNL     1       0.623   8.940  18.144  0.00  0.00    +0.000 A 
ATOM      3  N   UNL     1      -0.288   9.710  18.831  0.00  0.00    +0.000 N 
ATOM      4  C   UNL     1      -1.347  10.404  18.228  0.00  0.00    +0.000 A 
ATOM      5  N   UNL     1      -1.601  10.298  16.931  0.00  0.00    +0.000 NA
ATOM      6  C   UNL     1      -2.677  11.118  16.719  0.00  0.00    +0.000 A 
ATOM      7  C   UNL     1      -3.039  11.715  17.897  0.00  0.00    +0.000 A 
ATOM      8  O   UNL     1      -2.213  11.257  18.875  0.00  0.00    +0.000 OA
ATOM      9  C   UNL     1       0.030   9.656  20.186  0.00  0.00    +0.000 A 
ATOM     10  C   UNL     1      -0.617  10.206  21.313  0.00  0.00    +0.000 A 
ATOM     11  C   UNL     1      -0.083   9.964  22.579  0.00  0.00    +0.000 A 
ATOM     12  C   UNL     1       1.066   9.199  22.731  0.00  0.00    +0.000 A 
ATOM     13  C   UNL     1       1.711   8.659  21.614  0.00  0.00    +0.000 A 
ATOM     14  C   UNL     1       1.189   8.877  20.320  0.00  0.00    +0.000 A 
ENDROOT
BRANCH   1  16
ATOM     15  O   UNL     1       3.500   7.812  17.804  0.00  0.00    +0.000 OA
ATOM     16  C   UNL     1       2.644   7.533  18.634  0.00  0.00    +0.000 C 
BRANCH  16  17
ATOM     17  O   UNL     1       2.662   6.412  19.423  0.00  0.00    +0.000 OA
BRANCH  17  18
ATOM     18  C   UNL     1       1.600   5.477  19.169  0.00  0.00    +0.000 C 
ATOM     19  C   UNL     1       1.882   4.796  17.817  0.00  0.00    +0.000 C 
ATOM     20  C   UNL     1       2.322   3.332  17.883  0.00  0.00    +0.000 C 
ATOM     21  C   UNL     1       3.827   3.168  18.205  0.00  0.00    +0.000 C 
ATOM     22  O   UNL     1       4.143   3.597  19.533  0.00  0.00    +0.000 OA
ATOM     23  C   UNL     1       3.340   2.879  20.474  0.00  0.00    +0.000 C 
ATOM     24  C   UNL     1       1.837   3.091  20.200  0.00  0.00    +0.000 C 
ATOM     25  C   UNL     1       1.414   4.555  20.383  0.00  0.00    +0.000 C 
ATOM     26  N   UNL     1       1.477   2.615  18.853  0.00  0.00    +0.000 NA
ATOM     27  H   UNL     1       0.492   2.807  18.665  0.00  0.00    +0.000 HD
ENDBRANCH  17  18
ENDBRANCH  16  17
ENDBRANCH   1  16
TORSDOF 3
ENDMDL
MODEL 9
REMARK VINA RESULT:      -7.5      2.510      7.749
REMARK  Name = 
REMARK  3 active torsions:
REMARK  status: ('A' for Active; 'I' for Inactive)
REMARK    1  A    between atoms: C_2  and  O_3
REMARK    2  A    between atoms: C_2  and  C_13
REMARK    3  A    between atoms: O_3  and  C_4
REMARK                            x       y       z     vdW  Elec       q    Type
REMARK                         _______ _______ _______ _____ _____    ______ ____
ROOT
ATOM      1  C   UNL     1       0.901   9.238  18.252  0.00  0.00    +0.000 A 
ATOM      2  C   UNL     1      -0.121   9.394  17.338  0.00  0.00    +0.000 A 
ATOM      3  N   UNL     1      -1.124  10.167  17.880  0.00  0.00    +0.000 N 
ATOM      4  C   UNL     1      -2.284  10.549  17.190  0.00  0.00    +0.000 A 
ATOM      5  N   UNL     1      -2.543  10.111  15.966  0.00  0.00    +0.000 NA
ATOM      6  C   UNL     1      -3.732  10.703  15.630  0.00  0.00    +0.000 A 
ATOM      7  C   UNL     1      -4.157  11.500  16.660  0.00  0.00    +0.000 A 
ATOM      8  O   UNL     1      -3.254  11.399  17.672  0.00  0.00    +0.000 OA
ATOM      9  C   UNL     1      -0.776  10.472  19.194  0.00  0.00    +0.000 A 
ATOM     10  C   UNL     1      -1.477  11.173  20.199  0.00  0.00    +0.000 A 
ATOM     11  C   UNL     1      -0.890  11.307  21.458  0.00  0.00    +0.000 A 
ATOM     12  C   UNL     1       0.362  10.765  21.719  0.00  0.00    +0.000 A 
ATOM     13  C   UNL     1       1.059  10.077  20.721  0.00  0.00    +0.000 A 
ATOM     14  C   UNL     1       0.487   9.915  19.440  0.00  0.00    +0.000 A 
ENDROOT
BRANCH   1  16
ATOM     15  O   UNL     1       3.195   8.906  17.779  0.00  0.00    +0.000 OA
ATOM     16  C   UNL     1       2.093   8.434  18.028  0.00  0.00    +0.000 C 
BRANCH  16  17
ATOM     17  O   UNL     1       1.855   7.107  18.278  0.00  0.00    +0.000 OA
BRANCH  17  18
ATOM     18  C   UNL     1       2.851   6.456  19.086  0.00  0.00    +0.000 C 
ATOM     19  C   UNL     1       2.123   5.657  20.183  0.00  0.00    +0.000 C 
ATOM     20  C   UNL     1       2.143   4.135  20.028  0.00  0.00    +0.000 C 
ATOM     21  C   UNL     1       1.077   3.615  19.033  0.00  0.00    +0.000 C 
ATOM     22  O   UNL     1       1.353   4.020  17.688  0.00  0.00    +0.000 OA
ATOM     23  C   UNL     1       2.659   3.576  17.311  0.00  0.00    +0.000 C 
ATOM     24  C   UNL     1       3.736   4.144  18.259  0.00  0.00    +0.000 C 
ATOM     25  C   UNL     1       3.822   5.675  18.189  0.00  0.00    +0.000 C 
ATOM     26  N   UNL     1       3.499   3.704  19.645  0.00  0.00    +0.000 NA
ATOM     27  H   UNL     1       4.187   4.127  20.269  0.00  0.00    +0.000 HD
ENDBRANCH  17  18
ENDBRANCH  16  17
ENDBRANCH   1  16
TORSDOF 3
ENDMDL
