MODEL 1
REMARK VINA RESULT:      -7.7      0.000      0.000
REMARK  Name = 
REMARK  1 active torsions:
REMARK  status: ('A' for Active; 'I' for Inactive)
REMARK    1  A    between atoms: N_11  and  C_12
REMARK                            x       y       z     vdW  Elec       q    Type
REMARK                         _______ _______ _______ _____ _____    ______ ____
ROOT
ATOM      1 CL   UNL     1       2.055   9.819  17.763  0.00  0.00    +0.000 Cl
ATOM      2  C   UNL     1       2.350   8.283  18.488  0.00  0.00    +0.000 A 
ATOM      3  C   UNL     1       1.693   7.947  19.664  0.00  0.00    +0.000 A 
ATOM      4  C   UNL     1       1.904   6.698  20.253  0.00  0.00    +0.000 A 
ATOM      5  C   UNL     1       2.799   5.798  19.649  0.00  0.00    +0.000 A 
ATOM      6  C   UNL     1       3.209   4.481  19.931  0.00  0.00    +0.000 A 
ATOM      7  N   UNL     1       3.067   3.421  20.791  0.00  0.00    +0.000 N 
ATOM      8  N   UNL     1       3.806   2.313  20.514  0.00  0.00    +0.000 NA
ATOM      9  C   UNL     1       4.443   2.738  19.404  0.00  0.00    +0.000 A 
ATOM     10  C   UNL     1       4.094   4.061  18.991  0.00  0.00    +0.000 A 
ATOM     11  N   UNL     1       4.321   5.074  18.080  0.00  0.00    +0.000 N 
ATOM     12  C   UNL     1       3.499   6.148  18.476  0.00  0.00    +0.000 A 
ATOM     13  C   UNL     1       3.242   7.399  17.871  0.00  0.00    +0.000 A 
ATOM     14  H   UNL     1       2.463   3.414  21.606  0.00  0.00    +0.000 HD
ENDROOT
BRANCH  11  15
ATOM     15  C   UNL     1       5.211   5.005  16.977  0.00  0.00    +0.000 A 
ATOM     16  C   UNL     1       4.952   4.198  15.868  0.00  0.00    +0.000 A 
ATOM     17  C   UNL     1       5.873   4.152  14.823  0.00  0.00    +0.000 A 
ATOM     18  C   UNL     1       7.017   4.924  14.915  0.00  0.00    +0.000 A 
ATOM     19  N   UNL     1       7.288   5.734  15.961  0.00  0.00    +0.000 NA
ATOM     20  C   UNL     1       6.381   5.759  16.966  0.00  0.00    +0.000 A 
ENDBRANCH  11  15
TORSDOF 1
ENDMDL
MODEL 2
REMARK VINA RESULT:      -7.7      3.108      5.682
REMARK  Name = 
REMARK  1 active torsions:
REMARK  status: ('A' for Active; 'I' for Inactive)
REMARK    1  A    between atoms: N_11  and  C_12
REMARK                            x       y       z     vdW  Elec       q    Type
REMARK                         _______ _______ _______ _____ _____    ______ ____
ROOT
ATOM      1 CL   UNL     1       4.945   3.440  11.973  0.00  0.00    +0.000 Cl
ATOM      2  C   UNL     1       5.635   3.923  13.477  0.00  0.00    +0.000 A 
ATOM      3  C   UNL     1       6.920   4.450  13.499  0.00  0.00    +0.000 A 
ATOM      4  C   UNL     1       7.485   4.867  14.706  0.00  0.00    +0.000 A 
ATOM      5  C   UNL     1       6.745   4.732  15.893  0.00  0.00    +0.000 A 
ATOM      6  C   UNL     1       6.974   5.075  17.239  0.00  0.00    +0.000 A 
ATOM      7  N   UNL     1       7.868   5.631  18.120  0.00  0.00    +0.000 N 
ATOM      8  N   UNL     1       7.481   5.683  19.423  0.00  0.00    +0.000 NA
ATOM      9  C   UNL     1       6.264   5.113  19.321  0.00  0.00    +0.000 A 
ATOM     10  C   UNL     1       5.894   4.739  17.991  0.00  0.00    +0.000 A 
ATOM     11  N   UNL     1       4.936   4.147  17.193  0.00  0.00    +0.000 N 
ATOM     12  C   UNL     1       5.455   4.162  15.882  0.00  0.00    +0.000 A 
ATOM     13  C   UNL     1       4.882   3.784  14.648  0.00  0.00    +0.000 A 
ATOM     14  H   UNL     1       8.781   5.993  17.866  0.00  0.00    +0.000 HD
ENDROOT
BRANCH  11  15
ATOM     15  C   UNL     1       3.689   3.641  17.641  0.00  0.00    +0.000 A 
ATOM     16  C   UNL     1       2.533   4.424  17.649  0.00  0.00    +0.000 A 
ATOM     17  C   UNL     1       1.339   3.881  18.122  0.00  0.00    +0.000 A 
ATOM     18  C   UNL     1       1.338   2.569  18.560  0.00  0.00    +0.000 A 
ATOM     19  N   UNL     1       2.429   1.776  18.543  0.00  0.00    +0.000 NA
ATOM     20  C   UNL     1       3.579   2.326  18.083  0.00  0.00    +0.000 A 
ENDBRANCH  11  15
TORSDOF 1
ENDMDL
MODEL 3
REMARK VINA RESULT:      -7.6      2.769      5.505
REMARK  Name = 
REMARK  1 active torsions:
REMARK  status: ('A' for Active; 'I' for Inactive)
REMARK    1  A    between atoms: N_11  and  C_12
REMARK                            x       y       z     vdW  Elec       q    Type
REMARK                         _______ _______ _______ _____ _____    ______ ____
ROOT
ATOM      1 CL   UNL     1       0.352   2.078  18.803  0.00  0.00    +0.000 Cl
ATOM      2  C   UNL     1       1.792   2.898  18.328  0.00  0.00    +0.000 A 
ATOM      3  C   UNL     1       2.870   2.162  17.853  0.00  0.00    +0.000 A 
ATOM      4  C   UNL     1       4.036   2.811  17.443  0.00  0.00    +0.000 A 
ATOM      5  C   UNL     1       4.108   4.213  17.533  0.00  0.00    +0.000 A 
ATOM      6  C   UNL     1       5.077   5.172  17.182  0.00  0.00    +0.000 A 
ATOM      7  N   UNL     1       6.328   5.362  16.650  0.00  0.00    +0.000 N 
ATOM      8  N   UNL     1       6.761   6.648  16.565  0.00  0.00    +0.000 NA
ATOM      9  C   UNL     1       5.692   7.282  17.087  0.00  0.00    +0.000 A 
ATOM     10  C   UNL     1       4.617   6.418  17.464  0.00  0.00    +0.000 A 
ATOM     11  N   UNL     1       3.360   6.333  18.027  0.00  0.00    +0.000 N 
ATOM     12  C   UNL     1       3.032   4.962  18.051  0.00  0.00    +0.000 A 
ATOM     13  C   UNL     1       1.845   4.292  18.422  0.00  0.00    +0.000 A 
ATOM     14  H   UNL     1       6.939   4.618  16.329  0.00  0.00    +0.000 HD
ENDROOT
BRANCH  11  15
ATOM     15  C   UNL     1       2.583   7.432  18.477  0.00  0.00    +0.000 A 
ATOM     16  C   UNL     1       2.214   8.475  17.625  0.00  0.00    +0.000 A 
ATOM     17  C   UNL     1       1.470   9.541  18.127  0.00  0.00    +0.000 A 
ATOM     18  C   UNL     1       1.108   9.524  19.462  0.00  0.00    +0.000 A 
ATOM     19  N   UNL     1       1.425   8.521  20.308  0.00  0.00    +0.000 NA
ATOM     20  C   UNL     1       2.152   7.498  19.799  0.00  0.00    +0.000 A 
ENDBRANCH  11  15
TORSDOF 1
ENDMDL
MODEL 4
REMARK VINA RESULT:      -7.6      2.522      5.053
REMARK  Name = 
REMARK  1 active torsions:
REMARK  status: ('A' for Active; 'I' for Inactive)
REMARK    1  A    between atoms: N_11  and  C_12
REMARK                            x       y       z     vdW  Elec       q    Type
REMARK                         _______ _______ _______ _____ _____    ______ ____
ROOT
ATOM      1 CL   UNL     1       8.052   7.869  17.356  0.00  0.00    +0.000 Cl
ATOM      2  C   UNL     1       6.784   6.701  17.338  0.00  0.00    +0.000 A 
ATOM      3  C   UNL     1       7.051   5.411  16.898  0.00  0.00    +0.000 A 
ATOM      4  C   UNL     1       6.041   4.447  16.898  0.00  0.00    +0.000 A 
ATOM      5  C   UNL     1       4.752   4.804  17.332  0.00  0.00    +0.000 A 
ATOM      6  C   UNL     1       3.543   4.104  17.502  0.00  0.00    +0.000 A 
ATOM      7  N   UNL     1       2.924   2.885  17.378  0.00  0.00    +0.000 N 
ATOM      8  N   UNL     1       1.611   2.834  17.728  0.00  0.00    +0.000 NA
ATOM      9  C   UNL     1       1.422   4.120  18.088  0.00  0.00    +0.000 A 
ATOM     10  C   UNL     1       2.589   4.941  17.986  0.00  0.00    +0.000 A 
ATOM     11  N   UNL     1       3.112   6.210  18.129  0.00  0.00    +0.000 N 
ATOM     12  C   UNL     1       4.465   6.122  17.743  0.00  0.00    +0.000 A 
ATOM     13  C   UNL     1       5.508   7.074  17.776  0.00  0.00    +0.000 A 
ATOM     14  H   UNL     1       3.374   2.039  17.044  0.00  0.00    +0.000 HD
ENDROOT
BRANCH  11  15
ATOM     15  C   UNL     1       2.396   7.349  18.581  0.00  0.00    +0.000 A 
ATOM     16  C   UNL     1       2.035   8.385  17.718  0.00  0.00    +0.000 A 
ATOM     17  C   UNL     1       1.353   9.491  18.221  0.00  0.00    +0.000 A 
ATOM     18  C   UNL     1       1.042   9.519  19.569  0.00  0.00    +0.000 A 
ATOM     19  N   UNL     1       1.353   8.525  20.427  0.00  0.00    +0.000 NA
ATOM     20  C   UNL     1       2.020   7.462  19.916  0.00  0.00    +0.000 A 
ENDBRANCH  11  15
TORSDOF 1
ENDMDL
MODEL 5
REMARK VINA RESULT:      -7.6      3.286      5.661
REMARK  Name = 
REMARK  1 active torsions:
REMARK  status: ('A' for Active; 'I' for Inactive)
REMARK    1  A    between atoms: N_11  and  C_12
REMARK                            x       y       z     vdW  Elec       q    Type
REMARK                         _______ _______ _______ _____ _____    ______ ____
ROOT
ATOM      1 CL   UNL     1       4.935   3.433  11.998  0.00  0.00    +0.000 Cl
ATOM      2  C   UNL     1       5.631   3.913  13.500  0.00  0.00    +0.000 A 
ATOM      3  C   UNL     1       6.907   4.461  13.517  0.00  0.00    +0.000 A 
ATOM      4  C   UNL     1       7.476   4.875  14.722  0.00  0.00    +0.000 A 
ATOM      5  C   UNL     1       6.749   4.716  15.915  0.00  0.00    +0.000 A 
ATOM      6  C   UNL     1       6.984   5.050  17.262  0.00  0.00    +0.000 A 
ATOM      7  N   UNL     1       7.876   5.612  18.140  0.00  0.00    +0.000 N 
ATOM      8  N   UNL     1       7.501   5.645  19.447  0.00  0.00    +0.000 NA
ATOM      9  C   UNL     1       6.292   5.056  19.350  0.00  0.00    +0.000 A 
ATOM     10  C   UNL     1       5.917   4.688  18.020  0.00  0.00    +0.000 A 
ATOM     11  N   UNL     1       4.962   4.089  17.225  0.00  0.00    +0.000 N 
ATOM     12  C   UNL     1       5.469   4.125  15.909  0.00  0.00    +0.000 A 
ATOM     13  C   UNL     1       4.891   3.750  14.676  0.00  0.00    +0.000 A 
ATOM     14  H   UNL     1       8.781   5.991  17.882  0.00  0.00    +0.000 HD
ENDROOT
BRANCH  11  15
ATOM     15  C   UNL     1       3.727   3.557  17.679  0.00  0.00    +0.000 A 
ATOM     16  C   UNL     1       3.651   2.339  18.356  0.00  0.00    +0.000 A 
ATOM     17  C   UNL     1       2.408   1.854  18.759  0.00  0.00    +0.000 A 
ATOM     18  C   UNL     1       1.282   2.610  18.484  0.00  0.00    +0.000 A 
ATOM     19  N   UNL     1       1.321   3.803  17.854  0.00  0.00    +0.000 NA
ATOM     20  C   UNL     1       2.539   4.252  17.468  0.00  0.00    +0.000 A 
ENDBRANCH  11  15
TORSDOF 1
ENDMDL
MODEL 6
REMARK VINA RESULT:      -7.4      2.762      5.508
REMARK  Name = 
REMARK  1 active torsions:
REMARK  status: ('A' for Active; 'I' for Inactive)
REMARK    1  A    between atoms: N_11  and  C_12
REMARK                            x       y       z     vdW  Elec       q    Type
REMARK                         _______ _______ _______ _____ _____    ______ ____
ROOT
ATOM      1 CL   UNL     1       0.351   2.054  18.862  0.00  0.00    +0.000 Cl
ATOM      2  C   UNL     1       1.788   2.869  18.371  0.00  0.00    +0.000 A 
ATOM      3  C   UNL     1       2.857   2.131  17.879  0.00  0.00    +0.000 A 
ATOM      4  C   UNL     1       4.020   2.777  17.456  0.00  0.00    +0.000 A 
ATOM      5  C   UNL     1       4.099   4.178  17.549  0.00  0.00    +0.000 A 
ATOM      6  C   UNL     1       5.067   5.134  17.188  0.00  0.00    +0.000 A 
ATOM      7  N   UNL     1       6.311   5.321  16.640  0.00  0.00    +0.000 N 
ATOM      8  N   UNL     1       6.748   6.605  16.554  0.00  0.00    +0.000 NA
ATOM      9  C   UNL     1       5.689   7.242  17.092  0.00  0.00    +0.000 A 
ATOM     10  C   UNL     1       4.615   6.381  17.481  0.00  0.00    +0.000 A 
ATOM     11  N   UNL     1       3.365   6.300  18.060  0.00  0.00    +0.000 N 
ATOM     12  C   UNL     1       3.033   4.930  18.083  0.00  0.00    +0.000 A 
ATOM     13  C   UNL     1       1.848   4.264  18.468  0.00  0.00    +0.000 A 
ATOM     14  H   UNL     1       6.914   4.575  16.308  0.00  0.00    +0.000 HD
ENDROOT
BRANCH  11  15
ATOM     15  C   UNL     1       2.600   7.401  18.524  0.00  0.00    +0.000 A 
ATOM     16  C   UNL     1       2.149   7.484  19.842  0.00  0.00    +0.000 A 
ATOM     17  C   UNL     1       1.380   8.578  20.237  0.00  0.00    +0.000 A 
ATOM     18  C   UNL     1       1.099   9.559  19.304  0.00  0.00    +0.000 A 
ATOM     19  N   UNL     1       1.539   9.524  18.028  0.00  0.00    +0.000 NA
ATOM     20  C   UNL     1       2.280   8.449  17.666  0.00  0.00    +0.000 A 
ENDBRANCH  11  15
TORSDOF 1
ENDMDL
MODEL 7
REMARK VINA RESULT:      -7.4      1.168      1.513
REMARK  Name = 
REMARK  1 active torsions:
REMARK  status: ('A' for Active; 'I' for Inactive)
REMARK    1  A    between atoms: N_11  and  C_12
REMARK                            x       y       z     vdW  Elec       q    Type
REMARK                         _______ _______ _______ _____ _____    ______ ____
ROOT
ATOM      1 CL   UNL     1       2.035   9.783  17.838  0.00  0.00    +0.000 Cl
ATOM      2  C   UNL     1       2.116   8.331  18.764  0.00  0.00    +0.000 A 
ATOM      3  C   UNL     1       1.327   8.201  19.899  0.00  0.00    +0.000 A 
ATOM      4  C   UNL     1       1.364   7.023  20.648  0.00  0.00    +0.000 A 
ATOM      5  C   UNL     1       2.220   5.982  20.247  0.00  0.00    +0.000 A 
ATOM      6  C   UNL     1       2.476   4.681  20.721  0.00  0.00    +0.000 A 
ATOM      7  N   UNL     1       2.157   3.753  21.680  0.00  0.00    +0.000 N 
ATOM      8  N   UNL     1       2.808   2.562  21.610  0.00  0.00    +0.000 NA
ATOM      9  C   UNL     1       3.580   2.789  20.528  0.00  0.00    +0.000 A 
ATOM     10  C   UNL     1       3.397   4.074  19.929  0.00  0.00    +0.000 A 
ATOM     11  N   UNL     1       3.801   4.942  18.934  0.00  0.00    +0.000 N 
ATOM     12  C   UNL     1       3.052   6.123  19.118  0.00  0.00    +0.000 A 
ATOM     13  C   UNL     1       2.971   7.305  18.348  0.00  0.00    +0.000 A 
ATOM     14  H   UNL     1       1.485   3.899  22.425  0.00  0.00    +0.000 HD
ENDROOT
BRANCH  11  15
ATOM     15  C   UNL     1       4.775   4.661  17.942  0.00  0.00    +0.000 A 
ATOM     16  C   UNL     1       6.140   4.836  18.177  0.00  0.00    +0.000 A 
ATOM     17  C   UNL     1       7.052   4.566  17.158  0.00  0.00    +0.000 A 
ATOM     18  C   UNL     1       6.570   4.117  15.941  0.00  0.00    +0.000 A 
ATOM     19  N   UNL     1       5.260   3.913  15.687  0.00  0.00    +0.000 NA
ATOM     20  C   UNL     1       4.393   4.186  16.691  0.00  0.00    +0.000 A 
ENDBRANCH  11  15
TORSDOF 1
ENDMDL
MODEL 8
REMARK VINA RESULT:      -7.3      2.758      5.453
REMARK  Name = 
REMARK  1 active torsions:
REMARK  status: ('A' for Active; 'I' for Inactive)
REMARK    1  A    between atoms: N_11  and  C_12
REMARK                            x       y       z     vdW  Elec       q    Type
REMARK                         _______ _______ _______ _____ _____    ______ ____
ROOT
ATOM      1 CL   UNL     1       1.352   2.628  21.799  0.00  0.00    +0.000 Cl
ATOM      2  C   UNL     1       2.496   3.276  20.684  0.00  0.00    +0.000 A 
ATOM      3  C   UNL     1       3.569   2.494  20.277  0.00  0.00    +0.000 A 
ATOM      4  C   UNL     1       4.493   2.994  19.358  0.00  0.00    +0.000 A 
ATOM      5  C   UNL     1       4.331   4.301  18.865  0.00  0.00    +0.000 A 
ATOM      6  C   UNL     1       5.021   5.091  17.926  0.00  0.00    +0.000 A 
ATOM      7  N   UNL     1       6.084   5.132  17.059  0.00  0.00    +0.000 N 
ATOM      8  N   UNL     1       6.255   6.289  16.365  0.00  0.00    +0.000 NA
ATOM      9  C   UNL     1       5.218   7.000  16.851  0.00  0.00    +0.000 A 
ATOM     10  C   UNL     1       4.413   6.299  17.803  0.00  0.00    +0.000 A 
ATOM     11  N   UNL     1       3.332   6.366  18.658  0.00  0.00    +0.000 N 
ATOM     12  C   UNL     1       3.266   5.114  19.304  0.00  0.00    +0.000 A 
ATOM     13  C   UNL     1       2.317   4.577  20.203  0.00  0.00    +0.000 A 
ATOM     14  H   UNL     1       6.740   4.372  16.911  0.00  0.00    +0.000 HD
ENDROOT
BRANCH  11  15
ATOM     15  C   UNL     1       2.479   7.488  18.822  0.00  0.00    +0.000 A 
ATOM     16  C   UNL     1       2.121   8.307  17.749  0.00  0.00    +0.000 A 
ATOM     17  C   UNL     1       1.299   9.410  17.972  0.00  0.00    +0.000 A 
ATOM     18  C   UNL     1       0.851   9.651  19.259  0.00  0.00    +0.000 A 
ATOM     19  N   UNL     1       1.157   8.867  20.314  0.00  0.00    +0.000 NA
ATOM     20  C   UNL     1       1.961   7.803  20.074  0.00  0.00    +0.000 A 
ENDBRANCH  11  15
TORSDOF 1
ENDMDL
MODEL 9
REMARK VINA RESULT:      -7.3      2.490      5.064
REMARK  Name = 
REMARK  1 active torsions:
REMARK  status: ('A' for Active; 'I' for Inactive)
REMARK    1  A    between atoms: N_11  and  C_12
REMARK                            x       y       z     vdW  Elec       q    Type
REMARK                         _______ _______ _______ _____ _____    ______ ____
ROOT
ATOM      1 CL   UNL     1       7.940   7.710  17.080  0.00  0.00    +0.000 Cl
ATOM      2  C   UNL     1       6.666   6.550  17.130  0.00  0.00    +0.000 A 
ATOM      3  C   UNL     1       6.889   5.270  16.638  0.00  0.00    +0.000 A 
ATOM      4  C   UNL     1       5.875   4.312  16.691  0.00  0.00    +0.000 A 
ATOM      5  C   UNL     1       4.626   4.665  17.232  0.00  0.00    +0.000 A 
ATOM      6  C   UNL     1       3.428   3.967  17.476  0.00  0.00    +0.000 A 
ATOM      7  N   UNL     1       2.793   2.755  17.369  0.00  0.00    +0.000 N 
ATOM      8  N   UNL     1       1.510   2.702  17.817  0.00  0.00    +0.000 NA
ATOM      9  C   UNL     1       1.359   3.978  18.223  0.00  0.00    +0.000 A 
ATOM     10  C   UNL     1       2.520   4.796  18.053  0.00  0.00    +0.000 A 
ATOM     11  N   UNL     1       3.062   6.058  18.188  0.00  0.00    +0.000 N 
ATOM     12  C   UNL     1       4.381   5.973  17.697  0.00  0.00    +0.000 A 
ATOM     13  C   UNL     1       5.431   6.918  17.674  0.00  0.00    +0.000 A 
ATOM     14  H   UNL     1       3.209   1.916  16.980  0.00  0.00    +0.000 HD
ENDROOT
BRANCH  11  15
ATOM     15  C   UNL     1       2.391   7.189  18.722  0.00  0.00    +0.000 A 
ATOM     16  C   UNL     1       2.068   7.284  20.077  0.00  0.00    +0.000 A 
ATOM     17  C   UNL     1       1.389   8.409  20.543  0.00  0.00    +0.000 A 
ATOM     18  C   UNL     1       1.067   9.407  19.641  0.00  0.00    +0.000 A 
ATOM     19  N   UNL     1       1.385   9.360  18.330  0.00  0.00    +0.000 NA
ATOM     20  C   UNL     1       2.041   8.255  17.900  0.00  0.00    +0.000 A 
ENDBRANCH  11  15
TORSDOF 1
ENDMDL
