MODEL 1
REMARK VINA RESULT:      -8.6      0.000      0.000
REMARK  Name = 
REMARK  8 active torsions:
REMARK  status: ('A' for Active; 'I' for Inactive)
REMARK    1  A    between atoms: C_1  and  C_2
REMARK    2  A    between atoms: C_2  and  C_3
REMARK    3  A    between atoms: C_2  and  C_4
REMARK    4  A    between atoms: C_4  and  C_5
REMARK    5  A    between atoms: C_4  and  C_23
REMARK    6  A    between atoms: N_7  and  C_8
REMARK    7  A    between atoms: N_13  and  C_14
REMARK    8  A    between atoms: C_14  and  C_15
REMARK                            x       y       z     vdW  Elec       q    Type
REMARK                         _______ _______ _______ _____ _____    ______ ____
ROOT
ATOM      1  C   UNL     1       3.408   2.756  18.493  0.00  0.00    +0.000 C 
ATOM      2  C   UNL     1       2.236   1.989  17.855  0.00  0.00    +0.000 C 
ATOM      3  C   UNL     1       0.983   2.464  18.565  0.00  0.00    +0.000 C 
ATOM      4  C   UNL     1       1.414   2.826  19.982  0.00  0.00    +0.000 C 
ATOM      5  C   UNL     1       0.862   4.175  20.452  0.00  0.00    +0.000 C 
ATOM      6  N   UNL     1       1.975   5.100  20.174  0.00  0.00    +0.000 NA
ATOM      7  C   UNL     1       3.148   4.354  20.632  0.00  0.00    +0.000 C 
ATOM      8  C   UNL     1       2.949   2.993  19.958  0.00  0.00    +0.000 C 
ENDROOT
BRANCH   1  11
ATOM      9  C   UNL     1       4.869   3.946  16.814  0.00  0.00    +0.000 C 
ATOM     10  O   UNL     1       5.509   2.933  16.491  0.00  0.00    +0.000 OA
ATOM     11  N   UNL     1       3.812   3.908  17.701  0.00  0.00    +0.000 N 
ATOM     12  H   UNL     1       3.259   4.758  17.839  0.00  0.00    +0.000 HD
BRANCH   9  13
ATOM     13  C   UNL     1       5.244   5.354  16.223  0.00  0.00    +0.000 C 
BRANCH  13  14
ATOM     14  C   UNL     1       6.190   6.147  17.173  0.00  0.00    +0.000 A 
ATOM     15  C   UNL     1       6.485   7.505  16.979  0.00  0.00    +0.000 A 
ATOM     16  C   UNL     1       7.563   8.121  17.638  0.00  0.00    +0.000 A 
ATOM     17  C   UNL     1       8.290   7.422  18.592  0.00  0.00    +0.000 A 
ATOM     18  C   UNL     1       7.883   6.142  18.946  0.00  0.00    +0.000 A 
ATOM     19  C   UNL     1       6.831   5.519  18.256  0.00  0.00    +0.000 A 
ENDBRANCH  13  14
BRANCH  13  21
ATOM     20  C   UNL     1       7.301   4.910  14.690  0.00  0.00    +0.000 C 
ATOM     21  C   UNL     1       5.801   5.197  14.741  0.00  0.00    +0.000 C 
ATOM     22  C   UNL     1       5.154   4.113  13.856  0.00  0.00    +0.000 C 
ENDBRANCH  13  21
ENDBRANCH   9  13
ENDBRANCH   1  11
BRANCH   6  23
ATOM     23  C   UNL     1       1.819   6.425  20.785  0.00  0.00    +0.000 C 
BRANCH  23  24
ATOM     24  C   UNL     1       1.855   7.585  19.792  0.00  0.00    +0.000 A 
ATOM     25  C   UNL     1       2.519   7.470  18.553  0.00  0.00    +0.000 A 
ATOM     26  C   UNL     1       2.543   8.544  17.655  0.00  0.00    +0.000 A 
ATOM     27  C   UNL     1       1.871   9.731  17.962  0.00  0.00    +0.000 A 
ATOM     28  C   UNL     1       1.196   9.849  19.160  0.00  0.00    +0.000 A 
ATOM     29  C   UNL     1       1.187   8.784  20.064  0.00  0.00    +0.000 A 
ENDBRANCH  23  24
ENDBRANCH   6  23
TORSDOF 6
ENDMDL
MODEL 2
REMARK VINA RESULT:      -8.0      0.508      1.226
REMARK  Name = 
REMARK  8 active torsions:
REMARK  status: ('A' for Active; 'I' for Inactive)
REMARK    1  A    between atoms: C_1  and  C_2
REMARK    2  A    between atoms: C_2  and  C_3
REMARK    3  A    between atoms: C_2  and  C_4
REMARK    4  A    between atoms: C_4  and  C_5
REMARK    5  A    between atoms: C_4  and  C_23
REMARK    6  A    between atoms: N_7  and  C_8
REMARK    7  A    between atoms: N_13  and  C_14
REMARK    8  A    between atoms: C_14  and  C_15
REMARK                            x       y       z     vdW  Elec       q    Type
REMARK                         _______ _______ _______ _____ _____    ______ ____
ROOT
ATOM      1  C   UNL     1       3.182   2.410  18.517  0.00  0.00    +0.000 C 
ATOM      2  C   UNL     1       1.862   1.822  17.988  0.00  0.00    +0.000 C 
ATOM      3  C   UNL     1       0.752   2.525  18.746  0.00  0.00    +0.000 C 
ATOM      4  C   UNL     1       1.328   2.867  20.116  0.00  0.00    +0.000 C 
ATOM      5  C   UNL     1       1.033   4.306  20.548  0.00  0.00    +0.000 C 
ATOM      6  N   UNL     1       2.260   5.024  20.160  0.00  0.00    +0.000 NA
ATOM      7  C   UNL     1       3.325   4.113  20.586  0.00  0.00    +0.000 C 
ATOM      8  C   UNL     1       2.865   2.778  19.994  0.00  0.00    +0.000 C 
ENDROOT
BRANCH   1  11
ATOM      9  C   UNL     1       4.742   3.290  16.739  0.00  0.00    +0.000 C 
ATOM     10  O   UNL     1       5.231   2.182  16.469  0.00  0.00    +0.000 OA
ATOM     11  N   UNL     1       3.714   3.448  17.647  0.00  0.00    +0.000 N 
ATOM     12  H   UNL     1       3.283   4.372  17.742  0.00  0.00    +0.000 HD
BRANCH   9  13
ATOM     13  C   UNL     1       5.285   4.597  16.053  0.00  0.00    +0.000 C 
BRANCH  13  14
ATOM     14  C   UNL     1       6.111   5.470  17.045  0.00  0.00    +0.000 A 
ATOM     15  C   UNL     1       6.125   6.872  16.979  0.00  0.00    +0.000 A 
ATOM     16  C   UNL     1       7.097   7.625  17.658  0.00  0.00    +0.000 A 
ATOM     17  C   UNL     1       7.999   6.999  18.508  0.00  0.00    +0.000 A 
ATOM     18  C   UNL     1       7.868   5.637  18.745  0.00  0.00    +0.000 A 
ATOM     19  C   UNL     1       6.920   4.884  18.033  0.00  0.00    +0.000 A 
ENDBRANCH  13  14
BRANCH  13  21
ATOM     20  C   UNL     1       5.144   4.137  13.495  0.00  0.00    +0.000 C 
ATOM     21  C   UNL     1       6.061   4.231  14.713  0.00  0.00    +0.000 C 
ATOM     22  C   UNL     1       7.205   5.169  14.282  0.00  0.00    +0.000 C 
ENDBRANCH  13  21
ENDBRANCH   9  13
ENDBRANCH   1  11
BRANCH   6  23
ATOM     23  C   UNL     1       2.361   6.379  20.712  0.00  0.00    +0.000 C 
BRANCH  23  24
ATOM     24  C   UNL     1       2.110   7.494  19.697  0.00  0.00    +0.000 A 
ATOM     25  C   UNL     1       1.328   8.621  20.025  0.00  0.00    +0.000 A 
ATOM     26  C   UNL     1       1.108   9.633  19.083  0.00  0.00    +0.000 A 
ATOM     27  C   UNL     1       1.698   9.556  17.818  0.00  0.00    +0.000 A 
ATOM     28  C   UNL     1       2.486   8.470  17.492  0.00  0.00    +0.000 A 
ATOM     29  C   UNL     1       2.692   7.451  18.426  0.00  0.00    +0.000 A 
ENDBRANCH  23  24
ENDBRANCH   6  23
TORSDOF 6
ENDMDL
MODEL 3
REMARK VINA RESULT:      -7.6      0.815      1.600
REMARK  Name = 
REMARK  8 active torsions:
REMARK  status: ('A' for Active; 'I' for Inactive)
REMARK    1  A    between atoms: C_1  and  C_2
REMARK    2  A    between atoms: C_2  and  C_3
REMARK    3  A    between atoms: C_2  and  C_4
REMARK    4  A    between atoms: C_4  and  C_5
REMARK    5  A    between atoms: C_4  and  C_23
REMARK    6  A    between atoms: N_7  and  C_8
REMARK    7  A    between atoms: N_13  and  C_14
REMARK    8  A    between atoms: C_14  and  C_15
REMARK                            x       y       z     vdW  Elec       q    Type
REMARK                         _______ _______ _______ _____ _____    ______ ____
ROOT
ATOM      1  C   UNL     1       3.419   2.620  18.849  0.00  0.00    +0.000 C 
ATOM      2  C   UNL     1       2.268   1.832  18.200  0.00  0.00    +0.000 C 
ATOM      3  C   UNL     1       0.988   2.375  18.806  0.00  0.00    +0.000 C 
ATOM      4  C   UNL     1       1.349   2.825  20.218  0.00  0.00    +0.000 C 
ATOM      5  C   UNL     1       0.799   4.212  20.563  0.00  0.00    +0.000 C 
ATOM      6  N   UNL     1       1.944   5.098  20.287  0.00  0.00    +0.000 NA
ATOM      7  C   UNL     1       3.075   4.365  20.859  0.00  0.00    +0.000 C 
ATOM      8  C   UNL     1       2.886   2.965  20.268  0.00  0.00    +0.000 C 
ENDROOT
BRANCH   1  11
ATOM      9  C   UNL     1       5.107   4.350  18.121  0.00  0.00    +0.000 C 
ATOM     10  O   UNL     1       6.001   3.955  18.886  0.00  0.00    +0.000 OA
ATOM     11  N   UNL     1       3.889   3.709  18.006  0.00  0.00    +0.000 N 
ATOM     12  H   UNL     1       3.239   4.020  17.279  0.00  0.00    +0.000 HD
BRANCH   9  13
ATOM     13  C   UNL     1       5.317   5.631  17.233  0.00  0.00    +0.000 C 
BRANCH  13  14
ATOM     14  C   UNL     1       6.582   6.432  17.662  0.00  0.00    +0.000 A 
ATOM     15  C   UNL     1       7.510   5.931  18.588  0.00  0.00    +0.000 A 
ATOM     16  C   UNL     1       8.460   6.769  19.197  0.00  0.00    +0.000 A 
ATOM     17  C   UNL     1       8.576   8.095  18.804  0.00  0.00    +0.000 A 
ATOM     18  C   UNL     1       7.805   8.554  17.743  0.00  0.00    +0.000 A 
ATOM     19  C   UNL     1       6.831   7.724  17.167  0.00  0.00    +0.000 A 
ENDBRANCH  13  14
BRANCH  13  21
ATOM     20  C   UNL     1       5.107   6.445  14.769  0.00  0.00    +0.000 C 
ATOM     21  C   UNL     1       5.291   5.240  15.691  0.00  0.00    +0.000 C 
ATOM     22  C   UNL     1       6.516   4.490  15.133  0.00  0.00    +0.000 C 
ENDBRANCH  13  21
ENDBRANCH   9  13
ENDBRANCH   1  11
BRANCH   6  23
ATOM     23  C   UNL     1       1.782   6.463  20.797  0.00  0.00    +0.000 C 
BRANCH  23  24
ATOM     24  C   UNL     1       1.839   7.549  19.724  0.00  0.00    +0.000 A 
ATOM     25  C   UNL     1       1.203   8.795  19.907  0.00  0.00    +0.000 A 
ATOM     26  C   UNL     1       1.266   9.779  18.913  0.00  0.00    +0.000 A 
ATOM     27  C   UNL     1       1.997   9.550  17.743  0.00  0.00    +0.000 A 
ATOM     28  C   UNL     1       2.645   8.345  17.562  0.00  0.00    +0.000 A 
ATOM     29  C   UNL     1       2.568   7.356  18.546  0.00  0.00    +0.000 A 
ENDBRANCH  23  24
ENDBRANCH   6  23
TORSDOF 6
ENDMDL
MODEL 4
REMARK VINA RESULT:      -7.5      0.951      1.067
REMARK  Name = 
REMARK  8 active torsions:
REMARK  status: ('A' for Active; 'I' for Inactive)
REMARK    1  A    between atoms: C_1  and  C_2
REMARK    2  A    between atoms: C_2  and  C_3
REMARK    3  A    between atoms: C_2  and  C_4
REMARK    4  A    between atoms: C_4  and  C_5
REMARK    5  A    between atoms: C_4  and  C_23
REMARK    6  A    between atoms: N_7  and  C_8
REMARK    7  A    between atoms: N_13  and  C_14
REMARK    8  A    between atoms: C_14  and  C_15
REMARK                            x       y       z     vdW  Elec       q    Type
REMARK                         _______ _______ _______ _____ _____    ______ ____
ROOT
ATOM      1  C   UNL     1       3.485   2.452  19.177  0.00  0.00    +0.000 C 
ATOM      2  C   UNL     1       2.395   1.767  18.335  0.00  0.00    +0.000 C 
ATOM      3  C   UNL     1       1.084   2.421  18.727  0.00  0.00    +0.000 C 
ATOM      4  C   UNL     1       1.242   2.841  20.184  0.00  0.00    +0.000 C 
ATOM      5  C   UNL     1       0.766   4.271  20.453  0.00  0.00    +0.000 C 
ATOM      6  N   UNL     1       2.013   5.052  20.382  0.00  0.00    +0.000 NA
ATOM      7  C   UNL     1       2.965   4.223  21.124  0.00  0.00    +0.000 C 
ATOM      8  C   UNL     1       2.755   2.844  20.491  0.00  0.00    +0.000 C 
ENDROOT
BRANCH   1  11
ATOM      9  C   UNL     1       3.645   4.259  17.422  0.00  0.00    +0.000 C 
ATOM     10  O   UNL     1       2.440   4.228  17.126  0.00  0.00    +0.000 OA
ATOM     11  N   UNL     1       4.182   3.494  18.438  0.00  0.00    +0.000 N 
ATOM     12  H   UNL     1       5.159   3.648  18.702  0.00  0.00    +0.000 HD
BRANCH   9  13
ATOM     13  C   UNL     1       4.642   5.183  16.631  0.00  0.00    +0.000 C 
BRANCH  13  14
ATOM     14  C   UNL     1       5.734   5.788  17.564  0.00  0.00    +0.000 A 
ATOM     15  C   UNL     1       6.433   6.961  17.239  0.00  0.00    +0.000 A 
ATOM     16  C   UNL     1       7.612   7.319  17.916  0.00  0.00    +0.000 A 
ATOM     17  C   UNL     1       8.045   6.576  19.006  0.00  0.00    +0.000 A 
ATOM     18  C   UNL     1       7.254   5.533  19.470  0.00  0.00    +0.000 A 
ATOM     19  C   UNL     1       6.100   5.155  18.765  0.00  0.00    +0.000 A 
ENDBRANCH  13  14
BRANCH  13  21
ATOM     20  C   UNL     1       5.406   5.303  14.145  0.00  0.00    +0.000 C 
ATOM     21  C   UNL     1       5.226   4.408  15.371  0.00  0.00    +0.000 C 
ATOM     22  C   UNL     1       6.580   3.692  15.547  0.00  0.00    +0.000 C 
ENDBRANCH  13  21
ENDBRANCH   9  13
ENDBRANCH   1  11
BRANCH   6  23
ATOM     23  C   UNL     1       1.888   6.427  20.876  0.00  0.00    +0.000 C 
BRANCH  23  24
ATOM     24  C   UNL     1       1.943   7.497  19.787  0.00  0.00    +0.000 A 
ATOM     25  C   UNL     1       2.590   7.257  18.557  0.00  0.00    +0.000 A 
ATOM     26  C   UNL     1       2.632   8.249  17.569  0.00  0.00    +0.000 A 
ATOM     27  C   UNL     1       1.994   9.476  17.779  0.00  0.00    +0.000 A 
ATOM     28  C   UNL     1       1.336   9.715  18.969  0.00  0.00    +0.000 A 
ATOM     29  C   UNL     1       1.309   8.731  19.961  0.00  0.00    +0.000 A 
ENDBRANCH  23  24
ENDBRANCH   6  23
TORSDOF 6
ENDMDL
MODEL 5
REMARK VINA RESULT:      -7.3      1.419      3.405
REMARK  Name = 
REMARK  8 active torsions:
REMARK  status: ('A' for Active; 'I' for Inactive)
REMARK    1  A    between atoms: C_1  and  C_2
REMARK    2  A    between atoms: C_2  and  C_3
REMARK    3  A    between atoms: C_2  and  C_4
REMARK    4  A    between atoms: C_4  and  C_5
REMARK    5  A    between atoms: C_4  and  C_23
REMARK    6  A    between atoms: N_7  and  C_8
REMARK    7  A    between atoms: N_13  and  C_14
REMARK    8  A    between atoms: C_14  and  C_15
REMARK                            x       y       z     vdW  Elec       q    Type
REMARK                         _______ _______ _______ _____ _____    ______ ____
ROOT
ATOM      1  C   UNL     1       4.128   3.257  18.959  0.00  0.00    +0.000 C 
ATOM      2  C   UNL     1       3.281   2.330  18.070  0.00  0.00    +0.000 C 
ATOM      3  C   UNL     1       2.133   3.174  17.550  0.00  0.00    +0.000 C 
ATOM      4  C   UNL     1       1.853   4.215  18.629  0.00  0.00    +0.000 C 
ATOM      5  C   UNL     1       1.698   5.632  18.070  0.00  0.00    +0.000 C 
ATOM      6  N   UNL     1       3.042   6.208  18.254  0.00  0.00    +0.000 NA
ATOM      7  C   UNL     1       3.411   5.762  19.600  0.00  0.00    +0.000 C 
ATOM      8  C   UNL     1       3.098   4.264  19.542  0.00  0.00    +0.000 C 
ENDROOT
BRANCH   1  11
ATOM      9  C   UNL     1       5.332   4.146  16.926  0.00  0.00    +0.000 C 
ATOM     10  O   UNL     1       4.319   4.187  16.211  0.00  0.00    +0.000 OA
ATOM     11  N   UNL     1       5.289   3.786  18.259  0.00  0.00    +0.000 N 
ATOM     12  H   UNL     1       6.141   3.879  18.818  0.00  0.00    +0.000 HD
BRANCH   9  13
ATOM     13  C   UNL     1       6.746   4.501  16.337  0.00  0.00    +0.000 C 
BRANCH  13  14
ATOM     14  C   UNL     1       6.737   4.515  14.779  0.00  0.00    +0.000 A 
ATOM     15  C   UNL     1       5.905   3.673  14.025  0.00  0.00    +0.000 A 
ATOM     16  C   UNL     1       6.124   3.469  12.651  0.00  0.00    +0.000 A 
ATOM     17  C   UNL     1       7.102   4.195  11.984  0.00  0.00    +0.000 A 
ATOM     18  C   UNL     1       7.796   5.182  12.672  0.00  0.00    +0.000 A 
ATOM     19  C   UNL     1       7.601   5.352  14.052  0.00  0.00    +0.000 A 
ENDBRANCH  13  14
BRANCH  13  21
ATOM     20  C   UNL     1       6.288   6.993  16.934  0.00  0.00    +0.000 C 
ATOM     21  C   UNL     1       7.293   5.843  16.993  0.00  0.00    +0.000 C 
ATOM     22  C   UNL     1       7.741   5.777  18.466  0.00  0.00    +0.000 C 
ENDBRANCH  13  21
ENDBRANCH   9  13
ENDBRANCH   1  11
BRANCH   6  23
ATOM     23  C   UNL     1       3.105   7.659  18.055  0.00  0.00    +0.000 C 
BRANCH  23  24
ATOM     24  C   UNL     1       1.957   8.435  18.700  0.00  0.00    +0.000 A 
ATOM     25  C   UNL     1       1.708   8.357  20.086  0.00  0.00    +0.000 A 
ATOM     26  C   UNL     1       0.652   9.075  20.661  0.00  0.00    +0.000 A 
ATOM     27  C   UNL     1      -0.143   9.910  19.869  0.00  0.00    +0.000 A 
ATOM     28  C   UNL     1       0.105  10.014  18.515  0.00  0.00    +0.000 A 
ATOM     29  C   UNL     1       1.148   9.285  17.938  0.00  0.00    +0.000 A 
ENDBRANCH  23  24
ENDBRANCH   6  23
TORSDOF 6
ENDMDL
MODEL 6
REMARK VINA RESULT:      -7.3      0.990      2.888
REMARK  Name = 
REMARK  8 active torsions:
REMARK  status: ('A' for Active; 'I' for Inactive)
REMARK    1  A    between atoms: C_1  and  C_2
REMARK    2  A    between atoms: C_2  and  C_3
REMARK    3  A    between atoms: C_2  and  C_4
REMARK    4  A    between atoms: C_4  and  C_5
REMARK    5  A    between atoms: C_4  and  C_23
REMARK    6  A    between atoms: N_7  and  C_8
REMARK    7  A    between atoms: N_13  and  C_14
REMARK    8  A    between atoms: C_14  and  C_15
REMARK                            x       y       z     vdW  Elec       q    Type
REMARK                         _______ _______ _______ _____ _____    ______ ____
ROOT
ATOM      1  C   UNL     1       3.516   2.074  19.362  0.00  0.00    +0.000 C 
ATOM      2  C   UNL     1       2.590   1.659  18.205  0.00  0.00    +0.000 C 
ATOM      3  C   UNL     1       1.396   2.592  18.263  0.00  0.00    +0.000 C 
ATOM      4  C   UNL     1       1.217   2.955  19.733  0.00  0.00    +0.000 C 
ATOM      5  C   UNL     1       1.004   4.455  19.959  0.00  0.00    +0.000 C 
ATOM      6  N   UNL     1       2.358   4.933  20.292  0.00  0.00    +0.000 NA
ATOM      7  C   UNL     1       2.855   3.904  21.209  0.00  0.00    +0.000 C 
ATOM      8  C   UNL     1       2.543   2.613  20.447  0.00  0.00    +0.000 C 
ENDROOT
BRANCH   1  11
ATOM      9  C   UNL     1       4.552   3.819  17.862  0.00  0.00    +0.000 C 
ATOM     10  O   UNL     1       3.501   4.075  17.254  0.00  0.00    +0.000 OA
ATOM     11  N   UNL     1       4.603   2.934  18.921  0.00  0.00    +0.000 N 
ATOM     12  H   UNL     1       5.476   2.852  19.448  0.00  0.00    +0.000 HD
BRANCH   9  13
ATOM     13  C   UNL     1       5.908   4.496  17.442  0.00  0.00    +0.000 C 
BRANCH  13  14
ATOM     14  C   UNL     1       6.069   4.558  15.894  0.00  0.00    +0.000 A 
ATOM     15  C   UNL     1       5.058   4.136  15.016  0.00  0.00    +0.000 A 
ATOM     16  C   UNL     1       5.323   3.902  13.656  0.00  0.00    +0.000 A 
ATOM     17  C   UNL     1       6.572   4.200  13.125  0.00  0.00    +0.000 A 
ATOM     18  C   UNL     1       7.520   4.812  13.935  0.00  0.00    +0.000 A 
ATOM     19  C   UNL     1       7.263   5.005  15.302  0.00  0.00    +0.000 A 
ENDBRANCH  13  14
BRANCH  13  21
ATOM     20  C   UNL     1       7.373   6.036  18.946  0.00  0.00    +0.000 C 
ATOM     21  C   UNL     1       6.065   5.904  18.166  0.00  0.00    +0.000 C 
ATOM     22  C   UNL     1       5.998   7.163  17.280  0.00  0.00    +0.000 C 
ENDBRANCH  13  21
ENDBRANCH   9  13
ENDBRANCH   1  11
BRANCH   6  23
ATOM     23  C   UNL     1       2.396   6.297  20.828  0.00  0.00    +0.000 C 
BRANCH  23  24
ATOM     24  C   UNL     1       2.129   7.389  19.794  0.00  0.00    +0.000 A 
ATOM     25  C   UNL     1       1.418   8.560  20.131  0.00  0.00    +0.000 A 
ATOM     26  C   UNL     1       1.182   9.551  19.171  0.00  0.00    +0.000 A 
ATOM     27  C   UNL     1       1.686   9.408  17.875  0.00  0.00    +0.000 A 
ATOM     28  C   UNL     1       2.404   8.278  17.538  0.00  0.00    +0.000 A 
ATOM     29  C   UNL     1       2.626   7.281  18.491  0.00  0.00    +0.000 A 
ENDBRANCH  23  24
ENDBRANCH   6  23
TORSDOF 6
ENDMDL
MODEL 7
REMARK VINA RESULT:      -7.0      0.955      2.953
REMARK  Name = 
REMARK  8 active torsions:
REMARK  status: ('A' for Active; 'I' for Inactive)
REMARK    1  A    between atoms: C_1  and  C_2
REMARK    2  A    between atoms: C_2  and  C_3
REMARK    3  A    between atoms: C_2  and  C_4
REMARK    4  A    between atoms: C_4  and  C_5
REMARK    5  A    between atoms: C_4  and  C_23
REMARK    6  A    between atoms: N_7  and  C_8
REMARK    7  A    between atoms: N_13  and  C_14
REMARK    8  A    between atoms: C_14  and  C_15
REMARK                            x       y       z     vdW  Elec       q    Type
REMARK                         _______ _______ _______ _____ _____    ______ ____
ROOT
ATOM      1  C   UNL     1       3.476   2.674  18.628  0.00  0.00    +0.000 C 
ATOM      2  C   UNL     1       2.265   2.154  17.834  0.00  0.00    +0.000 C 
ATOM      3  C   UNL     1       1.055   2.887  18.380  0.00  0.00    +0.000 C 
ATOM      4  C   UNL     1       1.363   3.176  19.846  0.00  0.00    +0.000 C 
ATOM      5  C   UNL     1       1.043   4.616  20.254  0.00  0.00    +0.000 C 
ATOM      6  N   UNL     1       2.349   5.290  20.134  0.00  0.00    +0.000 NA
ATOM      7  C   UNL     1       3.274   4.325  20.733  0.00  0.00    +0.000 C 
ATOM      8  C   UNL     1       2.889   3.024  20.024  0.00  0.00    +0.000 C 
ENDROOT
BRANCH   1  11
ATOM      9  C   UNL     1       5.056   3.497  16.840  0.00  0.00    +0.000 C 
ATOM     10  O   UNL     1       5.172   2.394  16.284  0.00  0.00    +0.000 OA
ATOM     11  N   UNL     1       4.207   3.707  17.909  0.00  0.00    +0.000 N 
ATOM     12  H   UNL     1       4.077   4.663  18.250  0.00  0.00    +0.000 HD
BRANCH   9  13
ATOM     13  C   UNL     1       5.894   4.735  16.352  0.00  0.00    +0.000 C 
BRANCH  13  14
ATOM     14  C   UNL     1       6.219   4.650  14.830  0.00  0.00    +0.000 A 
ATOM     15  C   UNL     1       5.436   3.906  13.935  0.00  0.00    +0.000 A 
ATOM     16  C   UNL     1       5.904   3.581  12.650  0.00  0.00    +0.000 A 
ATOM     17  C   UNL     1       7.111   4.095  12.195  0.00  0.00    +0.000 A 
ATOM     18  C   UNL     1       7.801   5.000  12.991  0.00  0.00    +0.000 A 
ATOM     19  C   UNL     1       7.349   5.288  14.289  0.00  0.00    +0.000 A 
ENDBRANCH  13  14
BRANCH  13  21
ATOM     20  C   UNL     1       6.087   7.018  17.587  0.00  0.00    +0.000 C 
ATOM     21  C   UNL     1       5.178   6.088  16.785  0.00  0.00    +0.000 C 
ATOM     22  C   UNL     1       4.593   6.967  15.663  0.00  0.00    +0.000 C 
ENDBRANCH  13  21
ENDBRANCH   9  13
ENDBRANCH   1  11
BRANCH   6  23
ATOM     23  C   UNL     1       2.390   6.627  20.734  0.00  0.00    +0.000 C 
BRANCH  23  24
ATOM     24  C   UNL     1       1.942   7.751  19.801  0.00  0.00    +0.000 A 
ATOM     25  C   UNL     1       1.102   8.789  20.255  0.00  0.00    +0.000 A 
ATOM     26  C   UNL     1       0.702   9.812  19.386  0.00  0.00    +0.000 A 
ATOM     27  C   UNL     1       1.166   9.835  18.067  0.00  0.00    +0.000 A 
ATOM     28  C   UNL     1       2.008   8.839  17.617  0.00  0.00    +0.000 A 
ATOM     29  C   UNL     1       2.394   7.809  18.478  0.00  0.00    +0.000 A 
ENDBRANCH  23  24
ENDBRANCH   6  23
TORSDOF 6
ENDMDL
MODEL 8
REMARK VINA RESULT:      -7.0      1.452      3.375
REMARK  Name = 
REMARK  8 active torsions:
REMARK  status: ('A' for Active; 'I' for Inactive)
REMARK    1  A    between atoms: C_1  and  C_2
REMARK    2  A    between atoms: C_2  and  C_3
REMARK    3  A    between atoms: C_2  and  C_4
REMARK    4  A    between atoms: C_4  and  C_5
REMARK    5  A    between atoms: C_4  and  C_23
REMARK    6  A    between atoms: N_7  and  C_8
REMARK    7  A    between atoms: N_13  and  C_14
REMARK    8  A    between atoms: C_14  and  C_15
REMARK                            x       y       z     vdW  Elec       q    Type
REMARK                         _______ _______ _______ _____ _____    ______ ____
ROOT
ATOM      1  C   UNL     1       4.347   3.291  18.697  0.00  0.00    +0.000 C 
ATOM      2  C   UNL     1       3.420   2.284  17.994  0.00  0.00    +0.000 C 
ATOM      3  C   UNL     1       2.168   3.053  17.618  0.00  0.00    +0.000 C 
ATOM      4  C   UNL     1       2.005   4.137  18.678  0.00  0.00    +0.000 C 
ATOM      5  C   UNL     1       1.698   5.515  18.085  0.00  0.00    +0.000 C 
ATOM      6  N   UNL     1       3.025   6.153  18.033  0.00  0.00    +0.000 NA
ATOM      7  C   UNL     1       3.616   5.795  19.324  0.00  0.00    +0.000 C 
ATOM      8  C   UNL     1       3.370   4.285  19.385  0.00  0.00    +0.000 C 
ENDROOT
BRANCH   1  11
ATOM      9  C   UNL     1       6.471   4.556  18.186  0.00  0.00    +0.000 C 
ATOM     10  O   UNL     1       6.794   4.705  19.374  0.00  0.00    +0.000 OA
ATOM     11  N   UNL     1       5.361   3.829  17.802  0.00  0.00    +0.000 N 
ATOM     12  H   UNL     1       5.213   3.652  16.805  0.00  0.00    +0.000 HD
BRANCH   9  13
ATOM     13  C   UNL     1       7.320   5.207  17.034  0.00  0.00    +0.000 C 
BRANCH  13  14
ATOM     14  C   UNL     1       6.723   4.898  15.628  0.00  0.00    +0.000 A 
ATOM     15  C   UNL     1       5.376   4.548  15.445  0.00  0.00    +0.000 A 
ATOM     16  C   UNL     1       4.928   3.974  14.243  0.00  0.00    +0.000 A 
ATOM     17  C   UNL     1       5.792   3.850  13.163  0.00  0.00    +0.000 A 
ATOM     18  C   UNL     1       7.072   4.380  13.258  0.00  0.00    +0.000 A 
ATOM     19  C   UNL     1       7.526   4.915  14.474  0.00  0.00    +0.000 A 
ENDBRANCH  13  14
BRANCH  13  21
ATOM     20  C   UNL     1       6.231   7.558  17.291  0.00  0.00    +0.000 C 
ATOM     21  C   UNL     1       7.533   6.758  17.319  0.00  0.00    +0.000 C 
ATOM     22  C   UNL     1       8.212   7.144  18.647  0.00  0.00    +0.000 C 
ENDBRANCH  13  21
ENDBRANCH   9  13
ENDBRANCH   1  11
BRANCH   6  23
ATOM     23  C   UNL     1       2.987   7.594  17.759  0.00  0.00    +0.000 C 
BRANCH  23  24
ATOM     24  C   UNL     1       1.948   8.363  18.574  0.00  0.00    +0.000 A 
ATOM     25  C   UNL     1       1.834   8.187  19.969  0.00  0.00    +0.000 A 
ATOM     26  C   UNL     1       0.877   8.901  20.700  0.00  0.00    +0.000 A 
ATOM     27  C   UNL     1       0.050   9.828  20.058  0.00  0.00    +0.000 A 
ATOM     28  C   UNL     1       0.167  10.027  18.698  0.00  0.00    +0.000 A 
ATOM     29  C   UNL     1       1.111   9.303  17.964  0.00  0.00    +0.000 A 
ENDBRANCH  23  24
ENDBRANCH   6  23
TORSDOF 6
ENDMDL
MODEL 9
REMARK VINA RESULT:      -7.0      7.480     10.677
REMARK  Name = 
REMARK  8 active torsions:
REMARK  status: ('A' for Active; 'I' for Inactive)
REMARK    1  A    between atoms: C_1  and  C_2
REMARK    2  A    between atoms: C_2  and  C_3
REMARK    3  A    between atoms: C_2  and  C_4
REMARK    4  A    between atoms: C_4  and  C_5
REMARK    5  A    between atoms: C_4  and  C_23
REMARK    6  A    between atoms: N_7  and  C_8
REMARK    7  A    between atoms: N_13  and  C_14
REMARK    8  A    between atoms: C_14  and  C_15
REMARK                            x       y       z     vdW  Elec       q    Type
REMARK                         _______ _______ _______ _____ _____    ______ ____
ROOT
ATOM      1  C   UNL     1      -4.651  11.115  18.025  0.00  0.00    +0.000 C 
ATOM      2  C   UNL     1      -4.899  11.904  16.728  0.00  0.00    +0.000 C 
ATOM      3  C   UNL     1      -6.098  12.794  16.997  0.00  0.00    +0.000 C 
ATOM      4  C   UNL     1      -6.961  12.044  18.006  0.00  0.00    +0.000 C 
ATOM      5  C   UNL     1      -7.435  12.928  19.163  0.00  0.00    +0.000 C 
ATOM      6  N   UNL     1      -6.445  12.647  20.218  0.00  0.00    +0.000 NA
ATOM      7  C   UNL     1      -6.289  11.193  20.148  0.00  0.00    +0.000 C 
ATOM      8  C   UNL     1      -6.065  10.964  18.650  0.00  0.00    +0.000 C 
ENDROOT
BRANCH   1  11
ATOM      9  C   UNL     1      -2.240  11.524  18.651  0.00  0.00    +0.000 C 
ATOM     10  O   UNL     1      -1.772  10.941  17.661  0.00  0.00    +0.000 OA
ATOM     11  N   UNL     1      -3.597  11.703  18.838  0.00  0.00    +0.000 N 
ATOM     12  H   UNL     1      -3.910  12.287  19.618  0.00  0.00    +0.000 HD
BRANCH   9  13
ATOM     13  C   UNL     1      -1.293  12.091  19.772  0.00  0.00    +0.000 C 
BRANCH  13  14
ATOM     14  C   UNL     1      -0.985  11.023  20.864  0.00  0.00    +0.000 A 
ATOM     15  C   UNL     1      -1.253  11.241  22.224  0.00  0.00    +0.000 A 
ATOM     16  C   UNL     1      -0.693  10.421  23.219  0.00  0.00    +0.000 A 
ATOM     17  C   UNL     1       0.046   9.300  22.867  0.00  0.00    +0.000 A 
ATOM     18  C   UNL     1       0.148   8.953  21.525  0.00  0.00    +0.000 A 
ATOM     19  C   UNL     1      -0.378   9.798  20.535  0.00  0.00    +0.000 A 
ENDBRANCH  13  14
BRANCH  13  21
ATOM     20  C   UNL     1      -0.255  14.121  18.515  0.00  0.00    +0.000 C 
ATOM     21  C   UNL     1       0.003  12.740  19.117  0.00  0.00    +0.000 C 
ATOM     22  C   UNL     1       1.236  12.922  20.024  0.00  0.00    +0.000 C 
ENDBRANCH  13  21
ENDBRANCH   9  13
ENDBRANCH   1  11
BRANCH   6  23
ATOM     23  C   UNL     1      -6.820  13.156  21.542  0.00  0.00    +0.000 C 
BRANCH  23  24
ATOM     24  C   UNL     1      -5.673  13.196  22.550  0.00  0.00    +0.000 A 
ATOM     25  C   UNL     1      -4.467  13.868  22.262  0.00  0.00    +0.000 A 
ATOM     26  C   UNL     1      -3.426  13.895  23.198  0.00  0.00    +0.000 A 
ATOM     27  C   UNL     1      -3.588  13.289  24.448  0.00  0.00    +0.000 A 
ATOM     28  C   UNL     1      -4.773  12.649  24.752  0.00  0.00    +0.000 A 
ATOM     29  C   UNL     1      -5.806  12.608  23.812  0.00  0.00    +0.000 A 
ENDBRANCH  23  24
ENDBRANCH   6  23
TORSDOF 6
ENDMDL
