MODEL 1
REMARK VINA RESULT:      -8.4      0.000      0.000
REMARK  Name = 
REMARK  7 active torsions:
REMARK  status: ('A' for Active; 'I' for Inactive)
REMARK    1  A    between atoms: C_1  and  C_2
REMARK    2  A    between atoms: C_2  and  O_3
REMARK    3  A    between atoms: O_3  and  C_4
REMARK    4  A    between atoms: C_4  and  C_6
REMARK    5  A    between atoms: C_7  and  C_8
REMARK    6  A    between atoms: N_10  and  C_11
REMARK    7  A    between atoms: C_18  and  C_19
REMARK                            x       y       z     vdW  Elec       q    Type
REMARK                         _______ _______ _______ _____ _____    ______ ____
ROOT
ATOM      1  C   UNL     1       3.341   3.523  20.116  0.00  0.00    +0.000 A 
ATOM      2  C   UNL     1       2.136   3.726  20.830  0.00  0.00    +0.000 A 
ATOM      3  C   UNL     1       1.309   2.771  21.615  0.00  0.00    +0.000 C 
ATOM      4  N   UNL     1       1.766   5.007  20.808  0.00  0.00    +0.000 NA
ATOM      5  N   UNL     1       2.591   5.600  19.916  0.00  0.00    +0.000 N 
ATOM      6  C   UNL     1       3.634   4.757  19.516  0.00  0.00    +0.000 A 
ENDROOT
BRANCH   5   7
ATOM      7  C   UNL     1       2.273   6.923  19.504  0.00  0.00    +0.000 A 
ATOM      8  C   UNL     1       2.558   7.307  18.183  0.00  0.00    +0.000 A 
ATOM      9  C   UNL     1       2.232   8.590  17.742  0.00  0.00    +0.000 A 
ATOM     10  C   UNL     1       1.661   9.505  18.628  0.00  0.00    +0.000 A 
ATOM     11  C   UNL     1       1.411   9.130  19.948  0.00  0.00    +0.000 A 
ATOM     12 CL   UNL     1       0.730  10.270  21.043  0.00  0.00    +0.000 Cl
ATOM     13  C   UNL     1       1.709   7.843  20.394  0.00  0.00    +0.000 A 
ENDBRANCH   5   7
BRANCH   6  14
ATOM     14  C   UNL     1       4.792   5.160  18.683  0.00  0.00    +0.000 A 
ATOM     15  C   UNL     1       6.004   5.578  19.262  0.00  0.00    +0.000 A 
ATOM     16  C   UNL     1       7.079   6.000  18.474  0.00  0.00    +0.000 A 
ATOM     17  C   UNL     1       6.991   5.938  17.087  0.00  0.00    +0.000 A 
ATOM     18  C   UNL     1       5.818   5.477  16.497  0.00  0.00    +0.000 A 
ATOM     19 CL   UNL     1       5.724   5.336  14.785  0.00  0.00    +0.000 Cl
ATOM     20  C   UNL     1       4.719   5.122  17.282  0.00  0.00    +0.000 A 
ENDBRANCH   6  14
BRANCH   1  21
ATOM     21  C   UNL     1       4.143   2.308  20.048  0.00  0.00    +0.000 C 
ATOM     22  O   UNL     1       5.196   2.157  20.654  0.00  0.00    +0.000 OA
BRANCH  21  23
ATOM     23  O   UNL     1       3.607   1.377  19.207  0.00  0.00    +0.000 OA
BRANCH  23  25
ATOM     24  C   UNL     1       2.261   2.236  17.391  0.00  0.00    +0.000 C 
ATOM     25  C   UNL     1       3.623   1.718  17.812  0.00  0.00    +0.000 C 
ENDBRANCH  23  25
ENDBRANCH  21  23
ENDBRANCH   1  21
TORSDOF 5
ENDMDL
MODEL 2
REMARK VINA RESULT:      -8.4      1.018      1.399
REMARK  Name = 
REMARK  7 active torsions:
REMARK  status: ('A' for Active; 'I' for Inactive)
REMARK    1  A    between atoms: C_1  and  C_2
REMARK    2  A    between atoms: C_2  and  O_3
REMARK    3  A    between atoms: O_3  and  C_4
REMARK    4  A    between atoms: C_4  and  C_6
REMARK    5  A    between atoms: C_7  and  C_8
REMARK    6  A    between atoms: N_10  and  C_11
REMARK    7  A    between atoms: C_18  and  C_19
REMARK                            x       y       z     vdW  Elec       q    Type
REMARK                         _______ _______ _______ _____ _____    ______ ____
ROOT
ATOM      1  C   UNL     1       3.272   3.648  20.077  0.00  0.00    +0.000 A 
ATOM      2  C   UNL     1       2.137   3.860  20.895  0.00  0.00    +0.000 A 
ATOM      3  C   UNL     1       1.384   2.914  21.762  0.00  0.00    +0.000 C 
ATOM      4  N   UNL     1       1.766   5.141  20.894  0.00  0.00    +0.000 NA
ATOM      5  N   UNL     1       2.507   5.724  19.924  0.00  0.00    +0.000 N 
ATOM      6  C   UNL     1       3.509   4.877  19.440  0.00  0.00    +0.000 A 
ENDROOT
BRANCH   5   7
ATOM      7  C   UNL     1       2.153   7.044  19.529  0.00  0.00    +0.000 A 
ATOM      8  C   UNL     1       2.374   7.433  18.198  0.00  0.00    +0.000 A 
ATOM      9  C   UNL     1       2.012   8.713  17.775  0.00  0.00    +0.000 A 
ATOM     10  C   UNL     1       1.467   9.617  18.687  0.00  0.00    +0.000 A 
ATOM     11  C   UNL     1       1.281   9.237  20.016  0.00  0.00    +0.000 A 
ATOM     12 CL   UNL     1       0.632  10.367  21.142  0.00  0.00    +0.000 Cl
ATOM     13  C   UNL     1       1.616   7.954  20.445  0.00  0.00    +0.000 A 
ENDBRANCH   5   7
BRANCH   6  14
ATOM     14  C   UNL     1       4.588   5.270  18.502  0.00  0.00    +0.000 A 
ATOM     15  C   UNL     1       4.436   5.141  17.110  0.00  0.00    +0.000 A 
ATOM     16  C   UNL     1       5.472   5.472  16.232  0.00  0.00    +0.000 A 
ATOM     17  C   UNL     1       6.655   6.012  16.724  0.00  0.00    +0.000 A 
ATOM     18  C   UNL     1       6.803   6.196  18.095  0.00  0.00    +0.000 A 
ATOM     19 CL   UNL     1       8.237   6.925  18.707  0.00  0.00    +0.000 Cl
ATOM     20  C   UNL     1       5.796   5.801  18.979  0.00  0.00    +0.000 A 
ENDBRANCH   6  14
BRANCH   1  21
ATOM     21  C   UNL     1       4.065   2.433  19.949  0.00  0.00    +0.000 C 
ATOM     22  O   UNL     1       5.179   2.296  20.436  0.00  0.00    +0.000 OA
BRANCH  21  23
ATOM     23  O   UNL     1       3.441   1.482  19.196  0.00  0.00    +0.000 OA
BRANCH  23  25
ATOM     24  C   UNL     1       2.218   2.320  17.284  0.00  0.00    +0.000 C 
ATOM     25  C   UNL     1       3.501   1.676  17.774  0.00  0.00    +0.000 C 
ENDBRANCH  23  25
ENDBRANCH  21  23
ENDBRANCH   1  21
TORSDOF 5
ENDMDL
MODEL 3
REMARK VINA RESULT:      -8.3      1.287      2.114
REMARK  Name = 
REMARK  7 active torsions:
REMARK  status: ('A' for Active; 'I' for Inactive)
REMARK    1  A    between atoms: C_1  and  C_2
REMARK    2  A    between atoms: C_2  and  O_3
REMARK    3  A    between atoms: O_3  and  C_4
REMARK    4  A    between atoms: C_4  and  C_6
REMARK    5  A    between atoms: C_7  and  C_8
REMARK    6  A    between atoms: N_10  and  C_11
REMARK    7  A    between atoms: C_18  and  C_19
REMARK                            x       y       z     vdW  Elec       q    Type
REMARK                         _______ _______ _______ _____ _____    ______ ____
ROOT
ATOM      1  C   UNL     1       3.355   3.319  19.850  0.00  0.00    +0.000 A 
ATOM      2  C   UNL     1       2.291   3.523  20.760  0.00  0.00    +0.000 A 
ATOM      3  C   UNL     1       1.589   2.562  21.653  0.00  0.00    +0.000 C 
ATOM      4  N   UNL     1       1.945   4.809  20.826  0.00  0.00    +0.000 NA
ATOM      5  N   UNL     1       2.620   5.411  19.821  0.00  0.00    +0.000 N 
ATOM      6  C   UNL     1       3.565   4.563  19.234  0.00  0.00    +0.000 A 
ENDROOT
BRANCH   5   7
ATOM      7  C   UNL     1       2.261   6.748  19.494  0.00  0.00    +0.000 A 
ATOM      8  C   UNL     1       2.451   7.196  18.177  0.00  0.00    +0.000 A 
ATOM      9  C   UNL     1       2.083   8.495  17.822  0.00  0.00    +0.000 A 
ATOM     10  C   UNL     1       1.564   9.359  18.786  0.00  0.00    +0.000 A 
ATOM     11  C   UNL     1       1.408   8.919  20.101  0.00  0.00    +0.000 A 
ATOM     12 CL   UNL     1       0.791   9.997  21.292  0.00  0.00    +0.000 Cl
ATOM     13  C   UNL     1       1.749   7.617  20.463  0.00  0.00    +0.000 A 
ENDBRANCH   5   7
BRANCH   6  14
ATOM     14  C   UNL     1       4.575   4.968  18.228  0.00  0.00    +0.000 A 
ATOM     15  C   UNL     1       4.464   4.588  16.879  0.00  0.00    +0.000 A 
ATOM     16  C   UNL     1       5.442   4.936  15.942  0.00  0.00    +0.000 A 
ATOM     17  C   UNL     1       6.514   5.737  16.320  0.00  0.00    +0.000 A 
ATOM     18  C   UNL     1       6.613   6.167  17.639  0.00  0.00    +0.000 A 
ATOM     19 CL   UNL     1       7.899   7.212  18.101  0.00  0.00    +0.000 Cl
ATOM     20  C   UNL     1       5.674   5.763  18.592  0.00  0.00    +0.000 A 
ENDBRANCH   6  14
BRANCH   1  21
ATOM     21  C   UNL     1       4.113   2.095  19.624  0.00  0.00    +0.000 C 
ATOM     22  O   UNL     1       3.883   1.315  18.710  0.00  0.00    +0.000 OA
BRANCH  21  23
ATOM     23  O   UNL     1       5.082   1.903  20.565  0.00  0.00    +0.000 OA
BRANCH  23  25
ATOM     24  C   UNL     1       6.104   0.436  22.194  0.00  0.00    +0.000 C 
ATOM     25  C   UNL     1       5.409   0.534  20.849  0.00  0.00    +0.000 C 
ENDBRANCH  23  25
ENDBRANCH  21  23
ENDBRANCH   1  21
TORSDOF 5
ENDMDL
MODEL 4
REMARK VINA RESULT:      -8.2      0.997      1.708
REMARK  Name = 
REMARK  7 active torsions:
REMARK  status: ('A' for Active; 'I' for Inactive)
REMARK    1  A    between atoms: C_1  and  C_2
REMARK    2  A    between atoms: C_2  and  O_3
REMARK    3  A    between atoms: O_3  and  C_4
REMARK    4  A    between atoms: C_4  and  C_6
REMARK    5  A    between atoms: C_7  and  C_8
REMARK    6  A    between atoms: N_10  and  C_11
REMARK    7  A    between atoms: C_18  and  C_19
REMARK                            x       y       z     vdW  Elec       q    Type
REMARK                         _______ _______ _______ _____ _____    ______ ____
ROOT
ATOM      1  C   UNL     1       3.414   3.277  19.908  0.00  0.00    +0.000 A 
ATOM      2  C   UNL     1       2.319   3.501  20.776  0.00  0.00    +0.000 A 
ATOM      3  C   UNL     1       1.582   2.559  21.661  0.00  0.00    +0.000 C 
ATOM      4  N   UNL     1       1.976   4.789  20.805  0.00  0.00    +0.000 NA
ATOM      5  N   UNL     1       2.689   5.370  19.813  0.00  0.00    +0.000 N 
ATOM      6  C   UNL     1       3.652   4.508  19.277  0.00  0.00    +0.000 A 
ENDROOT
BRANCH   5   7
ATOM      7  C   UNL     1       2.348   6.701  19.450  0.00  0.00    +0.000 A 
ATOM      8  C   UNL     1       2.591   7.126  18.133  0.00  0.00    +0.000 A 
ATOM      9  C   UNL     1       2.241   8.419  17.741  0.00  0.00    +0.000 A 
ATOM     10  C   UNL     1       1.687   9.301  18.668  0.00  0.00    +0.000 A 
ATOM     11  C   UNL     1       1.477   8.885  19.983  0.00  0.00    +0.000 A 
ATOM     12 CL   UNL     1       0.817   9.986  21.130  0.00  0.00    +0.000 Cl
ATOM     13  C   UNL     1       1.800   7.589  20.382  0.00  0.00    +0.000 A 
ENDBRANCH   5   7
BRANCH   6  14
ATOM     14  C   UNL     1       4.699   4.891  18.300  0.00  0.00    +0.000 A 
ATOM     15  C   UNL     1       5.838   5.617  18.690  0.00  0.00    +0.000 A 
ATOM     16  C   UNL     1       6.801   6.014  17.758  0.00  0.00    +0.000 A 
ATOM     17  C   UNL     1       6.682   5.627  16.427  0.00  0.00    +0.000 A 
ATOM     18  C   UNL     1       5.588   4.864  16.033  0.00  0.00    +0.000 A 
ATOM     19 CL   UNL     1       5.467   4.325  14.403  0.00  0.00    +0.000 Cl
ATOM     20  C   UNL     1       4.590   4.525  16.950  0.00  0.00    +0.000 A 
ENDBRANCH   6  14
BRANCH   1  21
ATOM     21  C   UNL     1       4.175   2.046  19.732  0.00  0.00    +0.000 C 
ATOM     22  O   UNL     1       4.043   1.299  18.773  0.00  0.00    +0.000 OA
BRANCH  21  23
ATOM     23  O   UNL     1       5.023   1.806  20.774  0.00  0.00    +0.000 OA
BRANCH  23  25
ATOM     24  C   UNL     1       6.184   0.265  22.232  0.00  0.00    +0.000 C 
ATOM     25  C   UNL     1       5.487   0.453  20.898  0.00  0.00    +0.000 C 
ENDBRANCH  23  25
ENDBRANCH  21  23
ENDBRANCH   1  21
TORSDOF 5
ENDMDL
MODEL 5
REMARK VINA RESULT:      -8.1      2.597      4.469
REMARK  Name = 
REMARK  7 active torsions:
REMARK  status: ('A' for Active; 'I' for Inactive)
REMARK    1  A    between atoms: C_1  and  C_2
REMARK    2  A    between atoms: C_2  and  O_3
REMARK    3  A    between atoms: O_3  and  C_4
REMARK    4  A    between atoms: C_4  and  C_6
REMARK    5  A    between atoms: C_7  and  C_8
REMARK    6  A    between atoms: N_10  and  C_11
REMARK    7  A    between atoms: C_18  and  C_19
REMARK                            x       y       z     vdW  Elec       q    Type
REMARK                         _______ _______ _______ _____ _____    ______ ____
ROOT
ATOM      1  C   UNL     1       5.012   5.651  17.860  0.00  0.00    +0.000 A 
ATOM      2  C   UNL     1       5.486   6.940  17.517  0.00  0.00    +0.000 A 
ATOM      3  C   UNL     1       6.827   7.379  17.046  0.00  0.00    +0.000 C 
ATOM      4  N   UNL     1       4.517   7.852  17.592  0.00  0.00    +0.000 NA
ATOM      5  N   UNL     1       3.477   7.220  18.182  0.00  0.00    +0.000 N 
ATOM      6  C   UNL     1       3.692   5.842  18.298  0.00  0.00    +0.000 A 
ENDROOT
BRANCH   5   7
ATOM      7  C   UNL     1       2.380   8.015  18.613  0.00  0.00    +0.000 A 
ATOM      8  C   UNL     1       1.732   8.838  17.677  0.00  0.00    +0.000 A 
ATOM      9  C   UNL     1       0.636   9.609  18.066  0.00  0.00    +0.000 A 
ATOM     10  C   UNL     1       0.210   9.591  19.395  0.00  0.00    +0.000 A 
ATOM     11  C   UNL     1       0.878   8.798  20.328  0.00  0.00    +0.000 A 
ATOM     12 CL   UNL     1       0.365   8.800  21.971  0.00  0.00    +0.000 Cl
ATOM     13  C   UNL     1       1.959   8.004  19.947  0.00  0.00    +0.000 A 
ENDBRANCH   5   7
BRANCH   6  14
ATOM     14  C   UNL     1       2.683   4.850  18.741  0.00  0.00    +0.000 A 
ATOM     15  C   UNL     1       1.725   4.328  17.855  0.00  0.00    +0.000 A 
ATOM     16  C   UNL     1       0.748   3.426  18.288  0.00  0.00    +0.000 A 
ATOM     17  C   UNL     1       0.758   2.969  19.601  0.00  0.00    +0.000 A 
ATOM     18  C   UNL     1       1.731   3.434  20.479  0.00  0.00    +0.000 A 
ATOM     19 CL   UNL     1       1.790   2.824  22.088  0.00  0.00    +0.000 Cl
ATOM     20  C   UNL     1       2.664   4.388  20.067  0.00  0.00    +0.000 A 
ENDBRANCH   6  14
BRANCH   1  21
ATOM     21  C   UNL     1       5.717   4.381  17.743  0.00  0.00    +0.000 C 
ATOM     22  O   UNL     1       6.526   3.977  18.567  0.00  0.00    +0.000 OA
BRANCH  21  23
ATOM     23  O   UNL     1       5.399   3.714  16.596  0.00  0.00    +0.000 OA
BRANCH  23  25
ATOM     24  C   UNL     1       5.613   4.348  14.272  0.00  0.00    +0.000 C 
ATOM     25  C   UNL     1       6.332   3.858  15.514  0.00  0.00    +0.000 C 
ENDBRANCH  23  25
ENDBRANCH  21  23
ENDBRANCH   1  21
TORSDOF 5
ENDMDL
MODEL 6
REMARK VINA RESULT:      -7.7      2.603      4.692
REMARK  Name = 
REMARK  7 active torsions:
REMARK  status: ('A' for Active; 'I' for Inactive)
REMARK    1  A    between atoms: C_1  and  C_2
REMARK    2  A    between atoms: C_2  and  O_3
REMARK    3  A    between atoms: O_3  and  C_4
REMARK    4  A    between atoms: C_4  and  C_6
REMARK    5  A    between atoms: C_7  and  C_8
REMARK    6  A    between atoms: N_10  and  C_11
REMARK    7  A    between atoms: C_18  and  C_19
REMARK                            x       y       z     vdW  Elec       q    Type
REMARK                         _______ _______ _______ _____ _____    ______ ____
ROOT
ATOM      1  C   UNL     1       4.857   5.660  17.551  0.00  0.00    +0.000 A 
ATOM      2  C   UNL     1       5.295   6.948  17.164  0.00  0.00    +0.000 A 
ATOM      3  C   UNL     1       6.583   7.388  16.564  0.00  0.00    +0.000 C 
ATOM      4  N   UNL     1       4.338   7.861  17.334  0.00  0.00    +0.000 NA
ATOM      5  N   UNL     1       3.361   7.227  18.023  0.00  0.00    +0.000 N 
ATOM      6  C   UNL     1       3.586   5.849  18.116  0.00  0.00    +0.000 A 
ENDROOT
BRANCH   5   7
ATOM      7  C   UNL     1       2.312   8.022  18.560  0.00  0.00    +0.000 A 
ATOM      8  C   UNL     1       1.598   8.871  17.699  0.00  0.00    +0.000 A 
ATOM      9  C   UNL     1       0.545   9.643  18.194  0.00  0.00    +0.000 A 
ATOM     10  C   UNL     1       0.230   9.599  19.552  0.00  0.00    +0.000 A 
ATOM     11  C   UNL     1       0.964   8.779  20.409  0.00  0.00    +0.000 A 
ATOM     12 CL   UNL     1       0.587   8.749  22.089  0.00  0.00    +0.000 Cl
ATOM     13  C   UNL     1       2.002   7.985  19.924  0.00  0.00    +0.000 A 
ENDBRANCH   5   7
BRANCH   6  14
ATOM     14  C   UNL     1       2.626   4.857  18.656  0.00  0.00    +0.000 A 
ATOM     15  C   UNL     1       1.634   4.277  17.846  0.00  0.00    +0.000 A 
ATOM     16  C   UNL     1       0.703   3.375  18.370  0.00  0.00    +0.000 A 
ATOM     17  C   UNL     1       0.794   2.975  19.699  0.00  0.00    +0.000 A 
ATOM     18  C   UNL     1       1.802   3.499  20.502  0.00  0.00    +0.000 A 
ATOM     19 CL   UNL     1       1.962   2.960  22.129  0.00  0.00    +0.000 Cl
ATOM     20  C   UNL     1       2.690   4.453  19.998  0.00  0.00    +0.000 A 
ENDBRANCH   6  14
BRANCH   1  21
ATOM     21  C   UNL     1       5.547   4.390  17.364  0.00  0.00    +0.000 C 
ATOM     22  O   UNL     1       5.356   3.649  16.410  0.00  0.00    +0.000 OA
BRANCH  21  23
ATOM     23  O   UNL     1       6.400   4.106  18.390  0.00  0.00    +0.000 OA
BRANCH  23  25
ATOM     24  C   UNL     1       8.029   5.600  19.374  0.00  0.00    +0.000 C 
ATOM     25  C   UNL     1       7.733   4.623  18.252  0.00  0.00    +0.000 C 
ENDBRANCH  23  25
ENDBRANCH  21  23
ENDBRANCH   1  21
TORSDOF 5
ENDMDL
MODEL 7
REMARK VINA RESULT:      -7.5      2.664      4.624
REMARK  Name = 
REMARK  7 active torsions:
REMARK  status: ('A' for Active; 'I' for Inactive)
REMARK    1  A    between atoms: C_1  and  C_2
REMARK    2  A    between atoms: C_2  and  O_3
REMARK    3  A    between atoms: O_3  and  C_4
REMARK    4  A    between atoms: C_4  and  C_6
REMARK    5  A    between atoms: C_7  and  C_8
REMARK    6  A    between atoms: N_10  and  C_11
REMARK    7  A    between atoms: C_18  and  C_19
REMARK                            x       y       z     vdW  Elec       q    Type
REMARK                         _______ _______ _______ _____ _____    ______ ____
ROOT
ATOM      1  C   UNL     1       4.869   5.654  17.812  0.00  0.00    +0.000 A 
ATOM      2  C   UNL     1       5.311   6.973  17.550  0.00  0.00    +0.000 A 
ATOM      3  C   UNL     1       6.617   7.467  17.040  0.00  0.00    +0.000 C 
ATOM      4  N   UNL     1       4.340   7.863  17.758  0.00  0.00    +0.000 NA
ATOM      5  N   UNL     1       3.343   7.170  18.352  0.00  0.00    +0.000 N 
ATOM      6  C   UNL     1       3.575   5.790  18.340  0.00  0.00    +0.000 A 
ENDROOT
BRANCH   5   7
ATOM      7  C   UNL     1       2.267   7.912  18.912  0.00  0.00    +0.000 A 
ATOM      8  C   UNL     1       1.976   7.757  20.277  0.00  0.00    +0.000 A 
ATOM      9  C   UNL     1       0.943   8.493  20.859  0.00  0.00    +0.000 A 
ATOM     10  C   UNL     1       0.174   9.353  20.074  0.00  0.00    +0.000 A 
ATOM     11  C   UNL     1       0.446   9.478  18.712  0.00  0.00    +0.000 A 
ATOM     12 CL   UNL     1      -0.523  10.521  17.743  0.00  0.00    +0.000 Cl
ATOM     13  C   UNL     1       1.490   8.767  18.123  0.00  0.00    +0.000 A 
ENDBRANCH   5   7
BRANCH   6  14
ATOM     14  C   UNL     1       2.603   4.751  18.758  0.00  0.00    +0.000 A 
ATOM     15  C   UNL     1       1.669   4.214  17.856  0.00  0.00    +0.000 A 
ATOM     16  C   UNL     1       0.725   3.267  18.265  0.00  0.00    +0.000 A 
ATOM     17  C   UNL     1       0.747   2.781  19.568  0.00  0.00    +0.000 A 
ATOM     18  C   UNL     1       1.699   3.263  20.460  0.00  0.00    +0.000 A 
ATOM     19 CL   UNL     1       1.775   2.620  22.055  0.00  0.00    +0.000 Cl
ATOM     20  C   UNL     1       2.597   4.260  20.072  0.00  0.00    +0.000 A 
ENDBRANCH   6  14
BRANCH   1  21
ATOM     21  C   UNL     1       5.576   4.408  17.548  0.00  0.00    +0.000 C 
ATOM     22  O   UNL     1       6.524   4.013  18.213  0.00  0.00    +0.000 OA
BRANCH  21  23
ATOM     23  O   UNL     1       5.084   3.752  16.457  0.00  0.00    +0.000 OA
BRANCH  23  25
ATOM     24  C   UNL     1       6.748   4.422  14.836  0.00  0.00    +0.000 C 
ATOM     25  C   UNL     1       5.275   4.412  15.197  0.00  0.00    +0.000 C 
ENDBRANCH  23  25
ENDBRANCH  21  23
ENDBRANCH   1  21
TORSDOF 5
ENDMDL
MODEL 8
REMARK VINA RESULT:      -7.5      1.434      1.993
REMARK  Name = 
REMARK  7 active torsions:
REMARK  status: ('A' for Active; 'I' for Inactive)
REMARK    1  A    between atoms: C_1  and  C_2
REMARK    2  A    between atoms: C_2  and  O_3
REMARK    3  A    between atoms: O_3  and  C_4
REMARK    4  A    between atoms: C_4  and  C_6
REMARK    5  A    between atoms: C_7  and  C_8
REMARK    6  A    between atoms: N_10  and  C_11
REMARK    7  A    between atoms: C_18  and  C_19
REMARK                            x       y       z     vdW  Elec       q    Type
REMARK                         _______ _______ _______ _____ _____    ______ ____
ROOT
ATOM      1  C   UNL     1       3.365   3.495  20.110  0.00  0.00    +0.000 A 
ATOM      2  C   UNL     1       2.297   3.504  21.039  0.00  0.00    +0.000 A 
ATOM      3  C   UNL     1       1.681   2.391  21.810  0.00  0.00    +0.000 C 
ATOM      4  N   UNL     1       1.853   4.741  21.259  0.00  0.00    +0.000 NA
ATOM      5  N   UNL     1       2.468   5.511  20.333  0.00  0.00    +0.000 N 
ATOM      6  C   UNL     1       3.472   4.816  19.649  0.00  0.00    +0.000 A 
ENDROOT
BRANCH   5   7
ATOM      7  C   UNL     1       2.004   6.844  20.170  0.00  0.00    +0.000 A 
ATOM      8  C   UNL     1       1.256   7.431  21.203  0.00  0.00    +0.000 A 
ATOM      9  C   UNL     1       0.810   8.748  21.082  0.00  0.00    +0.000 A 
ATOM     10  C   UNL     1       1.074   9.467  19.915  0.00  0.00    +0.000 A 
ATOM     11  C   UNL     1       1.789   8.868  18.878  0.00  0.00    +0.000 A 
ATOM     12 CL   UNL     1       2.089   9.751  17.431  0.00  0.00    +0.000 Cl
ATOM     13  C   UNL     1       2.261   7.562  18.997  0.00  0.00    +0.000 A 
ENDBRANCH   5   7
BRANCH   6  14
ATOM     14  C   UNL     1       4.437   5.417  18.698  0.00  0.00    +0.000 A 
ATOM     15  C   UNL     1       4.079   5.707  17.370  0.00  0.00    +0.000 A 
ATOM     16  C   UNL     1       5.005   6.232  16.465  0.00  0.00    +0.000 A 
ATOM     17  C   UNL     1       6.290   6.552  16.891  0.00  0.00    +0.000 A 
ATOM     18  C   UNL     1       6.647   6.321  18.215  0.00  0.00    +0.000 A 
ATOM     19 CL   UNL     1       8.213   6.774  18.768  0.00  0.00    +0.000 Cl
ATOM     20  C   UNL     1       5.744   5.731  19.103  0.00  0.00    +0.000 A 
ENDBRANCH   6  14
BRANCH   1  21
ATOM     21  C   UNL     1       4.214   2.370  19.739  0.00  0.00    +0.000 C 
ATOM     22  O   UNL     1       5.072   1.898  20.472  0.00  0.00    +0.000 OA
BRANCH  21  23
ATOM     23  O   UNL     1       3.968   1.930  18.471  0.00  0.00    +0.000 OA
BRANCH  23  25
ATOM     24  C   UNL     1       2.325   2.848  16.951  0.00  0.00    +0.000 C 
ATOM     25  C   UNL     1       2.584   1.878  18.089  0.00  0.00    +0.000 C 
ENDBRANCH  23  25
ENDBRANCH  21  23
ENDBRANCH   1  21
TORSDOF 5
ENDMDL
MODEL 9
REMARK VINA RESULT:      -7.5      2.074      5.084
REMARK  Name = 
REMARK  7 active torsions:
REMARK  status: ('A' for Active; 'I' for Inactive)
REMARK    1  A    between atoms: C_1  and  C_2
REMARK    2  A    between atoms: C_2  and  O_3
REMARK    3  A    between atoms: O_3  and  C_4
REMARK    4  A    between atoms: C_4  and  C_6
REMARK    5  A    between atoms: C_7  and  C_8
REMARK    6  A    between atoms: N_10  and  C_11
REMARK    7  A    between atoms: C_18  and  C_19
REMARK                            x       y       z     vdW  Elec       q    Type
REMARK                         _______ _______ _______ _____ _____    ______ ____
ROOT
ATOM      1  C   UNL     1       2.761   3.777  18.254  0.00  0.00    +0.000 A 
ATOM      2  C   UNL     1       3.767   2.799  18.063  0.00  0.00    +0.000 A 
ATOM      3  C   UNL     1       3.660   1.324  17.910  0.00  0.00    +0.000 C 
ATOM      4  N   UNL     1       4.974   3.356  17.954  0.00  0.00    +0.000 NA
ATOM      5  N   UNL     1       4.797   4.656  18.282  0.00  0.00    +0.000 N 
ATOM      6  C   UNL     1       3.444   4.994  18.399  0.00  0.00    +0.000 A 
ENDROOT
BRANCH   5   7
ATOM      7  C   UNL     1       5.960   5.447  18.489  0.00  0.00    +0.000 A 
ATOM      8  C   UNL     1       6.898   5.034  19.449  0.00  0.00    +0.000 A 
ATOM      9  C   UNL     1       8.062   5.777  19.654  0.00  0.00    +0.000 A 
ATOM     10  C   UNL     1       8.272   6.951  18.932  0.00  0.00    +0.000 A 
ATOM     11  C   UNL     1       7.322   7.375  18.002  0.00  0.00    +0.000 A 
ATOM     12 CL   UNL     1       7.576   8.839  17.133  0.00  0.00    +0.000 Cl
ATOM     13  C   UNL     1       6.167   6.630  17.771  0.00  0.00    +0.000 A 
ENDBRANCH   5   7
BRANCH   6  14
ATOM     14  C   UNL     1       2.915   6.367  18.581  0.00  0.00    +0.000 A 
ATOM     15  C   UNL     1       2.898   7.294  17.524  0.00  0.00    +0.000 A 
ATOM     16  C   UNL     1       2.439   8.602  17.712  0.00  0.00    +0.000 A 
ATOM     17  C   UNL     1       1.916   8.986  18.942  0.00  0.00    +0.000 A 
ATOM     18  C   UNL     1       1.877   8.065  19.984  0.00  0.00    +0.000 A 
ATOM     19 CL   UNL     1       1.171   8.511  21.489  0.00  0.00    +0.000 Cl
ATOM     20  C   UNL     1       2.399   6.780  19.818  0.00  0.00    +0.000 A 
ENDBRANCH   6  14
BRANCH   1  21
ATOM     21  C   UNL     1       1.317   3.582  18.254  0.00  0.00    +0.000 C 
ATOM     22  O   UNL     1       0.574   4.026  17.389  0.00  0.00    +0.000 OA
BRANCH  21  23
ATOM     23  O   UNL     1       0.887   2.882  19.342  0.00  0.00    +0.000 OA
BRANCH  23  25
ATOM     24  C   UNL     1       1.773   2.634  21.579  0.00  0.00    +0.000 C 
ATOM     25  C   UNL     1       1.043   3.542  20.608  0.00  0.00    +0.000 C 
ENDBRANCH  23  25
ENDBRANCH  21  23
ENDBRANCH   1  21
TORSDOF 5
ENDMDL
