MODEL 1
REMARK VINA RESULT:      -7.5      0.000      0.000
REMARK  Name = 
REMARK  8 active torsions:
REMARK  status: ('A' for Active; 'I' for Inactive)
REMARK    1  A    between atoms: C_1  and  O_2
REMARK    2  A    between atoms: O_2  and  C_3
REMARK    3  A    between atoms: C_6  and  C_7
REMARK    4  A    between atoms: C_9  and  C_10
REMARK    5  A    between atoms: C_14  and  C_15
REMARK    6  A    between atoms: N_19  and  C_20
REMARK    7  A    between atoms: C_20  and  C_21
REMARK    8  A    between atoms: C_21  and  O_23
REMARK                            x       y       z     vdW  Elec       q    Type
REMARK                         _______ _______ _______ _____ _____    ______ ____
ROOT
ATOM      1  C   UNL     1       1.731   7.371  20.302  0.00  0.00    +0.000 A 
ATOM      2  C   UNL     1       1.432   6.202  21.002  0.00  0.00    +0.000 A 
ATOM      3  C   UNL     1       1.978   4.955  20.636  0.00  0.00    +0.000 A 
ATOM      4  C   UNL     1       2.838   4.962  19.516  0.00  0.00    +0.000 A 
ATOM      5  C   UNL     1       3.607   4.048  18.735  0.00  0.00    +0.000 A 
ATOM      6  N   UNL     1       4.232   4.645  17.709  0.00  0.00    +0.000 NA
ATOM      7  N   UNL     1       3.972   5.956  17.904  0.00  0.00    +0.000 N 
ATOM      8  C   UNL     1       3.092   6.197  18.922  0.00  0.00    +0.000 A 
ATOM      9  N   UNL     1       2.592   7.400  19.260  0.00  0.00    +0.000 NA
ENDROOT
BRANCH   1  13
ATOM     10  C   UNL     1      -0.117  11.142  21.298  0.00  0.00    +0.000 A 
ATOM     11  C   UNL     1      -0.003  10.138  22.260  0.00  0.00    +0.000 A 
ATOM     12  C   UNL     1       0.598   8.912  21.945  0.00  0.00    +0.000 A 
ATOM     13  C   UNL     1       1.079   8.652  20.652  0.00  0.00    +0.000 A 
ATOM     14  C   UNL     1       0.919   9.667  19.689  0.00  0.00    +0.000 A 
ATOM     15  C   UNL     1       0.324  10.893  20.002  0.00  0.00    +0.000 A 
BRANCH  10  17
ATOM     16  C   UNL     1      -1.306  12.263  22.993  0.00  0.00    +0.000 C 
ATOM     17  O   UNL     1      -0.691  12.313  21.711  0.00  0.00    +0.000 OA
ENDBRANCH  10  17
ENDBRANCH   1  13
BRANCH   3  18
ATOM     18  C   UNL     1       1.595   3.745  21.445  0.00  0.00    +0.000 C 
ATOM     19  F   UNL     1       0.799   2.887  20.754  0.00  0.00    +0.000 F 
ATOM     20  F   UNL     1       2.670   3.003  21.842  0.00  0.00    +0.000 F 
ENDBRANCH   3  18
BRANCH   5  21
ATOM     21  C   UNL     1       3.740   2.544  18.982  0.00  0.00    +0.000 C 
ATOM     22  C   UNL     1       2.608   1.617  18.570  0.00  0.00    +0.000 C 
ATOM     23  C   UNL     1       3.861   1.641  17.766  0.00  0.00    +0.000 C 
ENDBRANCH   5  21
BRANCH   7  24
ATOM     24  C   UNL     1       4.544   6.923  16.992  0.00  0.00    +0.000 C 
BRANCH  24  25
ATOM     25  C   UNL     1       6.018   6.701  16.777  0.00  0.00    +0.000 C 
ATOM     26  O   UNL     1       6.867   7.087  17.567  0.00  0.00    +0.000 OA
BRANCH  25  27
ATOM     27  O   UNL     1       6.348   5.948  15.697  0.00  0.00    +0.000 OA
ATOM     28  H   UNL     1       5.947   5.046  15.702  0.00  0.00    +0.000 HD
ENDBRANCH  25  27
ENDBRANCH  24  25
ENDBRANCH   7  24
TORSDOF 7
ENDMDL
MODEL 2
REMARK VINA RESULT:      -7.5      0.480      1.107
REMARK  Name = 
REMARK  8 active torsions:
REMARK  status: ('A' for Active; 'I' for Inactive)
REMARK    1  A    between atoms: C_1  and  O_2
REMARK    2  A    between atoms: O_2  and  C_3
REMARK    3  A    between atoms: C_6  and  C_7
REMARK    4  A    between atoms: C_9  and  C_10
REMARK    5  A    between atoms: C_14  and  C_15
REMARK    6  A    between atoms: N_19  and  C_20
REMARK    7  A    between atoms: C_20  and  C_21
REMARK    8  A    between atoms: C_21  and  O_23
REMARK                            x       y       z     vdW  Elec       q    Type
REMARK                         _______ _______ _______ _____ _____    ______ ____
ROOT
ATOM      1  C   UNL     1       1.826   7.248  20.337  0.00  0.00    +0.000 A 
ATOM      2  C   UNL     1       1.449   6.073  20.986  0.00  0.00    +0.000 A 
ATOM      3  C   UNL     1       1.982   4.818  20.624  0.00  0.00    +0.000 A 
ATOM      4  C   UNL     1       2.912   4.826  19.562  0.00  0.00    +0.000 A 
ATOM      5  C   UNL     1       3.704   3.907  18.809  0.00  0.00    +0.000 A 
ATOM      6  N   UNL     1       4.410   4.509  17.840  0.00  0.00    +0.000 NA
ATOM      7  N   UNL     1       4.176   5.823  18.052  0.00  0.00    +0.000 N 
ATOM      8  C   UNL     1       3.239   6.066  19.017  0.00  0.00    +0.000 A 
ATOM      9  N   UNL     1       2.753   7.275  19.352  0.00  0.00    +0.000 NA
ENDROOT
BRANCH   1  13
ATOM     10  C   UNL     1      -0.080  10.983  21.356  0.00  0.00    +0.000 A 
ATOM     11  C   UNL     1       0.294  10.721  20.039  0.00  0.00    +0.000 A 
ATOM     12  C   UNL     1       0.911   9.509  19.700  0.00  0.00    +0.000 A 
ATOM     13  C   UNL     1       1.189   8.540  20.676  0.00  0.00    +0.000 A 
ATOM     14  C   UNL     1       0.835   8.843  22.004  0.00  0.00    +0.000 A 
ATOM     15  C   UNL     1       0.215  10.049  22.345  0.00  0.00    +0.000 A 
BRANCH  10  17
ATOM     16  C   UNL     1      -1.309  12.312  22.863  0.00  0.00    +0.000 C 
ATOM     17  O   UNL     1      -0.703  12.179  21.582  0.00  0.00    +0.000 OA
ENDBRANCH  10  17
ENDBRANCH   1  13
BRANCH   3  18
ATOM     18  C   UNL     1       1.513   3.602  21.376  0.00  0.00    +0.000 C 
ATOM     19  F   UNL     1       0.769   2.766  20.603  0.00  0.00    +0.000 F 
ATOM     20  F   UNL     1       2.538   2.838  21.854  0.00  0.00    +0.000 F 
ENDBRANCH   3  18
BRANCH   5  21
ATOM     21  C   UNL     1       3.777   2.395  19.026  0.00  0.00    +0.000 C 
ATOM     22  C   UNL     1       2.648   1.512  18.519  0.00  0.00    +0.000 C 
ATOM     23  C   UNL     1       3.950   1.517  17.798  0.00  0.00    +0.000 C 
ENDBRANCH   5  21
BRANCH   7  24
ATOM     24  C   UNL     1       4.833   6.792  17.202  0.00  0.00    +0.000 C 
BRANCH  24  25
ATOM     25  C   UNL     1       6.328   6.789  17.384  0.00  0.00    +0.000 C 
ATOM     26  O   UNL     1       7.080   7.461  16.694  0.00  0.00    +0.000 OA
BRANCH  25  27
ATOM     27  O   UNL     1       6.790   6.071  18.440  0.00  0.00    +0.000 OA
ATOM     28  H   UNL     1       7.642   5.604  18.262  0.00  0.00    +0.000 HD
ENDBRANCH  25  27
ENDBRANCH  24  25
ENDBRANCH   7  24
TORSDOF 7
ENDMDL
MODEL 3
REMARK VINA RESULT:      -7.5      1.240      1.561
REMARK  Name = 
REMARK  8 active torsions:
REMARK  status: ('A' for Active; 'I' for Inactive)
REMARK    1  A    between atoms: C_1  and  O_2
REMARK    2  A    between atoms: O_2  and  C_3
REMARK    3  A    between atoms: C_6  and  C_7
REMARK    4  A    between atoms: C_9  and  C_10
REMARK    5  A    between atoms: C_14  and  C_15
REMARK    6  A    between atoms: N_19  and  C_20
REMARK    7  A    between atoms: C_20  and  C_21
REMARK    8  A    between atoms: C_21  and  O_23
REMARK                            x       y       z     vdW  Elec       q    Type
REMARK                         _______ _______ _______ _____ _____    ______ ____
ROOT
ATOM      1  C   UNL     1       2.264   7.510  19.262  0.00  0.00    +0.000 A 
ATOM      2  C   UNL     1       1.795   6.543  20.150  0.00  0.00    +0.000 A 
ATOM      3  C   UNL     1       2.235   5.205  20.094  0.00  0.00    +0.000 A 
ATOM      4  C   UNL     1       3.172   4.904  19.082  0.00  0.00    +0.000 A 
ATOM      5  C   UNL     1       3.898   3.784  18.576  0.00  0.00    +0.000 A 
ATOM      6  N   UNL     1       4.655   4.098  17.514  0.00  0.00    +0.000 NA
ATOM      7  N   UNL     1       4.519   5.439  17.417  0.00  0.00    +0.000 N 
ATOM      8  C   UNL     1       3.595   5.961  18.279  0.00  0.00    +0.000 A 
ATOM      9  N   UNL     1       3.198   7.247  18.320  0.00  0.00    +0.000 NA
ENDROOT
BRANCH   1  13
ATOM     10  C   UNL     1       0.751  11.551  19.317  0.00  0.00    +0.000 A 
ATOM     11  C   UNL     1       0.460  10.677  20.364  0.00  0.00    +0.000 A 
ATOM     12  C   UNL     1       0.950   9.364  20.354  0.00  0.00    +0.000 A 
ATOM     13  C   UNL     1       1.724   8.887  19.284  0.00  0.00    +0.000 A 
ATOM     14  C   UNL     1       1.973   9.778  18.223  0.00  0.00    +0.000 A 
ATOM     15  C   UNL     1       1.490  11.090  18.232  0.00  0.00    +0.000 A 
BRANCH  10  17
ATOM     16  C   UNL     1      -0.443  13.301  18.288  0.00  0.00    +0.000 C 
ATOM     17  O   UNL     1       0.253  12.820  19.433  0.00  0.00    +0.000 OA
ENDBRANCH  10  17
ENDBRANCH   1  13
BRANCH   3  18
ATOM     18  C   UNL     1       1.670   4.228  21.091  0.00  0.00    +0.000 C 
ATOM     19  F   UNL     1       0.789   3.360  20.526  0.00  0.00    +0.000 F 
ATOM     20  F   UNL     1       2.624   3.447  21.677  0.00  0.00    +0.000 F 
ENDBRANCH   3  18
BRANCH   5  21
ATOM     21  C   UNL     1       3.855   2.360  19.131  0.00  0.00    +0.000 C 
ATOM     22  C   UNL     1       2.650   1.480  18.840  0.00  0.00    +0.000 C 
ATOM     23  C   UNL     1       3.934   1.215  18.134  0.00  0.00    +0.000 C 
ENDBRANCH   5  21
BRANCH   7  24
ATOM     24  C   UNL     1       5.254   6.140  16.387  0.00  0.00    +0.000 C 
BRANCH  24  25
ATOM     25  C   UNL     1       6.729   6.200  16.679  0.00  0.00    +0.000 C 
ATOM     26  O   UNL     1       7.298   7.231  17.006  0.00  0.00    +0.000 OA
BRANCH  25  27
ATOM     27  O   UNL     1       7.380   5.008  16.662  0.00  0.00    +0.000 OA
ATOM     28  H   UNL     1       8.341   5.082  16.448  0.00  0.00    +0.000 HD
ENDBRANCH  25  27
ENDBRANCH  24  25
ENDBRANCH   7  24
TORSDOF 7
ENDMDL
MODEL 4
REMARK VINA RESULT:      -7.5      1.038      1.665
REMARK  Name = 
REMARK  8 active torsions:
REMARK  status: ('A' for Active; 'I' for Inactive)
REMARK    1  A    between atoms: C_1  and  O_2
REMARK    2  A    between atoms: O_2  and  C_3
REMARK    3  A    between atoms: C_6  and  C_7
REMARK    4  A    between atoms: C_9  and  C_10
REMARK    5  A    between atoms: C_14  and  C_15
REMARK    6  A    between atoms: N_19  and  C_20
REMARK    7  A    between atoms: C_20  and  C_21
REMARK    8  A    between atoms: C_21  and  O_23
REMARK                            x       y       z     vdW  Elec       q    Type
REMARK                         _______ _______ _______ _____ _____    ______ ____
ROOT
ATOM      1  C   UNL     1       2.113   7.325  19.657  0.00  0.00    +0.000 A 
ATOM      2  C   UNL     1       1.630   6.276  20.438  0.00  0.00    +0.000 A 
ATOM      3  C   UNL     1       2.134   4.964  20.318  0.00  0.00    +0.000 A 
ATOM      4  C   UNL     1       3.151   4.779  19.356  0.00  0.00    +0.000 A 
ATOM      5  C   UNL     1       3.961   3.731  18.825  0.00  0.00    +0.000 A 
ATOM      6  N   UNL     1       4.774   4.154  17.846  0.00  0.00    +0.000 NA
ATOM      7  N   UNL     1       4.583   5.491  17.836  0.00  0.00    +0.000 N 
ATOM      8  C   UNL     1       3.579   5.909  18.664  0.00  0.00    +0.000 A 
ATOM      9  N   UNL     1       3.121   7.171  18.768  0.00  0.00    +0.000 NA
ENDROOT
BRANCH   1  13
ATOM     10  C   UNL     1       0.297  11.230  19.921  0.00  0.00    +0.000 A 
ATOM     11  C   UNL     1       0.868  10.800  18.724  0.00  0.00    +0.000 A 
ATOM     12  C   UNL     1       1.457   9.531  18.630  0.00  0.00    +0.000 A 
ATOM     13  C   UNL     1       1.510   8.673  19.739  0.00  0.00    +0.000 A 
ATOM     14  C   UNL     1       0.959   9.145  20.946  0.00  0.00    +0.000 A 
ATOM     15  C   UNL     1       0.366  10.408  21.041  0.00  0.00    +0.000 A 
BRANCH  10  17
ATOM     16  C   UNL     1      -0.512  13.010  18.608  0.00  0.00    +0.000 C 
ATOM     17  O   UNL     1      -0.280  12.470  19.905  0.00  0.00    +0.000 OA
ENDBRANCH  10  17
ENDBRANCH   1  13
BRANCH   3  18
ATOM     18  C   UNL     1       1.547   3.894  21.198  0.00  0.00    +0.000 C 
ATOM     19  F   UNL     1       0.758   3.027  20.509  0.00  0.00    +0.000 F 
ATOM     20  F   UNL     1       2.494   3.119  21.804  0.00  0.00    +0.000 F 
ENDBRANCH   3  18
BRANCH   5  21
ATOM     21  C   UNL     1       3.946   2.268  19.272  0.00  0.00    +0.000 C 
ATOM     22  C   UNL     1       2.775   1.380  18.884  0.00  0.00    +0.000 C 
ATOM     23  C   UNL     1       4.084   1.204  18.196  0.00  0.00    +0.000 C 
ENDBRANCH   5  21
BRANCH   7  24
ATOM     24  C   UNL     1       5.354   6.298  16.914  0.00  0.00    +0.000 C 
BRANCH  24  25
ATOM     25  C   UNL     1       6.772   5.811  16.780  0.00  0.00    +0.000 C 
ATOM     26  O   UNL     1       7.347   5.738  15.704  0.00  0.00    +0.000 OA
BRANCH  25  27
ATOM     27  O   UNL     1       7.419   5.556  17.946  0.00  0.00    +0.000 OA
ATOM     28  H   UNL     1       6.876   5.735  18.751  0.00  0.00    +0.000 HD
ENDBRANCH  25  27
ENDBRANCH  24  25
ENDBRANCH   7  24
TORSDOF 7
ENDMDL
MODEL 5
REMARK VINA RESULT:      -7.2      1.462      2.005
REMARK  Name = 
REMARK  8 active torsions:
REMARK  status: ('A' for Active; 'I' for Inactive)
REMARK    1  A    between atoms: C_1  and  O_2
REMARK    2  A    between atoms: O_2  and  C_3
REMARK    3  A    between atoms: C_6  and  C_7
REMARK    4  A    between atoms: C_9  and  C_10
REMARK    5  A    between atoms: C_14  and  C_15
REMARK    6  A    between atoms: N_19  and  C_20
REMARK    7  A    between atoms: C_20  and  C_21
REMARK    8  A    between atoms: C_21  and  O_23
REMARK                            x       y       z     vdW  Elec       q    Type
REMARK                         _______ _______ _______ _____ _____    ______ ____
ROOT
ATOM      1  C   UNL     1       2.230   7.814  19.000  0.00  0.00    +0.000 A 
ATOM      2  C   UNL     1       1.763   6.901  19.944  0.00  0.00    +0.000 A 
ATOM      3  C   UNL     1       2.171   5.551  19.939  0.00  0.00    +0.000 A 
ATOM      4  C   UNL     1       3.074   5.182  18.918  0.00  0.00    +0.000 A 
ATOM      5  C   UNL     1       3.761   4.023  18.447  0.00  0.00    +0.000 A 
ATOM      6  N   UNL     1       4.497   4.270  17.353  0.00  0.00    +0.000 NA
ATOM      7  N   UNL     1       4.389   5.608  17.197  0.00  0.00    +0.000 N 
ATOM      8  C   UNL     1       3.500   6.191  18.057  0.00  0.00    +0.000 A 
ATOM      9  N   UNL     1       3.133   7.486  18.048  0.00  0.00    +0.000 NA
ENDROOT
BRANCH   1  13
ATOM     10  C   UNL     1       0.685  11.843  18.910  0.00  0.00    +0.000 A 
ATOM     11  C   UNL     1       1.723  11.468  18.058  0.00  0.00    +0.000 A 
ATOM     12  C   UNL     1       2.228  10.161  18.079  0.00  0.00    +0.000 A 
ATOM     13  C   UNL     1       1.722   9.204  18.972  0.00  0.00    +0.000 A 
ATOM     14  C   UNL     1       0.700   9.616  19.847  0.00  0.00    +0.000 A 
ATOM     15  C   UNL     1       0.190  10.918  19.825  0.00  0.00    +0.000 A 
BRANCH  10  17
ATOM     16  C   UNL     1      -0.640  13.561  19.826  0.00  0.00    +0.000 C 
ATOM     17  O   UNL     1       0.241  13.131  18.793  0.00  0.00    +0.000 OA
ENDBRANCH  10  17
ENDBRANCH   1  13
BRANCH   3  18
ATOM     18  C   UNL     1       1.611   4.635  20.993  0.00  0.00    +0.000 C 
ATOM     19  F   UNL     1       0.695   3.763  20.492  0.00  0.00    +0.000 F 
ATOM     20  F   UNL     1       2.561   3.859  21.591  0.00  0.00    +0.000 F 
ENDBRANCH   3  18
BRANCH   5  21
ATOM     21  C   UNL     1       3.701   2.627  19.068  0.00  0.00    +0.000 C 
ATOM     22  C   UNL     1       2.484   1.752  18.822  0.00  0.00    +0.000 C 
ATOM     23  C   UNL     1       3.762   1.436  18.126  0.00  0.00    +0.000 C 
ENDBRANCH   5  21
BRANCH   7  24
ATOM     24  C   UNL     1       5.112   6.244  16.118  0.00  0.00    +0.000 C 
BRANCH  24  25
ATOM     25  C   UNL     1       6.175   5.349  15.539  0.00  0.00    +0.000 C 
ATOM     26  O   UNL     1       6.082   4.843  14.430  0.00  0.00    +0.000 OA
BRANCH  25  27
ATOM     27  O   UNL     1       7.304   5.219  16.282  0.00  0.00    +0.000 OA
ATOM     28  H   UNL     1       7.902   6.004  16.240  0.00  0.00    +0.000 HD
ENDBRANCH  25  27
ENDBRANCH  24  25
ENDBRANCH   7  24
TORSDOF 7
ENDMDL
MODEL 6
REMARK VINA RESULT:      -7.1      3.648      7.875
REMARK  Name = 
REMARK  8 active torsions:
REMARK  status: ('A' for Active; 'I' for Inactive)
REMARK    1  A    between atoms: C_1  and  O_2
REMARK    2  A    between atoms: O_2  and  C_3
REMARK    3  A    between atoms: C_6  and  C_7
REMARK    4  A    between atoms: C_9  and  C_10
REMARK    5  A    between atoms: C_14  and  C_15
REMARK    6  A    between atoms: N_19  and  C_20
REMARK    7  A    between atoms: C_20  and  C_21
REMARK    8  A    between atoms: C_21  and  O_23
REMARK                            x       y       z     vdW  Elec       q    Type
REMARK                         _______ _______ _______ _____ _____    ______ ____
ROOT
ATOM      1  C   UNL     1       3.800   6.243  17.519  0.00  0.00    +0.000 A 
ATOM      2  C   UNL     1       3.312   7.534  17.319  0.00  0.00    +0.000 A 
ATOM      3  C   UNL     1       2.460   8.160  18.252  0.00  0.00    +0.000 A 
ATOM      4  C   UNL     1       2.129   7.399  19.395  0.00  0.00    +0.000 A 
ATOM      5  C   UNL     1       1.341   7.512  20.579  0.00  0.00    +0.000 A 
ATOM      6  N   UNL     1       1.373   6.398  21.327  0.00  0.00    +0.000 NA
ATOM      7  N   UNL     1       2.280   5.622  20.694  0.00  0.00    +0.000 N 
ATOM      8  C   UNL     1       2.709   6.137  19.503  0.00  0.00    +0.000 A 
ATOM      9  N   UNL     1       3.532   5.523  18.632  0.00  0.00    +0.000 NA
ENDROOT
BRANCH   1  13
ATOM     10  C   UNL     1       6.234   4.263  14.556  0.00  0.00    +0.000 A 
ATOM     11  C   UNL     1       6.042   5.643  14.501  0.00  0.00    +0.000 A 
ATOM     12  C   UNL     1       5.255   6.294  15.461  0.00  0.00    +0.000 A 
ATOM     13  C   UNL     1       4.622   5.574  16.487  0.00  0.00    +0.000 A 
ATOM     14  C   UNL     1       4.801   4.178  16.499  0.00  0.00    +0.000 A 
ATOM     15  C   UNL     1       5.589   3.527  15.545  0.00  0.00    +0.000 A 
BRANCH  10  17
ATOM     16  C   UNL     1       6.404   3.463  12.348  0.00  0.00    +0.000 C 
ATOM     17  O   UNL     1       7.042   3.726  13.593  0.00  0.00    +0.000 OA
ENDBRANCH  10  17
ENDBRANCH   1  13
BRANCH   3  18
ATOM     18  C   UNL     1       1.976   9.553  17.950  0.00  0.00    +0.000 C 
ATOM     19  F   UNL     1       0.654   9.588  17.634  0.00  0.00    +0.000 F 
ATOM     20  F   UNL     1       2.120  10.411  19.002  0.00  0.00    +0.000 F 
ENDBRANCH   3  18
BRANCH   5  21
ATOM     21  C   UNL     1       0.522   8.732  21.003  0.00  0.00    +0.000 C 
ATOM     22  C   UNL     1      -0.507   8.592  22.113  0.00  0.00    +0.000 C 
ATOM     23  C   UNL     1       0.774   9.299  22.390  0.00  0.00    +0.000 C 
ENDBRANCH   5  21
BRANCH   7  24
ATOM     24  C   UNL     1       2.612   4.334  21.263  0.00  0.00    +0.000 C 
BRANCH  24  25
ATOM     25  C   UNL     1       1.436   3.394  21.271  0.00  0.00    +0.000 C 
ATOM     26  O   UNL     1       1.289   2.525  22.118  0.00  0.00    +0.000 OA
BRANCH  25  27
ATOM     27  O   UNL     1       0.483   3.637  20.335  0.00  0.00    +0.000 OA
ATOM     28  H   UNL     1       0.141   4.563  20.345  0.00  0.00    +0.000 HD
ENDBRANCH  25  27
ENDBRANCH  24  25
ENDBRANCH   7  24
TORSDOF 7
ENDMDL
MODEL 7
REMARK VINA RESULT:      -6.9      1.093      1.658
REMARK  Name = 
REMARK  8 active torsions:
REMARK  status: ('A' for Active; 'I' for Inactive)
REMARK    1  A    between atoms: C_1  and  O_2
REMARK    2  A    between atoms: O_2  and  C_3
REMARK    3  A    between atoms: C_6  and  C_7
REMARK    4  A    between atoms: C_9  and  C_10
REMARK    5  A    between atoms: C_14  and  C_15
REMARK    6  A    between atoms: N_19  and  C_20
REMARK    7  A    between atoms: C_20  and  C_21
REMARK    8  A    between atoms: C_21  and  O_23
REMARK                            x       y       z     vdW  Elec       q    Type
REMARK                         _______ _______ _______ _____ _____    ______ ____
ROOT
ATOM      1  C   UNL     1       2.184   7.425  19.395  0.00  0.00    +0.000 A 
ATOM      2  C   UNL     1       1.851   6.352  20.220  0.00  0.00    +0.000 A 
ATOM      3  C   UNL     1       2.397   5.066  20.025  0.00  0.00    +0.000 A 
ATOM      4  C   UNL     1       3.293   4.934  18.942  0.00  0.00    +0.000 A 
ATOM      5  C   UNL     1       4.078   3.927  18.304  0.00  0.00    +0.000 A 
ATOM      6  N   UNL     1       4.742   4.392  17.234  0.00  0.00    +0.000 NA
ATOM      7  N   UNL     1       4.489   5.719  17.261  0.00  0.00    +0.000 N 
ATOM      8  C   UNL     1       3.578   6.086  18.213  0.00  0.00    +0.000 A 
ATOM      9  N   UNL     1       3.079   7.324  18.386  0.00  0.00    +0.000 NA
ENDROOT
BRANCH   1  13
ATOM     10  C   UNL     1       0.230  11.238  19.915  0.00  0.00    +0.000 A 
ATOM     11  C   UNL     1       0.817  10.909  18.693  0.00  0.00    +0.000 A 
ATOM     12  C   UNL     1       1.450   9.672  18.516  0.00  0.00    +0.000 A 
ATOM     13  C   UNL     1       1.533   8.743  19.566  0.00  0.00    +0.000 A 
ATOM     14  C   UNL     1       0.966   9.114  20.800  0.00  0.00    +0.000 A 
ATOM     15  C   UNL     1       0.328  10.346  20.978  0.00  0.00    +0.000 A 
BRANCH  10  17
ATOM     16  C   UNL     1       0.446  13.574  19.700  0.00  0.00    +0.000 C 
ATOM     17  O   UNL     1      -0.390  12.455  19.979  0.00  0.00    +0.000 OA
ENDBRANCH  10  17
ENDBRANCH   1  13
BRANCH   3  18
ATOM     18  C   UNL     1       1.977   3.965  20.961  0.00  0.00    +0.000 C 
ATOM     19  F   UNL     1       2.331   4.214  22.250  0.00  0.00    +0.000 F 
ATOM     20  F   UNL     1       0.626   3.769  20.987  0.00  0.00    +0.000 F 
ENDBRANCH   3  18
BRANCH   5  21
ATOM     21  C   UNL     1       4.188   2.464  18.734  0.00  0.00    +0.000 C 
ATOM     22  C   UNL     1       2.944   1.592  18.741  0.00  0.00    +0.000 C 
ATOM     23  C   UNL     1       3.963   1.400  17.672  0.00  0.00    +0.000 C 
ENDBRANCH   5  21
BRANCH   7  24
ATOM     24  C   UNL     1       5.100   6.565  16.259  0.00  0.00    +0.000 C 
BRANCH  24  25
ATOM     25  C   UNL     1       6.580   6.728  16.476  0.00  0.00    +0.000 C 
ATOM     26  O   UNL     1       7.055   7.637  17.141  0.00  0.00    +0.000 OA
BRANCH  25  27
ATOM     27  O   UNL     1       7.361   5.738  15.973  0.00  0.00    +0.000 OA
ATOM     28  H   UNL     1       7.311   5.649  14.991  0.00  0.00    +0.000 HD
ENDBRANCH  25  27
ENDBRANCH  24  25
ENDBRANCH   7  24
TORSDOF 7
ENDMDL
MODEL 8
REMARK VINA RESULT:      -6.9      3.300      4.290
REMARK  Name = 
REMARK  8 active torsions:
REMARK  status: ('A' for Active; 'I' for Inactive)
REMARK    1  A    between atoms: C_1  and  O_2
REMARK    2  A    between atoms: O_2  and  C_3
REMARK    3  A    between atoms: C_6  and  C_7
REMARK    4  A    between atoms: C_9  and  C_10
REMARK    5  A    between atoms: C_14  and  C_15
REMARK    6  A    between atoms: N_19  and  C_20
REMARK    7  A    between atoms: C_20  and  C_21
REMARK    8  A    between atoms: C_21  and  O_23
REMARK                            x       y       z     vdW  Elec       q    Type
REMARK                         _______ _______ _______ _____ _____    ______ ____
ROOT
ATOM      1  C   UNL     1       2.487   6.969  18.963  0.00  0.00    +0.000 A 
ATOM      2  C   UNL     1       3.454   7.291  18.012  0.00  0.00    +0.000 A 
ATOM      3  C   UNL     1       4.221   6.301  17.364  0.00  0.00    +0.000 A 
ATOM      4  C   UNL     1       3.953   4.967  17.743  0.00  0.00    +0.000 A 
ATOM      5  C   UNL     1       4.410   3.647  17.451  0.00  0.00    +0.000 A 
ATOM      6  N   UNL     1       3.783   2.712  18.182  0.00  0.00    +0.000 NA
ATOM      7  N   UNL     1       2.837   3.414  18.844  0.00  0.00    +0.000 N 
ATOM      8  C   UNL     1       2.938   4.767  18.675  0.00  0.00    +0.000 A 
ATOM      9  N   UNL     1       2.187   5.694  19.298  0.00  0.00    +0.000 NA
ENDROOT
BRANCH   1  13
ATOM     10  C   UNL     1       0.402  10.106  21.069  0.00  0.00    +0.000 A 
ATOM     11  C   UNL     1       0.716   8.912  21.718  0.00  0.00    +0.000 A 
ATOM     12  C   UNL     1       1.395   7.890  21.040  0.00  0.00    +0.000 A 
ATOM     13  C   UNL     1       1.756   8.030  19.691  0.00  0.00    +0.000 A 
ATOM     14  C   UNL     1       1.395   9.230  19.049  0.00  0.00    +0.000 A 
ATOM     15  C   UNL     1       0.722  10.253  19.723  0.00  0.00    +0.000 A 
BRANCH  10  17
ATOM     16  C   UNL     1      -0.878  10.561  22.993  0.00  0.00    +0.000 C 
ATOM     17  O   UNL     1      -0.234  11.054  21.823  0.00  0.00    +0.000 OA
ENDBRANCH  10  17
ENDBRANCH   1  13
BRANCH   3  18
ATOM     18  C   UNL     1       5.247   6.742  16.355  0.00  0.00    +0.000 C 
ATOM     19  F   UNL     1       4.685   7.323  15.261  0.00  0.00    +0.000 F 
ATOM     20  F   UNL     1       6.122   7.666  16.847  0.00  0.00    +0.000 F 
ENDBRANCH   3  18
BRANCH   5  21
ATOM     21  C   UNL     1       5.493   3.272  16.439  0.00  0.00    +0.000 C 
ATOM     22  C   UNL     1       5.584   4.033  15.126  0.00  0.00    +0.000 C 
ATOM     23  C   UNL     1       6.599   4.284  16.187  0.00  0.00    +0.000 C 
ENDBRANCH   5  21
BRANCH   7  24
ATOM     24  C   UNL     1       1.921   2.703  19.709  0.00  0.00    +0.000 C 
BRANCH  24  25
ATOM     25  C   UNL     1       2.422   2.622  21.127  0.00  0.00    +0.000 C 
ATOM     26  O   UNL     1       1.679   2.686  22.095  0.00  0.00    +0.000 OA
BRANCH  25  27
ATOM     27  O   UNL     1       3.748   2.366  21.268  0.00  0.00    +0.000 OA
ATOM     28  H   UNL     1       4.321   2.873  20.645  0.00  0.00    +0.000 HD
ENDBRANCH  25  27
ENDBRANCH  24  25
ENDBRANCH   7  24
TORSDOF 7
ENDMDL
MODEL 9
REMARK VINA RESULT:      -6.8      0.901      1.267
REMARK  Name = 
REMARK  8 active torsions:
REMARK  status: ('A' for Active; 'I' for Inactive)
REMARK    1  A    between atoms: C_1  and  O_2
REMARK    2  A    between atoms: O_2  and  C_3
REMARK    3  A    between atoms: C_6  and  C_7
REMARK    4  A    between atoms: C_9  and  C_10
REMARK    5  A    between atoms: C_14  and  C_15
REMARK    6  A    between atoms: N_19  and  C_20
REMARK    7  A    between atoms: C_20  and  C_21
REMARK    8  A    between atoms: C_21  and  O_23
REMARK                            x       y       z     vdW  Elec       q    Type
REMARK                         _______ _______ _______ _____ _____    ______ ____
ROOT
ATOM      1  C   UNL     1       2.167   7.274  19.643  0.00  0.00    +0.000 A 
ATOM      2  C   UNL     1       1.783   6.154  20.380  0.00  0.00    +0.000 A 
ATOM      3  C   UNL     1       2.357   4.885  20.161  0.00  0.00    +0.000 A 
ATOM      4  C   UNL     1       3.338   4.818  19.147  0.00  0.00    +0.000 A 
ATOM      5  C   UNL     1       4.183   3.853  18.521  0.00  0.00    +0.000 A 
ATOM      6  N   UNL     1       4.924   4.380  17.534  0.00  0.00    +0.000 NA
ATOM      7  N   UNL     1       4.654   5.702  17.612  0.00  0.00    +0.000 N 
ATOM      8  C   UNL     1       3.667   6.010  18.506  0.00  0.00    +0.000 A 
ATOM      9  N   UNL     1       3.141   7.233  18.704  0.00  0.00    +0.000 NA
ENDROOT
BRANCH   1  13
ATOM     10  C   UNL     1       0.246  11.102  20.164  0.00  0.00    +0.000 A 
ATOM     11  C   UNL     1       0.380  10.230  21.243  0.00  0.00    +0.000 A 
ATOM     12  C   UNL     1       1.005   8.986  21.082  0.00  0.00    +0.000 A 
ATOM     13  C   UNL     1       1.490   8.576  19.831  0.00  0.00    +0.000 A 
ATOM     14  C   UNL     1       1.310   9.459  18.749  0.00  0.00    +0.000 A 
ATOM     15  C   UNL     1       0.691  10.702  18.907  0.00  0.00    +0.000 A 
BRANCH  10  17
ATOM     16  C   UNL     1       0.194  13.019  21.532  0.00  0.00    +0.000 C 
ATOM     17  O   UNL     1      -0.351  12.304  20.428  0.00  0.00    +0.000 OA
ENDBRANCH  10  17
ENDBRANCH   1  13
BRANCH   3  18
ATOM     18  C   UNL     1       1.875   3.732  21.000  0.00  0.00    +0.000 C 
ATOM     19  F   UNL     1       2.204   3.870  22.312  0.00  0.00    +0.000 F 
ATOM     20  F   UNL     1       0.519   3.583  20.979  0.00  0.00    +0.000 F 
ENDBRANCH   3  18
BRANCH   5  21
ATOM     21  C   UNL     1       4.275   2.369  18.880  0.00  0.00    +0.000 C 
ATOM     22  C   UNL     1       3.032   1.499  18.782  0.00  0.00    +0.000 C 
ATOM     23  C   UNL     1       4.102   1.362  17.755  0.00  0.00    +0.000 C 
ENDBRANCH   5  21
BRANCH   7  24
ATOM     24  C   UNL     1       5.333   6.605  16.709  0.00  0.00    +0.000 C 
BRANCH  24  25
ATOM     25  C   UNL     1       6.831   6.477  16.793  0.00  0.00    +0.000 C 
ATOM     26  O   UNL     1       7.506   6.003  15.891  0.00  0.00    +0.000 OA
BRANCH  25  27
ATOM     27  O   UNL     1       7.407   7.020  17.896  0.00  0.00    +0.000 OA
ATOM     28  H   UNL     1       6.823   7.020  18.692  0.00  0.00    +0.000 HD
ENDBRANCH  25  27
ENDBRANCH  24  25
ENDBRANCH   7  24
TORSDOF 7
ENDMDL
