MODEL 1
REMARK VINA RESULT:      -8.8      0.000      0.000
REMARK  Name = 
REMARK  8 active torsions:
REMARK  status: ('A' for Active; 'I' for Inactive)
REMARK    1  A    between atoms: C_1  and  O_2
REMARK    2  A    between atoms: O_2  and  C_3
REMARK    3  A    between atoms: C_3  and  C_5
REMARK    4  A    between atoms: C_9  and  S_10
REMARK    5  A    between atoms: S_10  and  N_13
REMARK    6  A    between atoms: C_14  and  C_16
REMARK    7  A    between atoms: C_16  and  O_17
REMARK    8  A    between atoms: O_17  and  C_18
REMARK                            x       y       z     vdW  Elec       q    Type
REMARK                         _______ _______ _______ _____ _____    ______ ____
ROOT
ATOM      1  N   UNL     1       2.864   2.902  19.933  0.00  0.00    +0.000 N 
ATOM      2  C   UNL     1       2.257   3.702  20.917  0.00  0.00    +0.000 C 
ATOM      3  O   UNL     1       2.384   3.355  22.087  0.00  0.00    +0.000 OA
ATOM      4  H   UNL     1       3.339   2.068  20.275  0.00  0.00    +0.000 HD
ENDROOT
BRANCH   1   5
ATOM      5  S   UNL     1       2.820   3.028  18.288  0.00  0.00    +0.000 S 
ATOM      6  O   UNL     1       1.726   3.902  17.924  0.00  0.00    +0.000 OA
ATOM      7  O   UNL     1       2.922   1.688  17.766  0.00  0.00    +0.000 OA
BRANCH   5  12
ATOM      8  C   UNL     1       6.074   4.525  16.369  0.00  0.00    +0.000 A 
ATOM      9  C   UNL     1       6.812   5.048  17.444  0.00  0.00    +0.000 A 
ATOM     10  C   UNL     1       6.321   4.977  18.749  0.00  0.00    +0.000 A 
ATOM     11  C   UNL     1       5.091   4.373  18.995  0.00  0.00    +0.000 A 
ATOM     12  C   UNL     1       4.354   3.847  17.927  0.00  0.00    +0.000 A 
ATOM     13  C   UNL     1       4.834   3.919  16.614  0.00  0.00    +0.000 A 
BRANCH   8  14
ATOM     14  C   UNL     1       6.677   4.613  15.011  0.00  0.00    +0.000 C 
ATOM     15  O   UNL     1       7.645   5.313  14.753  0.00  0.00    +0.000 OA
BRANCH  14  17
ATOM     16  C   UNL     1       6.563   3.823  12.816  0.00  0.00    +0.000 C 
ATOM     17  O   UNL     1       6.022   3.807  14.139  0.00  0.00    +0.000 OA
ENDBRANCH  14  17
ENDBRANCH   8  14
ENDBRANCH   5  12
ENDBRANCH   1   5
BRANCH   2  18
ATOM     18  C   UNL     1       1.519   4.979  20.527  0.00  0.00    +0.000 C 
BRANCH  18  19
ATOM     19  O   UNL     1       2.483   5.994  20.274  0.00  0.00    +0.000 OA
BRANCH  19  20
ATOM     20  C   UNL     1       2.007   7.247  20.001  0.00  0.00    +0.000 A 
ATOM     21  C   UNL     1       2.312   7.704  18.719  0.00  0.00    +0.000 A 
ATOM     22  C   UNL     1       1.841   8.939  18.276  0.00  0.00    +0.000 A 
ATOM     23  C   UNL     1       1.059   9.745  19.114  0.00  0.00    +0.000 A 
ATOM     24  C   UNL     1       0.524  10.958  18.653  0.00  0.00    +0.000 A 
ATOM     25  C   UNL     1      -0.231  11.768  19.499  0.00  0.00    +0.000 A 
ATOM     26  C   UNL     1      -0.426  11.395  20.826  0.00  0.00    +0.000 A 
ATOM     27  C   UNL     1       0.086  10.182  21.293  0.00  0.00    +0.000 A 
ATOM     28  C   UNL     1       0.805   9.326  20.439  0.00  0.00    +0.000 A 
ATOM     29  C   UNL     1       1.272   8.065  20.864  0.00  0.00    +0.000 A 
ENDBRANCH  19  20
ENDBRANCH  18  19
ENDBRANCH   2  18
TORSDOF 7
ENDMDL
MODEL 2
REMARK VINA RESULT:      -8.7      3.813      5.831
REMARK  Name = 
REMARK  8 active torsions:
REMARK  status: ('A' for Active; 'I' for Inactive)
REMARK    1  A    between atoms: C_1  and  O_2
REMARK    2  A    between atoms: O_2  and  C_3
REMARK    3  A    between atoms: C_3  and  C_5
REMARK    4  A    between atoms: C_9  and  S_10
REMARK    5  A    between atoms: S_10  and  N_13
REMARK    6  A    between atoms: C_14  and  C_16
REMARK    7  A    between atoms: C_16  and  O_17
REMARK    8  A    between atoms: O_17  and  C_18
REMARK                            x       y       z     vdW  Elec       q    Type
REMARK                         _______ _______ _______ _____ _____    ______ ____
ROOT
ATOM      1  N   UNL     1       7.350   4.408  16.660  0.00  0.00    +0.000 N 
ATOM      2  C   UNL     1       7.885   4.686  17.930  0.00  0.00    +0.000 C 
ATOM      3  O   UNL     1       8.822   3.993  18.313  0.00  0.00    +0.000 OA
ATOM      4  H   UNL     1       7.771   3.621  16.167  0.00  0.00    +0.000 HD
ENDROOT
BRANCH   1   5
ATOM      5  S   UNL     1       6.055   5.077  15.885  0.00  0.00    +0.000 S 
ATOM      6  O   UNL     1       6.121   6.514  16.038  0.00  0.00    +0.000 OA
ATOM      7  O   UNL     1       4.895   4.326  16.293  0.00  0.00    +0.000 OA
BRANCH   5  12
ATOM      8  C   UNL     1       5.858   3.415  12.181  0.00  0.00    +0.000 A 
ATOM      9  C   UNL     1       6.986   3.981  11.565  0.00  0.00    +0.000 A 
ATOM     10  C   UNL     1       7.797   4.886  12.252  0.00  0.00    +0.000 A 
ATOM     11  C   UNL     1       7.494   5.229  13.567  0.00  0.00    +0.000 A 
ATOM     12  C   UNL     1       6.373   4.665  14.186  0.00  0.00    +0.000 A 
ATOM     13  C   UNL     1       5.550   3.760  13.505  0.00  0.00    +0.000 A 
BRANCH   8  14
ATOM     14  C   UNL     1       5.060   2.436  11.394  0.00  0.00    +0.000 C 
ATOM     15  O   UNL     1       5.532   1.410  10.928  0.00  0.00    +0.000 OA
BRANCH  14  17
ATOM     16  C   UNL     1       3.492   3.635  10.146  0.00  0.00    +0.000 C 
ATOM     17  O   UNL     1       3.767   2.834  11.298  0.00  0.00    +0.000 OA
ENDBRANCH  14  17
ENDBRANCH   8  14
ENDBRANCH   5  12
ENDBRANCH   1   5
BRANCH   2  18
ATOM     18  C   UNL     1       7.341   5.844  18.761  0.00  0.00    +0.000 C 
BRANCH  18  19
ATOM     19  O   UNL     1       6.609   5.305  19.855  0.00  0.00    +0.000 OA
BRANCH  19  20
ATOM     20  C   UNL     1       5.321   4.915  19.607  0.00  0.00    +0.000 A 
ATOM     21  C   UNL     1       4.458   5.966  19.303  0.00  0.00    +0.000 A 
ATOM     22  C   UNL     1       3.128   5.717  18.968  0.00  0.00    +0.000 A 
ATOM     23  C   UNL     1       2.635   4.407  18.938  0.00  0.00    +0.000 A 
ATOM     24  C   UNL     1       1.316   4.141  18.535  0.00  0.00    +0.000 A 
ATOM     25  C   UNL     1       0.824   2.838  18.532  0.00  0.00    +0.000 A 
ATOM     26  C   UNL     1       1.628   1.790  18.970  0.00  0.00    +0.000 A 
ATOM     27  C   UNL     1       2.948   2.038  19.356  0.00  0.00    +0.000 A 
ATOM     28  C   UNL     1       3.480   3.339  19.314  0.00  0.00    +0.000 A 
ATOM     29  C   UNL     1       4.827   3.607  19.631  0.00  0.00    +0.000 A 
ENDBRANCH  19  20
ENDBRANCH  18  19
ENDBRANCH   2  18
TORSDOF 7
ENDMDL
MODEL 3
REMARK VINA RESULT:      -8.7      3.854      5.874
REMARK  Name = 
REMARK  8 active torsions:
REMARK  status: ('A' for Active; 'I' for Inactive)
REMARK    1  A    between atoms: C_1  and  O_2
REMARK    2  A    between atoms: O_2  and  C_3
REMARK    3  A    between atoms: C_3  and  C_5
REMARK    4  A    between atoms: C_9  and  S_10
REMARK    5  A    between atoms: S_10  and  N_13
REMARK    6  A    between atoms: C_14  and  C_16
REMARK    7  A    between atoms: C_16  and  O_17
REMARK    8  A    between atoms: O_17  and  C_18
REMARK                            x       y       z     vdW  Elec       q    Type
REMARK                         _______ _______ _______ _____ _____    ______ ____
ROOT
ATOM      1  N   UNL     1       7.409   4.401  16.587  0.00  0.00    +0.000 N 
ATOM      2  C   UNL     1       7.903   4.676  17.874  0.00  0.00    +0.000 C 
ATOM      3  O   UNL     1       8.848   4.005  18.274  0.00  0.00    +0.000 OA
ATOM      4  H   UNL     1       7.863   3.631  16.097  0.00  0.00    +0.000 HD
ENDROOT
BRANCH   1   5
ATOM      5  S   UNL     1       6.116   5.043  15.786  0.00  0.00    +0.000 S 
ATOM      6  O   UNL     1       6.137   6.479  15.960  0.00  0.00    +0.000 OA
ATOM      7  O   UNL     1       4.967   4.255  16.153  0.00  0.00    +0.000 OA
BRANCH   5  12
ATOM      8  C   UNL     1       6.190   3.309  12.112  0.00  0.00    +0.000 A 
ATOM      9  C   UNL     1       7.198   4.052  11.477  0.00  0.00    +0.000 A 
ATOM     10  C   UNL     1       7.842   5.097  12.141  0.00  0.00    +0.000 A 
ATOM     11  C   UNL     1       7.492   5.404  13.453  0.00  0.00    +0.000 A 
ATOM     12  C   UNL     1       6.491   4.664  14.092  0.00  0.00    +0.000 A 
ATOM     13  C   UNL     1       5.834   3.618  13.432  0.00  0.00    +0.000 A 
BRANCH   8  14
ATOM     14  C   UNL     1       5.570   2.192  11.348  0.00  0.00    +0.000 C 
ATOM     15  O   UNL     1       4.388   2.169  11.039  0.00  0.00    +0.000 OA
BRANCH  14  17
ATOM     16  C   UNL     1       6.040  -0.093  11.240  0.00  0.00    +0.000 C 
ATOM     17  O   UNL     1       6.493   1.248  11.039  0.00  0.00    +0.000 OA
ENDBRANCH  14  17
ENDBRANCH   8  14
ENDBRANCH   5  12
ENDBRANCH   1   5
BRANCH   2  18
ATOM     18  C   UNL     1       7.306   5.809  18.704  0.00  0.00    +0.000 C 
BRANCH  18  19
ATOM     19  O   UNL     1       6.575   5.237  19.782  0.00  0.00    +0.000 OA
BRANCH  19  20
ATOM     20  C   UNL     1       5.285   4.863  19.526  0.00  0.00    +0.000 A 
ATOM     21  C   UNL     1       4.454   5.914  19.138  0.00  0.00    +0.000 A 
ATOM     22  C   UNL     1       3.127   5.676  18.785  0.00  0.00    +0.000 A 
ATOM     23  C   UNL     1       2.602   4.377  18.822  0.00  0.00    +0.000 A 
ATOM     24  C   UNL     1       1.287   4.118  18.403  0.00  0.00    +0.000 A 
ATOM     25  C   UNL     1       0.764   2.829  18.466  0.00  0.00    +0.000 A 
ATOM     26  C   UNL     1       1.532   1.792  18.986  0.00  0.00    +0.000 A 
ATOM     27  C   UNL     1       2.848   2.031  19.389  0.00  0.00    +0.000 A 
ATOM     28  C   UNL     1       3.412   3.315  19.282  0.00  0.00    +0.000 A 
ATOM     29  C   UNL     1       4.758   3.571  19.616  0.00  0.00    +0.000 A 
ENDBRANCH  19  20
ENDBRANCH  18  19
ENDBRANCH   2  18
TORSDOF 7
ENDMDL
MODEL 4
REMARK VINA RESULT:      -8.4      3.820      5.451
REMARK  Name = 
REMARK  8 active torsions:
REMARK  status: ('A' for Active; 'I' for Inactive)
REMARK    1  A    between atoms: C_1  and  O_2
REMARK    2  A    between atoms: O_2  and  C_3
REMARK    3  A    between atoms: C_3  and  C_5
REMARK    4  A    between atoms: C_9  and  S_10
REMARK    5  A    between atoms: S_10  and  N_13
REMARK    6  A    between atoms: C_14  and  C_16
REMARK    7  A    between atoms: C_16  and  O_17
REMARK    8  A    between atoms: O_17  and  C_18
REMARK                            x       y       z     vdW  Elec       q    Type
REMARK                         _______ _______ _______ _____ _____    ______ ____
ROOT
ATOM      1  N   UNL     1       7.202   6.193  17.010  0.00  0.00    +0.000 N 
ATOM      2  C   UNL     1       6.245   7.221  17.072  0.00  0.00    +0.000 C 
ATOM      3  O   UNL     1       6.629   8.331  17.427  0.00  0.00    +0.000 OA
ATOM      4  H   UNL     1       8.144   6.451  17.300  0.00  0.00    +0.000 HD
ENDROOT
BRANCH   1   5
ATOM      5  S   UNL     1       7.015   4.590  16.662  0.00  0.00    +0.000 S 
ATOM      6  O   UNL     1       5.715   4.167  17.132  0.00  0.00    +0.000 OA
ATOM      7  O   UNL     1       8.224   3.930  17.088  0.00  0.00    +0.000 OA
BRANCH   5  12
ATOM      8  C   UNL     1       6.185   3.748  12.774  0.00  0.00    +0.000 A 
ATOM      9  C   UNL     1       7.137   4.539  12.111  0.00  0.00    +0.000 A 
ATOM     10  C   UNL     1       8.016   5.351  12.829  0.00  0.00    +0.000 A 
ATOM     11  C   UNL     1       7.959   5.374  14.220  0.00  0.00    +0.000 A 
ATOM     12  C   UNL     1       7.015   4.584  14.885  0.00  0.00    +0.000 A 
ATOM     13  C   UNL     1       6.124   3.771  14.174  0.00  0.00    +0.000 A 
BRANCH   8  14
ATOM     14  C   UNL     1       5.302   2.887  11.940  0.00  0.00    +0.000 C 
ATOM     15  O   UNL     1       5.649   1.802  11.501  0.00  0.00    +0.000 OA
BRANCH  14  17
ATOM     16  C   UNL     1       3.407   3.043  10.584  0.00  0.00    +0.000 C 
ATOM     17  O   UNL     1       4.086   3.464  11.769  0.00  0.00    +0.000 OA
ENDBRANCH  14  17
ENDBRANCH   8  14
ENDBRANCH   5  12
ENDBRANCH   1   5
BRANCH   2  18
ATOM     18  C   UNL     1       4.800   6.958  16.659  0.00  0.00    +0.000 C 
BRANCH  18  19
ATOM     19  O   UNL     1       3.954   7.286  17.754  0.00  0.00    +0.000 OA
BRANCH  19  20
ATOM     20  C   UNL     1       3.238   6.264  18.313  0.00  0.00    +0.000 A 
ATOM     21  C   UNL     1       2.379   5.619  17.425  0.00  0.00    +0.000 A 
ATOM     22  C   UNL     1       1.630   4.518  17.835  0.00  0.00    +0.000 A 
ATOM     23  C   UNL     1       1.722   4.044  19.150  0.00  0.00    +0.000 A 
ATOM     24  C   UNL     1       1.024   2.894  19.554  0.00  0.00    +0.000 A 
ATOM     25  C   UNL     1       1.100   2.444  20.870  0.00  0.00    +0.000 A 
ATOM     26  C   UNL     1       1.840   3.158  21.808  0.00  0.00    +0.000 A 
ATOM     27  C   UNL     1       2.555   4.293  21.415  0.00  0.00    +0.000 A 
ATOM     28  C   UNL     1       2.534   4.732  20.079  0.00  0.00    +0.000 A 
ATOM     29  C   UNL     1       3.300   5.833  19.642  0.00  0.00    +0.000 A 
ENDBRANCH  19  20
ENDBRANCH  18  19
ENDBRANCH   2  18
TORSDOF 7
ENDMDL
MODEL 5
REMARK VINA RESULT:      -8.3      0.837      1.559
REMARK  Name = 
REMARK  8 active torsions:
REMARK  status: ('A' for Active; 'I' for Inactive)
REMARK    1  A    between atoms: C_1  and  O_2
REMARK    2  A    between atoms: O_2  and  C_3
REMARK    3  A    between atoms: C_3  and  C_5
REMARK    4  A    between atoms: C_9  and  S_10
REMARK    5  A    between atoms: S_10  and  N_13
REMARK    6  A    between atoms: C_14  and  C_16
REMARK    7  A    between atoms: C_16  and  O_17
REMARK    8  A    between atoms: O_17  and  C_18
REMARK                            x       y       z     vdW  Elec       q    Type
REMARK                         _______ _______ _______ _____ _____    ______ ____
ROOT
ATOM      1  N   UNL     1       2.833   3.440  19.528  0.00  0.00    +0.000 N 
ATOM      2  C   UNL     1       2.406   4.685  20.023  0.00  0.00    +0.000 C 
ATOM      3  O   UNL     1       2.233   4.783  21.234  0.00  0.00    +0.000 OA
ATOM      4  H   UNL     1       2.934   2.701  20.223  0.00  0.00    +0.000 HD
ENDROOT
BRANCH   1   5
ATOM      5  S   UNL     1       3.075   2.944  17.972  0.00  0.00    +0.000 S 
ATOM      6  O   UNL     1       2.003   3.463  17.153  0.00  0.00    +0.000 OA
ATOM      7  O   UNL     1       3.369   1.534  18.028  0.00  0.00    +0.000 OA
BRANCH   5  12
ATOM      8  C   UNL     1       6.157   4.576  15.886  0.00  0.00    +0.000 A 
ATOM      9  C   UNL     1       7.008   4.986  16.926  0.00  0.00    +0.000 A 
ATOM     10  C   UNL     1       6.646   4.798  18.261  0.00  0.00    +0.000 A 
ATOM     11  C   UNL     1       5.433   4.189  18.571  0.00  0.00    +0.000 A 
ATOM     12  C   UNL     1       4.584   3.775  17.538  0.00  0.00    +0.000 A 
ATOM     13  C   UNL     1       4.935   3.964  16.196  0.00  0.00    +0.000 A 
BRANCH   8  14
ATOM     14  C   UNL     1       6.626   4.784  14.488  0.00  0.00    +0.000 C 
ATOM     15  O   UNL     1       7.673   5.350  14.212  0.00  0.00    +0.000 OA
BRANCH  14  17
ATOM     16  C   UNL     1       6.376   3.503  12.552  0.00  0.00    +0.000 C 
ATOM     17  O   UNL     1       5.752   4.247  13.601  0.00  0.00    +0.000 OA
ENDBRANCH  14  17
ENDBRANCH   8  14
ENDBRANCH   5  12
ENDBRANCH   1   5
BRANCH   2  18
ATOM     18  C   UNL     1       2.223   5.870  19.080  0.00  0.00    +0.000 C 
BRANCH  18  19
ATOM     19  O   UNL     1       2.708   7.038  19.729  0.00  0.00    +0.000 OA
BRANCH  19  20
ATOM     20  C   UNL     1       1.808   8.043  19.953  0.00  0.00    +0.000 A 
ATOM     21  C   UNL     1       1.366   8.128  21.272  0.00  0.00    +0.000 A 
ATOM     22  C   UNL     1       0.493   9.141  21.664  0.00  0.00    +0.000 A 
ATOM     23  C   UNL     1       0.039  10.088  20.737  0.00  0.00    +0.000 A 
ATOM     24  C   UNL     1      -0.785  11.152  21.136  0.00  0.00    +0.000 A 
ATOM     25  C   UNL     1      -1.254  12.076  20.204  0.00  0.00    +0.000 A 
ATOM     26  C   UNL     1      -0.939  11.924  18.857  0.00  0.00    +0.000 A 
ATOM     27  C   UNL     1      -0.105  10.881  18.448  0.00  0.00    +0.000 A 
ATOM     28  C   UNL     1       0.422   9.971  19.382  0.00  0.00    +0.000 A 
ATOM     29  C   UNL     1       1.321   8.951  19.007  0.00  0.00    +0.000 A 
ENDBRANCH  19  20
ENDBRANCH  18  19
ENDBRANCH   2  18
TORSDOF 7
ENDMDL
MODEL 6
REMARK VINA RESULT:      -8.3      0.864      1.027
REMARK  Name = 
REMARK  8 active torsions:
REMARK  status: ('A' for Active; 'I' for Inactive)
REMARK    1  A    between atoms: C_1  and  O_2
REMARK    2  A    between atoms: O_2  and  C_3
REMARK    3  A    between atoms: C_3  and  C_5
REMARK    4  A    between atoms: C_9  and  S_10
REMARK    5  A    between atoms: S_10  and  N_13
REMARK    6  A    between atoms: C_14  and  C_16
REMARK    7  A    between atoms: C_16  and  O_17
REMARK    8  A    between atoms: O_17  and  C_18
REMARK                            x       y       z     vdW  Elec       q    Type
REMARK                         _______ _______ _______ _____ _____    ______ ____
ROOT
ATOM      1  N   UNL     1       2.554   3.411  19.491  0.00  0.00    +0.000 N 
ATOM      2  C   UNL     1       2.078   4.719  19.681  0.00  0.00    +0.000 C 
ATOM      3  O   UNL     1       1.607   4.997  20.779  0.00  0.00    +0.000 OA
ATOM      4  H   UNL     1       2.437   2.780  20.283  0.00  0.00    +0.000 HD
ENDROOT
BRANCH   1   5
ATOM      5  S   UNL     1       3.161   2.688  18.136  0.00  0.00    +0.000 S 
ATOM      6  O   UNL     1       2.216   2.873  17.056  0.00  0.00    +0.000 OA
ATOM      7  O   UNL     1       3.609   1.377  18.531  0.00  0.00    +0.000 OA
BRANCH   5  12
ATOM      8  C   UNL     1       6.277   4.515  16.275  0.00  0.00    +0.000 A 
ATOM      9  C   UNL     1       6.943   5.101  17.364  0.00  0.00    +0.000 A 
ATOM     10  C   UNL     1       6.443   4.973  18.660  0.00  0.00    +0.000 A 
ATOM     11  C   UNL     1       5.275   4.248  18.884  0.00  0.00    +0.000 A 
ATOM     12  C   UNL     1       4.611   3.658  17.803  0.00  0.00    +0.000 A 
ATOM     13  C   UNL     1       5.101   3.786  16.498  0.00  0.00    +0.000 A 
BRANCH   8  14
ATOM     14  C   UNL     1       6.888   4.672  14.927  0.00  0.00    +0.000 C 
ATOM     15  O   UNL     1       7.608   5.612  14.624  0.00  0.00    +0.000 OA
BRANCH  14  17
ATOM     16  C   UNL     1       5.965   4.029  12.880  0.00  0.00    +0.000 C 
ATOM     17  O   UNL     1       6.553   3.633  14.121  0.00  0.00    +0.000 OA
ENDBRANCH  14  17
ENDBRANCH   8  14
ENDBRANCH   5  12
ENDBRANCH   1   5
BRANCH   2  18
ATOM     18  C   UNL     1       2.202   5.755  18.568  0.00  0.00    +0.000 C 
BRANCH  18  19
ATOM     19  O   UNL     1       2.814   6.921  19.106  0.00  0.00    +0.000 OA
BRANCH  19  20
ATOM     20  C   UNL     1       2.030   8.036  19.220  0.00  0.00    +0.000 A 
ATOM     21  C   UNL     1       1.836   8.719  18.021  0.00  0.00    +0.000 A 
ATOM     22  C   UNL     1       1.010   9.841  17.969  0.00  0.00    +0.000 A 
ATOM     23  C   UNL     1       0.366  10.305  19.123  0.00  0.00    +0.000 A 
ATOM     24  C   UNL     1      -0.521  11.392  19.067  0.00  0.00    +0.000 A 
ATOM     25  C   UNL     1      -1.138  11.865  20.223  0.00  0.00    +0.000 A 
ATOM     26  C   UNL     1      -0.844  11.285  21.454  0.00  0.00    +0.000 A 
ATOM     27  C   UNL     1       0.023  10.191  21.522  0.00  0.00    +0.000 A 
ATOM     28  C   UNL     1       0.612   9.665  20.358  0.00  0.00    +0.000 A 
ATOM     29  C   UNL     1       1.435   8.521  20.389  0.00  0.00    +0.000 A 
ENDBRANCH  19  20
ENDBRANCH  18  19
ENDBRANCH   2  18
TORSDOF 7
ENDMDL
MODEL 7
REMARK VINA RESULT:      -8.3      1.031      1.592
REMARK  Name = 
REMARK  8 active torsions:
REMARK  status: ('A' for Active; 'I' for Inactive)
REMARK    1  A    between atoms: C_1  and  O_2
REMARK    2  A    between atoms: O_2  and  C_3
REMARK    3  A    between atoms: C_3  and  C_5
REMARK    4  A    between atoms: C_9  and  S_10
REMARK    5  A    between atoms: S_10  and  N_13
REMARK    6  A    between atoms: C_14  and  C_16
REMARK    7  A    between atoms: C_16  and  O_17
REMARK    8  A    between atoms: O_17  and  C_18
REMARK                            x       y       z     vdW  Elec       q    Type
REMARK                         _______ _______ _______ _____ _____    ______ ____
ROOT
ATOM      1  N   UNL     1       2.481   3.079  17.968  0.00  0.00    +0.000 N 
ATOM      2  C   UNL     1       1.609   4.165  18.156  0.00  0.00    +0.000 C 
ATOM      3  O   UNL     1       0.721   4.329  17.325  0.00  0.00    +0.000 OA
ATOM      4  H   UNL     1       2.322   2.527  17.126  0.00  0.00    +0.000 HD
ENDROOT
BRANCH   1   5
ATOM      5  S   UNL     1       3.813   2.626  18.832  0.00  0.00    +0.000 S 
ATOM      6  O   UNL     1       4.198   1.295  18.415  0.00  0.00    +0.000 OA
ATOM      7  O   UNL     1       3.536   2.934  20.212  0.00  0.00    +0.000 OA
BRANCH   5  12
ATOM      8  C   UNL     1       6.347   4.789  16.506  0.00  0.00    +0.000 A 
ATOM      9  C   UNL     1       7.045   5.530  17.474  0.00  0.00    +0.000 A 
ATOM     10  C   UNL     1       6.737   5.403  18.830  0.00  0.00    +0.000 A 
ATOM     11  C   UNL     1       5.735   4.525  19.234  0.00  0.00    +0.000 A 
ATOM     12  C   UNL     1       5.040   3.782  18.273  0.00  0.00    +0.000 A 
ATOM     13  C   UNL     1       5.336   3.906  16.910  0.00  0.00    +0.000 A 
BRANCH   8  14
ATOM     14  C   UNL     1       6.752   4.958  15.084  0.00  0.00    +0.000 C 
ATOM     15  O   UNL     1       7.844   5.390  14.747  0.00  0.00    +0.000 OA
BRANCH  14  17
ATOM     16  C   UNL     1       6.223   3.765  13.147  0.00  0.00    +0.000 C 
ATOM     17  O   UNL     1       5.764   4.551  14.249  0.00  0.00    +0.000 OA
ENDBRANCH  14  17
ENDBRANCH   8  14
ENDBRANCH   5  12
ENDBRANCH   1   5
BRANCH   2  18
ATOM     18  C   UNL     1       1.745   5.062  19.382  0.00  0.00    +0.000 C 
BRANCH  18  19
ATOM     19  O   UNL     1       2.653   6.112  19.071  0.00  0.00    +0.000 OA
BRANCH  19  20
ATOM     20  C   UNL     1       2.168   7.389  19.128  0.00  0.00    +0.000 A 
ATOM     21  C   UNL     1       2.285   8.096  17.933  0.00  0.00    +0.000 A 
ATOM     22  C   UNL     1       1.778   9.389  17.821  0.00  0.00    +0.000 A 
ATOM     23  C   UNL     1       1.149  10.004  18.911  0.00  0.00    +0.000 A 
ATOM     24  C   UNL     1       0.575  11.280  18.787  0.00  0.00    +0.000 A 
ATOM     25  C   UNL     1      -0.027  11.896  19.883  0.00  0.00    +0.000 A 
ATOM     26  C   UNL     1      -0.026  11.265  21.123  0.00  0.00    +0.000 A 
ATOM     27  C   UNL     1       0.526   9.988  21.256  0.00  0.00    +0.000 A 
ATOM     28  C   UNL     1       1.089   9.326  20.149  0.00  0.00    +0.000 A 
ATOM     29  C   UNL     1       1.589   8.011  20.239  0.00  0.00    +0.000 A 
ENDBRANCH  19  20
ENDBRANCH  18  19
ENDBRANCH   2  18
TORSDOF 7
ENDMDL
MODEL 8
REMARK VINA RESULT:      -8.3      1.557      2.512
REMARK  Name = 
REMARK  8 active torsions:
REMARK  status: ('A' for Active; 'I' for Inactive)
REMARK    1  A    between atoms: C_1  and  O_2
REMARK    2  A    between atoms: O_2  and  C_3
REMARK    3  A    between atoms: C_3  and  C_5
REMARK    4  A    between atoms: C_9  and  S_10
REMARK    5  A    between atoms: S_10  and  N_13
REMARK    6  A    between atoms: C_14  and  C_16
REMARK    7  A    between atoms: C_16  and  O_17
REMARK    8  A    between atoms: O_17  and  C_18
REMARK                            x       y       z     vdW  Elec       q    Type
REMARK                         _______ _______ _______ _____ _____    ______ ____
ROOT
ATOM      1  N   UNL     1       2.648   3.011  19.912  0.00  0.00    +0.000 N 
ATOM      2  C   UNL     1       2.053   3.802  20.910  0.00  0.00    +0.000 C 
ATOM      3  O   UNL     1       2.253   3.485  22.078  0.00  0.00    +0.000 OA
ATOM      4  H   UNL     1       3.179   2.207  20.245  0.00  0.00    +0.000 HD
ENDROOT
BRANCH   1   5
ATOM      5  S   UNL     1       2.519   3.102  18.268  0.00  0.00    +0.000 S 
ATOM      6  O   UNL     1       1.181   3.543  17.938  0.00  0.00    +0.000 OA
ATOM      7  O   UNL     1       3.062   1.876  17.741  0.00  0.00    +0.000 OA
BRANCH   5  12
ATOM      8  C   UNL     1       5.928   5.215  17.616  0.00  0.00    +0.000 A 
ATOM      9  C   UNL     1       5.413   6.490  17.334  0.00  0.00    +0.000 A 
ATOM     10  C   UNL     1       4.036   6.715  17.311  0.00  0.00    +0.000 A 
ATOM     11  C   UNL     1       3.158   5.669  17.581  0.00  0.00    +0.000 A 
ATOM     12  C   UNL     1       3.667   4.397  17.867  0.00  0.00    +0.000 A 
ATOM     13  C   UNL     1       5.047   4.159  17.886  0.00  0.00    +0.000 A 
BRANCH   8  14
ATOM     14  C   UNL     1       7.409   5.060  17.649  0.00  0.00    +0.000 C 
ATOM     15  O   UNL     1       8.008   4.221  16.994  0.00  0.00    +0.000 OA
BRANCH  14  17
ATOM     16  C   UNL     1       7.935   5.616  19.855  0.00  0.00    +0.000 C 
ATOM     17  O   UNL     1       7.971   5.979  18.473  0.00  0.00    +0.000 OA
ENDBRANCH  14  17
ENDBRANCH   8  14
ENDBRANCH   5  12
ENDBRANCH   1   5
BRANCH   2  18
ATOM     18  C   UNL     1       1.238   5.036  20.534  0.00  0.00    +0.000 C 
BRANCH  18  19
ATOM     19  O   UNL     1       2.065   6.183  20.689  0.00  0.00    +0.000 OA
BRANCH  19  20
ATOM     20  C   UNL     1       1.456   7.404  20.592  0.00  0.00    +0.000 A 
ATOM     21  C   UNL     1       0.501   7.643  21.579  0.00  0.00    +0.000 A 
ATOM     22  C   UNL     1      -0.158   8.869  21.646  0.00  0.00    +0.000 A 
ATOM     23  C   UNL     1       0.121   9.879  20.716  0.00  0.00    +0.000 A 
ATOM     24  C   UNL     1      -0.488  11.140  20.816  0.00  0.00    +0.000 A 
ATOM     25  C   UNL     1      -0.226  12.132  19.873  0.00  0.00    +0.000 A 
ATOM     26  C   UNL     1       0.615  11.863  18.798  0.00  0.00    +0.000 A 
ATOM     27  C   UNL     1       1.242  10.618  18.696  0.00  0.00    +0.000 A 
ATOM     28  C   UNL     1       1.032   9.623  19.667  0.00  0.00    +0.000 A 
ATOM     29  C   UNL     1       1.705   8.385  19.627  0.00  0.00    +0.000 A 
ENDBRANCH  19  20
ENDBRANCH  18  19
ENDBRANCH   2  18
TORSDOF 7
ENDMDL
MODEL 9
REMARK VINA RESULT:      -8.2      2.355      4.003
REMARK  Name = 
REMARK  8 active torsions:
REMARK  status: ('A' for Active; 'I' for Inactive)
REMARK    1  A    between atoms: C_1  and  O_2
REMARK    2  A    between atoms: O_2  and  C_3
REMARK    3  A    between atoms: C_3  and  C_5
REMARK    4  A    between atoms: C_9  and  S_10
REMARK    5  A    between atoms: S_10  and  N_13
REMARK    6  A    between atoms: C_14  and  C_16
REMARK    7  A    between atoms: C_16  and  O_17
REMARK    8  A    between atoms: O_17  and  C_18
REMARK                            x       y       z     vdW  Elec       q    Type
REMARK                         _______ _______ _______ _____ _____    ______ ____
ROOT
ATOM      1  N   UNL     1       5.038   4.217  16.355  0.00  0.00    +0.000 N 
ATOM      2  C   UNL     1       3.940   4.484  17.191  0.00  0.00    +0.000 C 
ATOM      3  O   UNL     1       3.012   3.682  17.182  0.00  0.00    +0.000 OA
ATOM      4  H   UNL     1       4.957   3.381  15.776  0.00  0.00    +0.000 HD
ENDROOT
BRANCH   1   5
ATOM      5  S   UNL     1       6.392   5.114  16.063  0.00  0.00    +0.000 S 
ATOM      6  O   UNL     1       7.479   4.572  16.849  0.00  0.00    +0.000 OA
ATOM      7  O   UNL     1       6.003   6.498  16.165  0.00  0.00    +0.000 OA
BRANCH   5  12
ATOM      8  C   UNL     1       6.299   3.513  12.329  0.00  0.00    +0.000 A 
ATOM      9  C   UNL     1       7.313   4.245  11.690  0.00  0.00    +0.000 A 
ATOM     10  C   UNL     1       8.011   5.243  12.371  0.00  0.00    +0.000 A 
ATOM     11  C   UNL     1       7.710   5.514  13.703  0.00  0.00    +0.000 A 
ATOM     12  C   UNL     1       6.704   4.784  14.346  0.00  0.00    +0.000 A 
ATOM     13  C   UNL     1       5.993   3.785  13.669  0.00  0.00    +0.000 A 
BRANCH   8  14
ATOM     14  C   UNL     1       5.619   2.446  11.545  0.00  0.00    +0.000 C 
ATOM     15  O   UNL     1       4.427   2.467  11.282  0.00  0.00    +0.000 OA
BRANCH  14  17
ATOM     16  C   UNL     1       5.981   0.162  11.218  0.00  0.00    +0.000 C 
ATOM     17  O   UNL     1       6.503   1.491  11.162  0.00  0.00    +0.000 OA
ENDBRANCH  14  17
ENDBRANCH   8  14
ENDBRANCH   5  12
ENDBRANCH   1   5
BRANCH   2  18
ATOM     18  C   UNL     1       3.946   5.704  18.108  0.00  0.00    +0.000 C 
BRANCH  18  19
ATOM     19  O   UNL     1       3.245   6.757  17.457  0.00  0.00    +0.000 OA
BRANCH  19  20
ATOM     20  C   UNL     1       2.514   7.597  18.251  0.00  0.00    +0.000 A 
ATOM     21  C   UNL     1       2.020   8.720  17.587  0.00  0.00    +0.000 A 
ATOM     22  C   UNL     1       1.206   9.635  18.251  0.00  0.00    +0.000 A 
ATOM     23  C   UNL     1       0.875   9.448  19.599  0.00  0.00    +0.000 A 
ATOM     24  C   UNL     1       0.001  10.327  20.257  0.00  0.00    +0.000 A 
ATOM     25  C   UNL     1      -0.304  10.149  21.605  0.00  0.00    +0.000 A 
ATOM     26  C   UNL     1       0.293   9.116  22.321  0.00  0.00    +0.000 A 
ATOM     27  C   UNL     1       1.151   8.222  21.675  0.00  0.00    +0.000 A 
ATOM     28  C   UNL     1       1.427   8.354  20.302  0.00  0.00    +0.000 A 
ATOM     29  C   UNL     1       2.233   7.426  19.610  0.00  0.00    +0.000 A 
ENDBRANCH  19  20
ENDBRANCH  18  19
ENDBRANCH   2  18
TORSDOF 7
ENDMDL
