MODEL 1
REMARK VINA RESULT:      -7.4      0.000      0.000
REMARK  Name = 
REMARK  4 active torsions:
REMARK  status: ('A' for Active; 'I' for Inactive)
REMARK    1  A    between atoms: S_1  and  C_2
REMARK    2  A    between atoms: C_5  and  C_6
REMARK    3  A    between atoms: C_6  and  O_7
REMARK    4  A    between atoms: O_7  and  C_8
REMARK                            x       y       z     vdW  Elec       q    Type
REMARK                         _______ _______ _______ _____ _____    ______ ____
ROOT
ATOM      1  C   UNL     1       4.727   5.256  17.993  0.00  0.00    +0.000 A 
ATOM      2  C   UNL     1       4.347   5.992  19.115  0.00  0.00    +0.000 A 
ATOM      3  C   UNL     1       3.226   5.614  19.858  0.00  0.00    +0.000 A 
ATOM      4  C   UNL     1       2.463   4.499  19.480  0.00  0.00    +0.000 A 
ATOM      5  C   UNL     1       1.339   4.085  20.215  0.00  0.00    +0.000 A 
ATOM      6  C   UNL     1       0.598   2.970  19.816  0.00  0.00    +0.000 A 
ATOM      7  C   UNL     1       0.967   2.256  18.681  0.00  0.00    +0.000 A 
ATOM      8  C   UNL     1       2.078   2.653  17.940  0.00  0.00    +0.000 A 
ATOM      9  C   UNL     1       2.832   3.772  18.327  0.00  0.00    +0.000 A 
ATOM     10  C   UNL     1       3.955   4.166  17.588  0.00  0.00    +0.000 A 
ENDROOT
BRANCH   1  11
ATOM     11  O   UNL     1       5.860   5.685  17.357  0.00  0.00    +0.000 OA
BRANCH  11  12
ATOM     12  C   UNL     1       6.781   4.651  17.000  0.00  0.00    +0.000 C 
BRANCH  12  16
ATOM     13  C   UNL     1       6.512   4.051  13.533  0.00  0.00    +0.000 A 
ATOM     14  N   UNL     1       7.349   5.066  13.455  0.00  0.00    +0.000 NA
ATOM     15  N   UNL     1       7.607   5.466  14.751  0.00  0.00    +0.000 NA
ATOM     16  C   UNL     1       6.913   4.661  15.527  0.00  0.00    +0.000 A 
ATOM     17  O   UNL     1       6.175   3.748  14.823  0.00  0.00    +0.000 OA
BRANCH  13  18
ATOM     18  S   UNL     1       5.895   3.197  12.162  0.00  0.00    +0.000 S 
ATOM     19  H   UNL     1       5.480   4.284  11.500  0.00  0.00    +0.000 HD
ENDBRANCH  13  18
ENDBRANCH  12  16
ENDBRANCH  11  12
ENDBRANCH   1  11
TORSDOF 4
ENDMDL
MODEL 2
REMARK VINA RESULT:      -7.3      2.742      3.173
REMARK  Name = 
REMARK  4 active torsions:
REMARK  status: ('A' for Active; 'I' for Inactive)
REMARK    1  A    between atoms: S_1  and  C_2
REMARK    2  A    between atoms: C_5  and  C_6
REMARK    3  A    between atoms: C_6  and  O_7
REMARK    4  A    between atoms: O_7  and  C_8
REMARK                            x       y       z     vdW  Elec       q    Type
REMARK                         _______ _______ _______ _____ _____    ______ ____
ROOT
ATOM      1  C   UNL     1       4.400   4.740  16.756  0.00  0.00    +0.000 A 
ATOM      2  C   UNL     1       3.958   5.919  17.356  0.00  0.00    +0.000 A 
ATOM      3  C   UNL     1       2.988   5.876  18.361  0.00  0.00    +0.000 A 
ATOM      4  C   UNL     1       2.440   4.652  18.771  0.00  0.00    +0.000 A 
ATOM      5  C   UNL     1       1.475   4.575  19.789  0.00  0.00    +0.000 A 
ATOM      6  C   UNL     1       0.947   3.342  20.178  0.00  0.00    +0.000 A 
ATOM      7  C   UNL     1       1.372   2.172  19.557  0.00  0.00    +0.000 A 
ATOM      8  C   UNL     1       2.328   2.230  18.545  0.00  0.00    +0.000 A 
ATOM      9  C   UNL     1       2.868   3.461  18.142  0.00  0.00    +0.000 A 
ATOM     10  C   UNL     1       3.835   3.520  17.132  0.00  0.00    +0.000 A 
ENDROOT
BRANCH   1  11
ATOM     11  O   UNL     1       5.378   4.886  15.810  0.00  0.00    +0.000 OA
BRANCH  11  12
ATOM     12  C   UNL     1       6.669   4.410  16.197  0.00  0.00    +0.000 C 
BRANCH  12  16
ATOM     13  C   UNL     1       7.829   7.277  17.897  0.00  0.00    +0.000 A 
ATOM     14  N   UNL     1       8.015   6.421  18.881  0.00  0.00    +0.000 NA
ATOM     15  N   UNL     1       7.619   5.185  18.411  0.00  0.00    +0.000 NA
ATOM     16  C   UNL     1       7.227   5.376  17.169  0.00  0.00    +0.000 A 
ATOM     17  O   UNL     1       7.311   6.685  16.779  0.00  0.00    +0.000 OA
BRANCH  13  18
ATOM     18  S   UNL     1       8.187   8.965  18.000  0.00  0.00    +0.000 S 
ATOM     19  H   UNL     1       9.293   8.916  17.247  0.00  0.00    +0.000 HD
ENDBRANCH  13  18
ENDBRANCH  12  16
ENDBRANCH  11  12
ENDBRANCH   1  11
TORSDOF 4
ENDMDL
MODEL 3
REMARK VINA RESULT:      -7.3      1.169      1.253
REMARK  Name = 
REMARK  4 active torsions:
REMARK  status: ('A' for Active; 'I' for Inactive)
REMARK    1  A    between atoms: S_1  and  C_2
REMARK    2  A    between atoms: C_5  and  C_6
REMARK    3  A    between atoms: C_6  and  O_7
REMARK    4  A    between atoms: O_7  and  C_8
REMARK                            x       y       z     vdW  Elec       q    Type
REMARK                         _______ _______ _______ _____ _____    ______ ____
ROOT
ATOM      1  C   UNL     1       5.282   5.055  18.580  0.00  0.00    +0.000 A 
ATOM      2  C   UNL     1       4.321   5.997  18.220  0.00  0.00    +0.000 A 
ATOM      3  C   UNL     1       2.969   5.644  18.179  0.00  0.00    +0.000 A 
ATOM      4  C   UNL     1       2.564   4.337  18.489  0.00  0.00    +0.000 A 
ATOM      5  C   UNL     1       1.213   3.954  18.472  0.00  0.00    +0.000 A 
ATOM      6  C   UNL     1       0.838   2.646  18.786  0.00  0.00    +0.000 A 
ATOM      7  C   UNL     1       1.806   1.703  19.119  0.00  0.00    +0.000 A 
ATOM      8  C   UNL     1       3.151   2.065  19.139  0.00  0.00    +0.000 A 
ATOM      9  C   UNL     1       3.543   3.375  18.826  0.00  0.00    +0.000 A 
ATOM     10  C   UNL     1       4.894   3.743  18.856  0.00  0.00    +0.000 A 
ENDROOT
BRANCH   1  11
ATOM     11  O   UNL     1       6.572   5.510  18.626  0.00  0.00    +0.000 OA
BRANCH  11  12
ATOM     12  C   UNL     1       7.525   4.695  17.939  0.00  0.00    +0.000 C 
BRANCH  12  16
ATOM     13  C   UNL     1       6.674   4.391  14.528  0.00  0.00    +0.000 A 
ATOM     14  N   UNL     1       7.145   5.620  14.466  0.00  0.00    +0.000 NA
ATOM     15  N   UNL     1       7.558   5.949  15.741  0.00  0.00    +0.000 NA
ATOM     16  C   UNL     1       7.317   4.893  16.488  0.00  0.00    +0.000 A 
ATOM     17  O   UNL     1       6.735   3.869  15.789  0.00  0.00    +0.000 OA
BRANCH  13  18
ATOM     18  S   UNL     1       6.040   3.527  13.171  0.00  0.00    +0.000 S 
ATOM     19  H   UNL     1       6.739   4.196  12.245  0.00  0.00    +0.000 HD
ENDBRANCH  13  18
ENDBRANCH  12  16
ENDBRANCH  11  12
ENDBRANCH   1  11
TORSDOF 4
ENDMDL
MODEL 4
REMARK VINA RESULT:      -7.2      2.931      3.700
REMARK  Name = 
REMARK  4 active torsions:
REMARK  status: ('A' for Active; 'I' for Inactive)
REMARK    1  A    between atoms: S_1  and  C_2
REMARK    2  A    between atoms: C_5  and  C_6
REMARK    3  A    between atoms: C_6  and  O_7
REMARK    4  A    between atoms: O_7  and  C_8
REMARK                            x       y       z     vdW  Elec       q    Type
REMARK                         _______ _______ _______ _____ _____    ______ ____
ROOT
ATOM      1  C   UNL     1       4.180   5.021  17.156  0.00  0.00    +0.000 A 
ATOM      2  C   UNL     1       4.432   3.663  16.971  0.00  0.00    +0.000 A 
ATOM      3  C   UNL     1       3.785   2.712  17.766  0.00  0.00    +0.000 A 
ATOM      4  C   UNL     1       2.884   3.112  18.764  0.00  0.00    +0.000 A 
ATOM      5  C   UNL     1       2.207   2.181  19.569  0.00  0.00    +0.000 A 
ATOM      6  C   UNL     1       1.314   2.607  20.555  0.00  0.00    +0.000 A 
ATOM      7  C   UNL     1       1.087   3.966  20.752  0.00  0.00    +0.000 A 
ATOM      8  C   UNL     1       1.752   4.903  19.964  0.00  0.00    +0.000 A 
ATOM      9  C   UNL     1       2.652   4.490  18.970  0.00  0.00    +0.000 A 
ATOM     10  C   UNL     1       3.313   5.431  18.170  0.00  0.00    +0.000 A 
ENDROOT
BRANCH   1  11
ATOM     11  O   UNL     1       4.835   5.868  16.303  0.00  0.00    +0.000 OA
BRANCH  11  12
ATOM     12  C   UNL     1       6.206   5.541  16.062  0.00  0.00    +0.000 C 
BRANCH  12  16
ATOM     13  C   UNL     1       7.958   7.985  17.907  0.00  0.00    +0.000 A 
ATOM     14  N   UNL     1       8.187   6.975  18.722  0.00  0.00    +0.000 NA
ATOM     15  N   UNL     1       7.574   5.871  18.165  0.00  0.00    +0.000 NA
ATOM     16  C   UNL     1       7.022   6.286  17.045  0.00  0.00    +0.000 A 
ATOM     17  O   UNL     1       7.205   7.625  16.825  0.00  0.00    +0.000 OA
BRANCH  13  18
ATOM     18  S   UNL     1       8.534   9.594  18.173  0.00  0.00    +0.000 S 
ATOM     19  H   UNL     1       7.883   9.782  19.328  0.00  0.00    +0.000 HD
ENDBRANCH  13  18
ENDBRANCH  12  16
ENDBRANCH  11  12
ENDBRANCH   1  11
TORSDOF 4
ENDMDL
MODEL 5
REMARK VINA RESULT:      -7.2      1.392      1.552
REMARK  Name = 
REMARK  4 active torsions:
REMARK  status: ('A' for Active; 'I' for Inactive)
REMARK    1  A    between atoms: S_1  and  C_2
REMARK    2  A    between atoms: C_5  and  C_6
REMARK    3  A    between atoms: C_6  and  O_7
REMARK    4  A    between atoms: O_7  and  C_8
REMARK                            x       y       z     vdW  Elec       q    Type
REMARK                         _______ _______ _______ _____ _____    ______ ____
ROOT
ATOM      1  C   UNL     1       3.518   6.303  17.794  0.00  0.00    +0.000 A 
ATOM      2  C   UNL     1       3.013   6.962  18.914  0.00  0.00    +0.000 A 
ATOM      3  C   UNL     1       2.253   6.266  19.857  0.00  0.00    +0.000 A 
ATOM      4  C   UNL     1       1.979   4.900  19.685  0.00  0.00    +0.000 A 
ATOM      5  C   UNL     1       1.231   4.169  20.623  0.00  0.00    +0.000 A 
ATOM      6  C   UNL     1       0.975   2.811  20.427  0.00  0.00    +0.000 A 
ATOM      7  C   UNL     1       1.458   2.165  19.293  0.00  0.00    +0.000 A 
ATOM      8  C   UNL     1       2.201   2.876  18.352  0.00  0.00    +0.000 A 
ATOM      9  C   UNL     1       2.466   4.241  18.535  0.00  0.00    +0.000 A 
ATOM     10  C   UNL     1       3.221   4.953  17.595  0.00  0.00    +0.000 A 
ENDROOT
BRANCH   1  11
ATOM     11  O   UNL     1       4.280   7.064  16.950  0.00  0.00    +0.000 OA
BRANCH  11  12
ATOM     12  C   UNL     1       5.673   7.110  17.270  0.00  0.00    +0.000 C 
BRANCH  12  16
ATOM     13  C   UNL     1       6.676   4.789  14.809  0.00  0.00    +0.000 A 
ATOM     14  N   UNL     1       7.656   4.556  15.657  0.00  0.00    +0.000 NA
ATOM     15  N   UNL     1       7.446   5.384  16.741  0.00  0.00    +0.000 NA
ATOM     16  C   UNL     1       6.347   6.058  16.479  0.00  0.00    +0.000 A 
ATOM     17  O   UNL     1       5.812   5.749  15.257  0.00  0.00    +0.000 OA
BRANCH  13  18
ATOM     18  S   UNL     1       6.498   3.983  13.289  0.00  0.00    +0.000 S 
ATOM     19  H   UNL     1       7.787   3.646  13.161  0.00  0.00    +0.000 HD
ENDBRANCH  13  18
ENDBRANCH  12  16
ENDBRANCH  11  12
ENDBRANCH   1  11
TORSDOF 4
ENDMDL
MODEL 6
REMARK VINA RESULT:      -7.2      3.024      3.438
REMARK  Name = 
REMARK  4 active torsions:
REMARK  status: ('A' for Active; 'I' for Inactive)
REMARK    1  A    between atoms: S_1  and  C_2
REMARK    2  A    between atoms: C_5  and  C_6
REMARK    3  A    between atoms: C_6  and  O_7
REMARK    4  A    between atoms: O_7  and  C_8
REMARK                            x       y       z     vdW  Elec       q    Type
REMARK                         _______ _______ _______ _____ _____    ______ ____
ROOT
ATOM      1  C   UNL     1       3.785   5.955  17.385  0.00  0.00    +0.000 A 
ATOM      2  C   UNL     1       3.206   6.896  18.235  0.00  0.00    +0.000 A 
ATOM      3  C   UNL     1       2.397   6.482  19.297  0.00  0.00    +0.000 A 
ATOM      4  C   UNL     1       2.150   5.118  19.515  0.00  0.00    +0.000 A 
ATOM      5  C   UNL     1       1.355   4.669  20.582  0.00  0.00    +0.000 A 
ATOM      6  C   UNL     1       1.126   3.305  20.776  0.00  0.00    +0.000 A 
ATOM      7  C   UNL     1       1.685   2.373  19.908  0.00  0.00    +0.000 A 
ATOM      8  C   UNL     1       2.475   2.801  18.843  0.00  0.00    +0.000 A 
ATOM      9  C   UNL     1       2.714   4.167  18.635  0.00  0.00    +0.000 A 
ATOM     10  C   UNL     1       3.516   4.598  17.571  0.00  0.00    +0.000 A 
ENDROOT
BRANCH   1  11
ATOM     11  O   UNL     1       4.588   6.460  16.399  0.00  0.00    +0.000 OA
BRANCH  11  12
ATOM     12  C   UNL     1       5.843   5.794  16.242  0.00  0.00    +0.000 C 
BRANCH  12  16
ATOM     13  C   UNL     1       7.935   8.053  17.967  0.00  0.00    +0.000 A 
ATOM     14  N   UNL     1       8.209   6.991  18.697  0.00  0.00    +0.000 NA
ATOM     15  N   UNL     1       7.475   5.948  18.170  0.00  0.00    +0.000 NA
ATOM     16  C   UNL     1       6.812   6.448  17.149  0.00  0.00    +0.000 A 
ATOM     17  O   UNL     1       7.037   7.786  16.971  0.00  0.00    +0.000 OA
BRANCH  13  18
ATOM     18  S   UNL     1       8.622   9.617  18.234  0.00  0.00    +0.000 S 
ATOM     19  H   UNL     1       9.786   9.360  17.625  0.00  0.00    +0.000 HD
ENDBRANCH  13  18
ENDBRANCH  12  16
ENDBRANCH  11  12
ENDBRANCH   1  11
TORSDOF 4
ENDMDL
MODEL 7
REMARK VINA RESULT:      -7.2      2.107      3.167
REMARK  Name = 
REMARK  4 active torsions:
REMARK  status: ('A' for Active; 'I' for Inactive)
REMARK    1  A    between atoms: S_1  and  C_2
REMARK    2  A    between atoms: C_5  and  C_6
REMARK    3  A    between atoms: C_6  and  O_7
REMARK    4  A    between atoms: O_7  and  C_8
REMARK                            x       y       z     vdW  Elec       q    Type
REMARK                         _______ _______ _______ _____ _____    ______ ____
ROOT
ATOM      1  C   UNL     1       3.941   5.293  18.272  0.00  0.00    +0.000 A 
ATOM      2  C   UNL     1       3.523   5.009  19.571  0.00  0.00    +0.000 A 
ATOM      3  C   UNL     1       2.705   5.908  20.260  0.00  0.00    +0.000 A 
ATOM      4  C   UNL     1       2.303   7.111  19.658  0.00  0.00    +0.000 A 
ATOM      5  C   UNL     1       1.469   8.028  20.318  0.00  0.00    +0.000 A 
ATOM      6  C   UNL     1       1.084   9.218  19.695  0.00  0.00    +0.000 A 
ATOM      7  C   UNL     1       1.527   9.508  18.409  0.00  0.00    +0.000 A 
ATOM      8  C   UNL     1       2.357   8.609  17.740  0.00  0.00    +0.000 A 
ATOM      9  C   UNL     1       2.752   7.411  18.353  0.00  0.00    +0.000 A 
ATOM     10  C   UNL     1       3.577   6.502  17.678  0.00  0.00    +0.000 A 
ENDROOT
BRANCH   1  11
ATOM     11  O   UNL     1       4.709   4.332  17.672  0.00  0.00    +0.000 OA
BRANCH  11  12
ATOM     12  C   UNL     1       6.116   4.586  17.687  0.00  0.00    +0.000 C 
BRANCH  12  16
ATOM     13  C   UNL     1       6.582   4.299  14.201  0.00  0.00    +0.000 A 
ATOM     14  N   UNL     1       7.435   5.284  14.396  0.00  0.00    +0.000 NA
ATOM     15  N   UNL     1       7.417   5.561  15.747  0.00  0.00    +0.000 NA
ATOM     16  C   UNL     1       6.559   4.718  16.282  0.00  0.00    +0.000 A 
ATOM     17  O   UNL     1       5.972   3.898  15.356  0.00  0.00    +0.000 OA
BRANCH  13  18
ATOM     18  S   UNL     1       6.257   3.591  12.658  0.00  0.00    +0.000 S 
ATOM     19  H   UNL     1       5.022   3.169  12.959  0.00  0.00    +0.000 HD
ENDBRANCH  13  18
ENDBRANCH  12  16
ENDBRANCH  11  12
ENDBRANCH   1  11
TORSDOF 4
ENDMDL
MODEL 8
REMARK VINA RESULT:      -7.1      3.097      3.771
REMARK  Name = 
REMARK  4 active torsions:
REMARK  status: ('A' for Active; 'I' for Inactive)
REMARK    1  A    between atoms: S_1  and  C_2
REMARK    2  A    between atoms: C_5  and  C_6
REMARK    3  A    between atoms: C_6  and  O_7
REMARK    4  A    between atoms: O_7  and  C_8
REMARK                            x       y       z     vdW  Elec       q    Type
REMARK                         _______ _______ _______ _____ _____    ______ ____
ROOT
ATOM      1  C   UNL     1       5.057   4.043  17.833  0.00  0.00    +0.000 A 
ATOM      2  C   UNL     1       3.979   4.182  16.960  0.00  0.00    +0.000 A 
ATOM      3  C   UNL     1       2.674   3.974  17.414  0.00  0.00    +0.000 A 
ATOM      4  C   UNL     1       2.433   3.613  18.749  0.00  0.00    +0.000 A 
ATOM      5  C   UNL     1       1.132   3.412  19.240  0.00  0.00    +0.000 A 
ATOM      6  C   UNL     1       0.921   3.054  20.573  0.00  0.00    +0.000 A 
ATOM      7  C   UNL     1       2.003   2.891  21.432  0.00  0.00    +0.000 A 
ATOM      8  C   UNL     1       3.300   3.085  20.961  0.00  0.00    +0.000 A 
ATOM      9  C   UNL     1       3.528   3.444  19.624  0.00  0.00    +0.000 A 
ATOM     10  C   UNL     1       4.831   3.649  19.152  0.00  0.00    +0.000 A 
ENDROOT
BRANCH   1  11
ATOM     11  O   UNL     1       6.290   4.304  17.299  0.00  0.00    +0.000 OA
BRANCH  11  12
ATOM     12  C   UNL     1       7.240   4.855  18.215  0.00  0.00    +0.000 C 
BRANCH  12  16
ATOM     13  C   UNL     1       8.123   8.270  18.117  0.00  0.00    +0.000 A 
ATOM     14  N   UNL     1       7.381   8.265  17.028  0.00  0.00    +0.000 NA
ATOM     15  N   UNL     1       6.909   6.977  16.877  0.00  0.00    +0.000 NA
ATOM     16  C   UNL     1       7.390   6.290  17.891  0.00  0.00    +0.000 A 
ATOM     17  O   UNL     1       8.189   7.041  18.711  0.00  0.00    +0.000 OA
BRANCH  13  18
ATOM     18  S   UNL     1       8.933   9.669  18.731  0.00  0.00    +0.000 S 
ATOM     19  H   UNL     1       8.159  10.562  18.101  0.00  0.00    +0.000 HD
ENDBRANCH  13  18
ENDBRANCH  12  16
ENDBRANCH  11  12
ENDBRANCH   1  11
TORSDOF 4
ENDMDL
MODEL 9
REMARK VINA RESULT:      -7.1      2.770      3.380
REMARK  Name = 
REMARK  4 active torsions:
REMARK  status: ('A' for Active; 'I' for Inactive)
REMARK    1  A    between atoms: S_1  and  C_2
REMARK    2  A    between atoms: C_5  and  C_6
REMARK    3  A    between atoms: C_6  and  O_7
REMARK    4  A    between atoms: O_7  and  C_8
REMARK                            x       y       z     vdW  Elec       q    Type
REMARK                         _______ _______ _______ _____ _____    ______ ____
ROOT
ATOM      1  C   UNL     1       4.129   3.563  17.308  0.00  0.00    +0.000 A 
ATOM      2  C   UNL     1       2.867   3.971  16.881  0.00  0.00    +0.000 A 
ATOM      3  C   UNL     1       1.782   3.941  17.761  0.00  0.00    +0.000 A 
ATOM      4  C   UNL     1       1.946   3.491  19.080  0.00  0.00    +0.000 A 
ATOM      5  C   UNL     1       0.879   3.463  19.993  0.00  0.00    +0.000 A 
ATOM      6  C   UNL     1       1.071   3.010  21.300  0.00  0.00    +0.000 A 
ATOM      7  C   UNL     1       2.328   2.579  21.712  0.00  0.00    +0.000 A 
ATOM      8  C   UNL     1       3.397   2.598  20.819  0.00  0.00    +0.000 A 
ATOM      9  C   UNL     1       3.220   3.049  19.502  0.00  0.00    +0.000 A 
ATOM     10  C   UNL     1       4.296   3.079  18.607  0.00  0.00    +0.000 A 
ENDROOT
BRANCH   1  11
ATOM     11  O   UNL     1       5.131   3.665  16.382  0.00  0.00    +0.000 OA
BRANCH  11  12
ATOM     12  C   UNL     1       5.325   4.976  15.844  0.00  0.00    +0.000 C 
BRANCH  12  16
ATOM     13  C   UNL     1       7.442   7.274  17.484  0.00  0.00    +0.000 A 
ATOM     14  N   UNL     1       7.960   6.180  18.004  0.00  0.00    +0.000 NA
ATOM     15  N   UNL     1       7.259   5.118  17.470  0.00  0.00    +0.000 NA
ATOM     16  C   UNL     1       6.368   5.641  16.655  0.00  0.00    +0.000 A 
ATOM     17  O   UNL     1       6.410   7.009  16.628  0.00  0.00    +0.000 OA
BRANCH  13  18
ATOM     18  S   UNL     1       7.993   8.873  17.845  0.00  0.00    +0.000 S 
ATOM     19  H   UNL     1       6.775   9.425  17.911  0.00  0.00    +0.000 HD
ENDBRANCH  13  18
ENDBRANCH  12  16
ENDBRANCH  11  12
ENDBRANCH   1  11
TORSDOF 4
ENDMDL
