MODEL 1
REMARK VINA RESULT:      -7.2      0.000      0.000
REMARK  Name = 
REMARK  10 active torsions:
REMARK  status: ('A' for Active; 'I' for Inactive)
REMARK    1  A    between atoms: C_1  and  C_2
REMARK    2  A    between atoms: C_2  and  C_3
REMARK    3  A    between atoms: C_3  and  C_4
REMARK    4  A    between atoms: C_4  and  C_5
REMARK    5  A    between atoms: C_5  and  C_6
REMARK    6  A    between atoms: C_6  and  C_7
REMARK    7  A    between atoms: C_10  and  C_11
REMARK    8  A    between atoms: C_11  and  C_13
REMARK    9  A    between atoms: C_13  and  C_14
REMARK   10  A    between atoms: C_14  and  N_15
REMARK                            x       y       z     vdW  Elec       q    Type
REMARK                         _______ _______ _______ _____ _____    ______ ____
ROOT
ATOM      1  C   UNL     1       6.279   4.342  14.254  0.00  0.00    +0.000 A 
ATOM      2  C   UNL     1       5.135   3.932  14.956  0.00  0.00    +0.000 A 
ATOM      3  C   UNL     1       4.983   4.241  16.310  0.00  0.00    +0.000 A 
ATOM      4  C   UNL     1       5.973   4.961  16.983  0.00  0.00    +0.000 A 
ATOM      5  C   UNL     1       7.134   5.341  16.293  0.00  0.00    +0.000 A 
ATOM      6  C   UNL     1       7.280   5.035  14.941  0.00  0.00    +0.000 A 
ENDROOT
BRANCH   4   7
ATOM      7  C   UNL     1       5.766   5.300  18.422  0.00  0.00    +0.000 C 
ATOM      8  O   UNL     1       6.661   5.082  19.229  0.00  0.00    +0.000 OA
BRANCH   7   9
ATOM      9  C   UNL     1       4.400   5.834  18.834  0.00  0.00    +0.000 C 
BRANCH   9  10
ATOM     10  C   UNL     1       3.755   4.962  19.910  0.00  0.00    +0.000 C 
BRANCH  10  11
ATOM     11  N   UNL     1       3.180   3.704  19.385  0.00  0.00    +0.000 NA
ATOM     12  C   UNL     1       1.740   3.767  19.037  0.00  0.00    +0.000 C 
ATOM     13  C   UNL     1       0.808   3.867  20.254  0.00  0.00    +0.000 C 
ATOM     14  O   UNL     1       1.013   2.767  21.148  0.00  0.00    +0.000 OA
ATOM     15  C   UNL     1       2.381   2.713  21.575  0.00  0.00    +0.000 C 
ATOM     16  C   UNL     1       3.344   2.612  20.375  0.00  0.00    +0.000 C 
ENDBRANCH  10  11
ENDBRANCH   9  10
ENDBRANCH   7   9
ENDBRANCH   4   7
BRANCH   1  17
ATOM     17  C   UNL     1       6.448   4.070  12.779  0.00  0.00    +0.000 C 
BRANCH  17  18
ATOM     18  C   UNL     1       6.234   2.596  12.452  0.00  0.00    +0.000 C 
BRANCH  18  19
ATOM     19  C   UNL     1       5.293   2.399  11.266  0.00  0.00    +0.000 C 
BRANCH  19  20
ATOM     20  C   UNL     1       4.115   3.364  11.389  0.00  0.00    +0.000 C 
BRANCH  20  22
ATOM     21  C   UNL     1       2.871   4.424   9.494  0.00  0.00    +0.000 C 
ATOM     22  C   UNL     1       3.082   3.146  10.291  0.00  0.00    +0.000 C 
ENDBRANCH  20  22
ENDBRANCH  19  20
ENDBRANCH  18  19
ENDBRANCH  17  18
ENDBRANCH   1  17
TORSDOF 9
ENDMDL
MODEL 2
REMARK VINA RESULT:      -7.0      1.260      1.618
REMARK  Name = 
REMARK  10 active torsions:
REMARK  status: ('A' for Active; 'I' for Inactive)
REMARK    1  A    between atoms: C_1  and  C_2
REMARK    2  A    between atoms: C_2  and  C_3
REMARK    3  A    between atoms: C_3  and  C_4
REMARK    4  A    between atoms: C_4  and  C_5
REMARK    5  A    between atoms: C_5  and  C_6
REMARK    6  A    between atoms: C_6  and  C_7
REMARK    7  A    between atoms: C_10  and  C_11
REMARK    8  A    between atoms: C_11  and  C_13
REMARK    9  A    between atoms: C_13  and  C_14
REMARK   10  A    between atoms: C_14  and  N_15
REMARK                            x       y       z     vdW  Elec       q    Type
REMARK                         _______ _______ _______ _____ _____    ______ ____
ROOT
ATOM      1  C   UNL     1       6.481   4.980  14.663  0.00  0.00    +0.000 A 
ATOM      2  C   UNL     1       5.279   5.584  15.066  0.00  0.00    +0.000 A 
ATOM      3  C   UNL     1       4.952   5.682  16.421  0.00  0.00    +0.000 A 
ATOM      4  C   UNL     1       5.818   5.175  17.393  0.00  0.00    +0.000 A 
ATOM      5  C   UNL     1       7.001   4.539  16.991  0.00  0.00    +0.000 A 
ATOM      6  C   UNL     1       7.327   4.446  15.639  0.00  0.00    +0.000 A 
ENDROOT
BRANCH   4   7
ATOM      7  C   UNL     1       5.451   5.323  18.832  0.00  0.00    +0.000 C 
ATOM      8  O   UNL     1       6.213   4.906  19.695  0.00  0.00    +0.000 OA
BRANCH   7   9
ATOM      9  C   UNL     1       4.090   5.923  19.159  0.00  0.00    +0.000 C 
BRANCH   9  10
ATOM     10  C   UNL     1       3.236   4.966  19.987  0.00  0.00    +0.000 C 
BRANCH  10  11
ATOM     11  N   UNL     1       1.852   4.822  19.486  0.00  0.00    +0.000 NA
ATOM     12  C   UNL     1       1.057   3.751  20.132  0.00  0.00    +0.000 C 
ATOM     13  C   UNL     1       1.504   2.329  19.757  0.00  0.00    +0.000 C 
ATOM     14  O   UNL     1       1.463   2.136  18.338  0.00  0.00    +0.000 OA
ATOM     15  C   UNL     1       2.284   3.106  17.674  0.00  0.00    +0.000 C 
ATOM     16  C   UNL     1       1.861   4.545  18.029  0.00  0.00    +0.000 C 
ENDBRANCH  10  11
ENDBRANCH   9  10
ENDBRANCH   7   9
ENDBRANCH   4   7
BRANCH   1  17
ATOM     17  C   UNL     1       6.887   4.906  13.212  0.00  0.00    +0.000 C 
BRANCH  17  18
ATOM     18  C   UNL     1       6.571   3.541  12.609  0.00  0.00    +0.000 C 
BRANCH  18  19
ATOM     19  C   UNL     1       5.070   3.266  12.560  0.00  0.00    +0.000 C 
BRANCH  19  20
ATOM     20  C   UNL     1       4.450   4.051  11.406  0.00  0.00    +0.000 C 
BRANCH  20  22
ATOM     21  C   UNL     1       2.855   4.020   9.477  0.00  0.00    +0.000 C 
ATOM     22  C   UNL     1       3.417   3.227  10.646  0.00  0.00    +0.000 C 
ENDBRANCH  20  22
ENDBRANCH  19  20
ENDBRANCH  18  19
ENDBRANCH  17  18
ENDBRANCH   1  17
TORSDOF 9
ENDMDL
MODEL 3
REMARK VINA RESULT:      -6.8      1.333      1.686
REMARK  Name = 
REMARK  10 active torsions:
REMARK  status: ('A' for Active; 'I' for Inactive)
REMARK    1  A    between atoms: C_1  and  C_2
REMARK    2  A    between atoms: C_2  and  C_3
REMARK    3  A    between atoms: C_3  and  C_4
REMARK    4  A    between atoms: C_4  and  C_5
REMARK    5  A    between atoms: C_5  and  C_6
REMARK    6  A    between atoms: C_6  and  C_7
REMARK    7  A    between atoms: C_10  and  C_11
REMARK    8  A    between atoms: C_11  and  C_13
REMARK    9  A    between atoms: C_13  and  C_14
REMARK   10  A    between atoms: C_14  and  N_15
REMARK                            x       y       z     vdW  Elec       q    Type
REMARK                         _______ _______ _______ _____ _____    ______ ____
ROOT
ATOM      1  C   UNL     1       5.835   4.944  14.500  0.00  0.00    +0.000 A 
ATOM      2  C   UNL     1       6.873   4.241  15.132  0.00  0.00    +0.000 A 
ATOM      3  C   UNL     1       7.302   4.606  16.410  0.00  0.00    +0.000 A 
ATOM      4  C   UNL     1       6.705   5.680  17.074  0.00  0.00    +0.000 A 
ATOM      5  C   UNL     1       5.693   6.407  16.430  0.00  0.00    +0.000 A 
ATOM      6  C   UNL     1       5.263   6.037  15.156  0.00  0.00    +0.000 A 
ENDROOT
BRANCH   4   7
ATOM      7  C   UNL     1       7.168   6.024  18.451  0.00  0.00    +0.000 C 
ATOM      8  O   UNL     1       8.068   6.841  18.599  0.00  0.00    +0.000 OA
BRANCH   7   9
ATOM      9  C   UNL     1       6.544   5.270  19.618  0.00  0.00    +0.000 C 
BRANCH   9  10
ATOM     10  C   UNL     1       5.071   4.959  19.364  0.00  0.00    +0.000 C 
BRANCH  10  11
ATOM     11  N   UNL     1       4.830   3.576  18.897  0.00  0.00    +0.000 NA
ATOM     12  C   UNL     1       3.941   3.455  17.717  0.00  0.00    +0.000 C 
ATOM     13  C   UNL     1       2.468   3.776  18.011  0.00  0.00    +0.000 C 
ATOM     14  O   UNL     1       1.958   2.937  19.054  0.00  0.00    +0.000 OA
ATOM     15  C   UNL     1       2.744   3.080  20.245  0.00  0.00    +0.000 C 
ATOM     16  C   UNL     1       4.230   2.765  19.984  0.00  0.00    +0.000 C 
ENDBRANCH  10  11
ENDBRANCH   9  10
ENDBRANCH   7   9
ENDBRANCH   4   7
BRANCH   1  17
ATOM     17  C   UNL     1       5.313   4.542  13.142  0.00  0.00    +0.000 C 
BRANCH  17  18
ATOM     18  C   UNL     1       5.961   3.252  12.650  0.00  0.00    +0.000 C 
BRANCH  18  19
ATOM     19  C   UNL     1       5.176   2.610  11.510  0.00  0.00    +0.000 C 
BRANCH  19  20
ATOM     20  C   UNL     1       3.850   3.347  11.331  0.00  0.00    +0.000 C 
BRANCH  20  22
ATOM     21  C   UNL     1       2.747   4.497   9.401  0.00  0.00    +0.000 C 
ATOM     22  C   UNL     1       3.287   3.176   9.925  0.00  0.00    +0.000 C 
ENDBRANCH  20  22
ENDBRANCH  19  20
ENDBRANCH  18  19
ENDBRANCH  17  18
ENDBRANCH   1  17
TORSDOF 9
ENDMDL
MODEL 4
REMARK VINA RESULT:      -6.7      1.908      3.533
REMARK  Name = 
REMARK  10 active torsions:
REMARK  status: ('A' for Active; 'I' for Inactive)
REMARK    1  A    between atoms: C_1  and  C_2
REMARK    2  A    between atoms: C_2  and  C_3
REMARK    3  A    between atoms: C_3  and  C_4
REMARK    4  A    between atoms: C_4  and  C_5
REMARK    5  A    between atoms: C_5  and  C_6
REMARK    6  A    between atoms: C_6  and  C_7
REMARK    7  A    between atoms: C_10  and  C_11
REMARK    8  A    between atoms: C_11  and  C_13
REMARK    9  A    between atoms: C_13  and  C_14
REMARK   10  A    between atoms: C_14  and  N_15
REMARK                            x       y       z     vdW  Elec       q    Type
REMARK                         _______ _______ _______ _____ _____    ______ ____
ROOT
ATOM      1  C   UNL     1       5.570   5.969  17.195  0.00  0.00    +0.000 A 
ATOM      2  C   UNL     1       4.464   6.768  16.862  0.00  0.00    +0.000 A 
ATOM      3  C   UNL     1       3.424   6.958  17.775  0.00  0.00    +0.000 A 
ATOM      4  C   UNL     1       3.471   6.350  19.032  0.00  0.00    +0.000 A 
ATOM      5  C   UNL     1       4.556   5.522  19.353  0.00  0.00    +0.000 A 
ATOM      6  C   UNL     1       5.595   5.338  18.441  0.00  0.00    +0.000 A 
ENDROOT
BRANCH   4   7
ATOM      7  C   UNL     1       2.357   6.598  19.994  0.00  0.00    +0.000 C 
ATOM      8  O   UNL     1       2.126   7.741  20.368  0.00  0.00    +0.000 OA
BRANCH   7   9
ATOM      9  C   UNL     1       1.603   5.389  20.533  0.00  0.00    +0.000 C 
BRANCH   9  10
ATOM     10  C   UNL     1       1.267   4.394  19.424  0.00  0.00    +0.000 C 
BRANCH  10  11
ATOM     11  N   UNL     1       1.253   2.986  19.877  0.00  0.00    +0.000 NA
ATOM     12  C   UNL     1       2.425   2.571  20.684  0.00  0.00    +0.000 C 
ATOM     13  C   UNL     1       3.729   2.460  19.879  0.00  0.00    +0.000 C 
ATOM     14  O   UNL     1       3.580   1.545  18.786  0.00  0.00    +0.000 OA
ATOM     15  C   UNL     1       2.502   1.951  17.932  0.00  0.00    +0.000 C 
ATOM     16  C   UNL     1       1.178   2.073  18.711  0.00  0.00    +0.000 C 
ENDBRANCH  10  11
ENDBRANCH   9  10
ENDBRANCH   7   9
ENDBRANCH   4   7
BRANCH   1  17
ATOM     17  C   UNL     1       6.734   5.787  16.251  0.00  0.00    +0.000 C 
BRANCH  17  18
ATOM     18  C   UNL     1       6.706   4.416  15.583  0.00  0.00    +0.000 C 
BRANCH  18  19
ATOM     19  C   UNL     1       5.716   4.360  14.423  0.00  0.00    +0.000 C 
BRANCH  19  20
ATOM     20  C   UNL     1       6.377   3.679  13.226  0.00  0.00    +0.000 C 
BRANCH  20  22
ATOM     21  C   UNL     1       5.760   2.009  11.467  0.00  0.00    +0.000 C 
ATOM     22  C   UNL     1       5.364   3.308  12.149  0.00  0.00    +0.000 C 
ENDBRANCH  20  22
ENDBRANCH  19  20
ENDBRANCH  18  19
ENDBRANCH  17  18
ENDBRANCH   1  17
TORSDOF 9
ENDMDL
MODEL 5
REMARK VINA RESULT:      -6.7      3.727      6.632
REMARK  Name = 
REMARK  10 active torsions:
REMARK  status: ('A' for Active; 'I' for Inactive)
REMARK    1  A    between atoms: C_1  and  C_2
REMARK    2  A    between atoms: C_2  and  C_3
REMARK    3  A    between atoms: C_3  and  C_4
REMARK    4  A    between atoms: C_4  and  C_5
REMARK    5  A    between atoms: C_5  and  C_6
REMARK    6  A    between atoms: C_6  and  C_7
REMARK    7  A    between atoms: C_10  and  C_11
REMARK    8  A    between atoms: C_11  and  C_13
REMARK    9  A    between atoms: C_13  and  C_14
REMARK   10  A    between atoms: C_14  and  N_15
REMARK                            x       y       z     vdW  Elec       q    Type
REMARK                         _______ _______ _______ _____ _____    ______ ____
ROOT
ATOM      1  C   UNL     1       7.759   7.379  18.142  0.00  0.00    +0.000 A 
ATOM      2  C   UNL     1       6.785   7.573  17.149  0.00  0.00    +0.000 A 
ATOM      3  C   UNL     1       5.999   6.506  16.708  0.00  0.00    +0.000 A 
ATOM      4  C   UNL     1       6.175   5.230  17.248  0.00  0.00    +0.000 A 
ATOM      5  C   UNL     1       7.172   5.026  18.213  0.00  0.00    +0.000 A 
ATOM      6  C   UNL     1       7.953   6.093  18.655  0.00  0.00    +0.000 A 
ENDROOT
BRANCH   4   7
ATOM      7  C   UNL     1       5.297   4.119  16.775  0.00  0.00    +0.000 C 
ATOM      8  O   UNL     1       5.753   3.269  16.020  0.00  0.00    +0.000 OA
BRANCH   7   9
ATOM      9  C   UNL     1       3.834   4.143  17.197  0.00  0.00    +0.000 C 
BRANCH   9  10
ATOM     10  C   UNL     1       3.683   4.047  18.713  0.00  0.00    +0.000 C 
BRANCH  10  11
ATOM     11  N   UNL     1       3.314   2.695  19.187  0.00  0.00    +0.000 NA
ATOM     12  C   UNL     1       1.948   2.251  18.822  0.00  0.00    +0.000 C 
ATOM     13  C   UNL     1       0.830   2.988  19.576  0.00  0.00    +0.000 C 
ATOM     14  O   UNL     1       0.991   2.852  20.992  0.00  0.00    +0.000 OA
ATOM     15  C   UNL     1       2.274   3.343  21.403  0.00  0.00    +0.000 C 
ATOM     16  C   UNL     1       3.419   2.623  20.664  0.00  0.00    +0.000 C 
ENDBRANCH  10  11
ENDBRANCH   9  10
ENDBRANCH   7   9
ENDBRANCH   4   7
BRANCH   1  17
ATOM     17  C   UNL     1       8.588   8.521  18.678  0.00  0.00    +0.000 C 
BRANCH  17  18
ATOM     18  C   UNL     1       8.492   9.752  17.783  0.00  0.00    +0.000 C 
BRANCH  18  19
ATOM     19  C   UNL     1       8.857  11.035  18.527  0.00  0.00    +0.000 C 
BRANCH  19  20
ATOM     20  C   UNL     1       9.818  10.702  19.667  0.00  0.00    +0.000 C 
BRANCH  20  22
ATOM     21  C   UNL     1      11.517  11.725  18.140  0.00  0.00    +0.000 C 
ATOM     22  C   UNL     1      11.101  11.520  19.588  0.00  0.00    +0.000 C 
ENDBRANCH  20  22
ENDBRANCH  19  20
ENDBRANCH  18  19
ENDBRANCH  17  18
ENDBRANCH   1  17
TORSDOF 9
ENDMDL
MODEL 6
REMARK VINA RESULT:      -6.6      1.069      1.304
REMARK  Name = 
REMARK  10 active torsions:
REMARK  status: ('A' for Active; 'I' for Inactive)
REMARK    1  A    between atoms: C_1  and  C_2
REMARK    2  A    between atoms: C_2  and  C_3
REMARK    3  A    between atoms: C_3  and  C_4
REMARK    4  A    between atoms: C_4  and  C_5
REMARK    5  A    between atoms: C_5  and  C_6
REMARK    6  A    between atoms: C_6  and  C_7
REMARK    7  A    between atoms: C_10  and  C_11
REMARK    8  A    between atoms: C_11  and  C_13
REMARK    9  A    between atoms: C_13  and  C_14
REMARK   10  A    between atoms: C_14  and  N_15
REMARK                            x       y       z     vdW  Elec       q    Type
REMARK                         _______ _______ _______ _____ _____    ______ ____
ROOT
ATOM      1  C   UNL     1       6.336   4.999  14.756  0.00  0.00    +0.000 A 
ATOM      2  C   UNL     1       5.186   5.557  15.338  0.00  0.00    +0.000 A 
ATOM      3  C   UNL     1       5.039   5.594  16.727  0.00  0.00    +0.000 A 
ATOM      4  C   UNL     1       6.036   5.072  17.555  0.00  0.00    +0.000 A 
ATOM      5  C   UNL     1       7.169   4.482  16.975  0.00  0.00    +0.000 A 
ATOM      6  C   UNL     1       7.315   4.450  15.589  0.00  0.00    +0.000 A 
ENDROOT
BRANCH   4   7
ATOM      7  C   UNL     1       5.860   5.155  19.035  0.00  0.00    +0.000 C 
ATOM      8  O   UNL     1       6.826   5.408  19.744  0.00  0.00    +0.000 OA
BRANCH   7   9
ATOM      9  C   UNL     1       4.484   4.838  19.604  0.00  0.00    +0.000 C 
BRANCH   9  10
ATOM     10  C   UNL     1       4.056   3.408  19.281  0.00  0.00    +0.000 C 
BRANCH  10  11
ATOM     11  N   UNL     1       3.173   2.809  20.305  0.00  0.00    +0.000 NA
ATOM     12  C   UNL     1       2.040   2.014  19.773  0.00  0.00    +0.000 C 
ATOM     13  C   UNL     1       0.946   2.860  19.103  0.00  0.00    +0.000 C 
ATOM     14  O   UNL     1       0.429   3.841  20.010  0.00  0.00    +0.000 OA
ATOM     15  C   UNL     1       1.483   4.686  20.492  0.00  0.00    +0.000 C 
ATOM     16  C   UNL     1       2.599   3.867  21.171  0.00  0.00    +0.000 C 
ENDBRANCH  10  11
ENDBRANCH   9  10
ENDBRANCH   7   9
ENDBRANCH   4   7
BRANCH   1  17
ATOM     17  C   UNL     1       6.549   4.991  13.262  0.00  0.00    +0.000 C 
BRANCH  17  18
ATOM     18  C   UNL     1       6.858   3.589  12.746  0.00  0.00    +0.000 C 
BRANCH  18  19
ATOM     19  C   UNL     1       5.602   2.855  12.286  0.00  0.00    +0.000 C 
BRANCH  19  20
ATOM     20  C   UNL     1       4.642   3.850  11.637  0.00  0.00    +0.000 C 
BRANCH  20  22
ATOM     21  C   UNL     1       3.024   4.114   9.746  0.00  0.00    +0.000 C 
ATOM     22  C   UNL     1       3.592   3.155  10.779  0.00  0.00    +0.000 C 
ENDBRANCH  20  22
ENDBRANCH  19  20
ENDBRANCH  18  19
ENDBRANCH  17  18
ENDBRANCH   1  17
TORSDOF 9
ENDMDL
MODEL 7
REMARK VINA RESULT:      -6.5      4.148      7.699
REMARK  Name = 
REMARK  10 active torsions:
REMARK  status: ('A' for Active; 'I' for Inactive)
REMARK    1  A    between atoms: C_1  and  C_2
REMARK    2  A    between atoms: C_2  and  C_3
REMARK    3  A    between atoms: C_3  and  C_4
REMARK    4  A    between atoms: C_4  and  C_5
REMARK    5  A    between atoms: C_5  and  C_6
REMARK    6  A    between atoms: C_6  and  C_7
REMARK    7  A    between atoms: C_10  and  C_11
REMARK    8  A    between atoms: C_11  and  C_13
REMARK    9  A    between atoms: C_13  and  C_14
REMARK   10  A    between atoms: C_14  and  N_15
REMARK                            x       y       z     vdW  Elec       q    Type
REMARK                         _______ _______ _______ _____ _____    ______ ____
ROOT
ATOM      1  C   UNL     1       2.080   8.204  18.772  0.00  0.00    +0.000 A 
ATOM      2  C   UNL     1       2.723   7.577  17.693  0.00  0.00    +0.000 A 
ATOM      3  C   UNL     1       3.195   6.268  17.812  0.00  0.00    +0.000 A 
ATOM      4  C   UNL     1       3.036   5.567  19.010  0.00  0.00    +0.000 A 
ATOM      5  C   UNL     1       2.427   6.204  20.101  0.00  0.00    +0.000 A 
ATOM      6  C   UNL     1       1.953   7.509  19.978  0.00  0.00    +0.000 A 
ENDROOT
BRANCH   4   7
ATOM      7  C   UNL     1       3.526   4.159  19.092  0.00  0.00    +0.000 C 
ATOM      8  O   UNL     1       2.731   3.256  19.320  0.00  0.00    +0.000 OA
BRANCH   7   9
ATOM      9  C   UNL     1       5.025   3.922  18.965  0.00  0.00    +0.000 C 
BRANCH   9  10
ATOM     10  C   UNL     1       5.823   5.193  19.244  0.00  0.00    +0.000 C 
BRANCH  10  11
ATOM     11  N   UNL     1       7.235   5.113  18.812  0.00  0.00    +0.000 NA
ATOM     12  C   UNL     1       7.963   6.403  18.793  0.00  0.00    +0.000 C 
ATOM     13  C   UNL     1       7.516   7.355  17.673  0.00  0.00    +0.000 C 
ATOM     14  O   UNL     1       7.652   6.736  16.389  0.00  0.00    +0.000 OA
ATOM     15  C   UNL     1       6.897   5.517  16.335  0.00  0.00    +0.000 C 
ATOM     16  C   UNL     1       7.323   4.539  17.447  0.00  0.00    +0.000 C 
ENDBRANCH  10  11
ENDBRANCH   9  10
ENDBRANCH   7   9
ENDBRANCH   4   7
BRANCH   1  17
ATOM     17  C   UNL     1       1.513   9.598  18.660  0.00  0.00    +0.000 C 
BRANCH  17  18
ATOM     18  C   UNL     1       0.430   9.850  19.705  0.00  0.00    +0.000 C 
BRANCH  18  19
ATOM     19  C   UNL     1      -0.750  10.634  19.135  0.00  0.00    +0.000 C 
BRANCH  19  20
ATOM     20  C   UNL     1      -1.059  10.131  17.727  0.00  0.00    +0.000 C 
BRANCH  20  22
ATOM     21  C   UNL     1      -3.282  11.072  17.069  0.00  0.00    +0.000 C 
ATOM     22  C   UNL     1      -2.541   9.831  17.540  0.00  0.00    +0.000 C 
ENDBRANCH  20  22
ENDBRANCH  19  20
ENDBRANCH  18  19
ENDBRANCH  17  18
ENDBRANCH   1  17
TORSDOF 9
ENDMDL
MODEL 8
REMARK VINA RESULT:      -6.5      4.367      7.959
REMARK  Name = 
REMARK  10 active torsions:
REMARK  status: ('A' for Active; 'I' for Inactive)
REMARK    1  A    between atoms: C_1  and  C_2
REMARK    2  A    between atoms: C_2  and  C_3
REMARK    3  A    between atoms: C_3  and  C_4
REMARK    4  A    between atoms: C_4  and  C_5
REMARK    5  A    between atoms: C_5  and  C_6
REMARK    6  A    between atoms: C_6  and  C_7
REMARK    7  A    between atoms: C_10  and  C_11
REMARK    8  A    between atoms: C_11  and  C_13
REMARK    9  A    between atoms: C_13  and  C_14
REMARK   10  A    between atoms: C_14  and  N_15
REMARK                            x       y       z     vdW  Elec       q    Type
REMARK                         _______ _______ _______ _____ _____    ______ ____
ROOT
ATOM      1  C   UNL     1       1.542   9.025  19.218  0.00  0.00    +0.000 A 
ATOM      2  C   UNL     1       2.027   8.659  17.952  0.00  0.00    +0.000 A 
ATOM      3  C   UNL     1       2.500   7.366  17.720  0.00  0.00    +0.000 A 
ATOM      4  C   UNL     1       2.500   6.419  18.748  0.00  0.00    +0.000 A 
ATOM      5  C   UNL     1       2.050   6.793  20.023  0.00  0.00    +0.000 A 
ATOM      6  C   UNL     1       1.574   8.083  20.251  0.00  0.00    +0.000 A 
ENDROOT
BRANCH   4   7
ATOM      7  C   UNL     1       2.985   5.038  18.456  0.00  0.00    +0.000 C 
ATOM      8  O   UNL     1       2.421   4.368  17.600  0.00  0.00    +0.000 OA
BRANCH   7   9
ATOM      9  C   UNL     1       4.125   4.493  19.307  0.00  0.00    +0.000 C 
BRANCH   9  10
ATOM     10  C   UNL     1       5.309   5.455  19.346  0.00  0.00    +0.000 C 
BRANCH  10  11
ATOM     11  N   UNL     1       6.554   4.884  18.788  0.00  0.00    +0.000 NA
ATOM     12  C   UNL     1       7.746   5.760  18.881  0.00  0.00    +0.000 C 
ATOM     13  C   UNL     1       7.701   6.976  17.942  0.00  0.00    +0.000 C 
ATOM     14  O   UNL     1       7.541   6.567  16.579  0.00  0.00    +0.000 OA
ATOM     15  C   UNL     1       6.353   5.778  16.427  0.00  0.00    +0.000 C 
ATOM     16  C   UNL     1       6.367   4.548  17.355  0.00  0.00    +0.000 C 
ENDBRANCH  10  11
ENDBRANCH   9  10
ENDBRANCH   7   9
ENDBRANCH   4   7
BRANCH   1  17
ATOM     17  C   UNL     1       0.975  10.398  19.488  0.00  0.00    +0.000 C 
BRANCH  17  18
ATOM     18  C   UNL     1      -0.340  10.321  20.257  0.00  0.00    +0.000 C 
BRANCH  18  19
ATOM     19  C   UNL     1      -1.537  10.707  19.391  0.00  0.00    +0.000 C 
BRANCH  19  20
ATOM     20  C   UNL     1      -1.096  10.805  17.932  0.00  0.00    +0.000 C 
BRANCH  20  22
ATOM     21  C   UNL     1      -3.338   9.743  17.609  0.00  0.00    +0.000 C 
ATOM     22  C   UNL     1      -1.952   9.937  17.018  0.00  0.00    +0.000 C 
ENDBRANCH  20  22
ENDBRANCH  19  20
ENDBRANCH  18  19
ENDBRANCH  17  18
ENDBRANCH   1  17
TORSDOF 9
ENDMDL
MODEL 9
REMARK VINA RESULT:      -6.5      1.079      1.856
REMARK  Name = 
REMARK  10 active torsions:
REMARK  status: ('A' for Active; 'I' for Inactive)
REMARK    1  A    between atoms: C_1  and  C_2
REMARK    2  A    between atoms: C_2  and  C_3
REMARK    3  A    between atoms: C_3  and  C_4
REMARK    4  A    between atoms: C_4  and  C_5
REMARK    5  A    between atoms: C_5  and  C_6
REMARK    6  A    between atoms: C_6  and  C_7
REMARK    7  A    between atoms: C_10  and  C_11
REMARK    8  A    between atoms: C_11  and  C_13
REMARK    9  A    between atoms: C_13  and  C_14
REMARK   10  A    between atoms: C_14  and  N_15
REMARK                            x       y       z     vdW  Elec       q    Type
REMARK                         _______ _______ _______ _____ _____    ______ ____
ROOT
ATOM      1  C   UNL     1       6.229   4.198  14.623  0.00  0.00    +0.000 A 
ATOM      2  C   UNL     1       6.879   5.319  15.164  0.00  0.00    +0.000 A 
ATOM      3  C   UNL     1       6.758   5.623  16.522  0.00  0.00    +0.000 A 
ATOM      4  C   UNL     1       5.984   4.815  17.359  0.00  0.00    +0.000 A 
ATOM      5  C   UNL     1       5.305   3.716  16.814  0.00  0.00    +0.000 A 
ATOM      6  C   UNL     1       5.431   3.412  15.459  0.00  0.00    +0.000 A 
ENDROOT
BRANCH   4   7
ATOM      7  C   UNL     1       5.902   5.152  18.811  0.00  0.00    +0.000 C 
ATOM      8  O   UNL     1       6.848   4.896  19.545  0.00  0.00    +0.000 OA
BRANCH   7   9
ATOM      9  C   UNL     1       4.594   5.735  19.330  0.00  0.00    +0.000 C 
BRANCH   9  10
ATOM     10  C   UNL     1       3.407   5.312  18.467  0.00  0.00    +0.000 C 
BRANCH  10  11
ATOM     11  N   UNL     1       2.309   4.687  19.235  0.00  0.00    +0.000 NA
ATOM     12  C   UNL     1       2.740   3.803  20.344  0.00  0.00    +0.000 C 
ATOM     13  C   UNL     1       3.373   2.482  19.880  0.00  0.00    +0.000 C 
ATOM     14  O   UNL     1       2.475   1.751  19.037  0.00  0.00    +0.000 OA
ATOM     15  C   UNL     1       2.091   2.543  17.904  0.00  0.00    +0.000 C 
ATOM     16  C   UNL     1       1.451   3.876  18.337  0.00  0.00    +0.000 C 
ENDBRANCH  10  11
ENDBRANCH   9  10
ENDBRANCH   7   9
ENDBRANCH   4   7
BRANCH   1  17
ATOM     17  C   UNL     1       6.382   3.812  13.172  0.00  0.00    +0.000 C 
BRANCH  17  18
ATOM     18  C   UNL     1       5.041   3.820  12.445  0.00  0.00    +0.000 C 
BRANCH  18  19
ATOM     19  C   UNL     1       4.886   2.623  11.510  0.00  0.00    +0.000 C 
BRANCH  19  20
ATOM     20  C   UNL     1       3.643   2.817  10.643  0.00  0.00    +0.000 C 
BRANCH  20  22
ATOM     21  C   UNL     1       2.596   4.478   9.092  0.00  0.00    +0.000 C 
ATOM     22  C   UNL     1       3.337   4.290  10.405  0.00  0.00    +0.000 C 
ENDBRANCH  20  22
ENDBRANCH  19  20
ENDBRANCH  18  19
ENDBRANCH  17  18
ENDBRANCH   1  17
TORSDOF 9
ENDMDL
