MODEL 1
REMARK VINA RESULT:      -8.1      0.000      0.000
REMARK  Name = 
REMARK  8 active torsions:
REMARK  status: ('A' for Active; 'I' for Inactive)
REMARK    1  A    between atoms: C_1  and  C_2
REMARK    2  A    between atoms: C_5  and  C_6
REMARK    3  A    between atoms: C_8  and  C_9
REMARK    4  A    between atoms: N_11  and  C_12
REMARK    5  A    between atoms: C_15  and  O_16
REMARK    6  A    between atoms: O_16  and  C_17
REMARK    7  A    between atoms: C_25  and  N_26
REMARK    8  A    between atoms: C_29  and  O_30
REMARK                            x       y       z     vdW  Elec       q    Type
REMARK                         _______ _______ _______ _____ _____    ______ ____
ROOT
ATOM      1  C   UNL     1       0.324  12.266  19.878  0.00  0.00    +0.000 A 
ATOM      2  C   UNL     1       1.155  11.425  19.082  0.00  0.00    +0.000 A 
ATOM      3  C   UNL     1       1.100  10.040  19.213  0.00  0.00    +0.000 A 
ATOM      4  C   UNL     1       0.205   9.535  20.136  0.00  0.00    +0.000 A 
ATOM      5  N   UNL     1      -0.603  10.298  20.918  0.00  0.00    +0.000 NA
ATOM      6  C   UNL     1      -0.571  11.649  20.794  0.00  0.00    +0.000 A 
ENDROOT
BRANCH   1  11
ATOM      7  C   UNL     1       1.133  17.953  19.435  0.00  0.00    +0.000 C 
ATOM      8  C   UNL     1       0.908  16.475  19.518  0.00  0.00    +0.000 A 
ATOM      9  C   UNL     1       0.040  15.847  18.638  0.00  0.00    +0.000 A 
ATOM     10  C   UNL     1      -0.199  14.488  18.798  0.00  0.00    +0.000 A 
ATOM     11  C   UNL     1       0.485  13.737  19.762  0.00  0.00    +0.000 A 
ATOM     12  C   UNL     1       1.334  14.471  20.593  0.00  0.00    +0.000 A 
ATOM     13  N   UNL     1       1.544  15.807  20.507  0.00  0.00    +0.000 NA
ENDBRANCH   1  11
BRANCH   6  14
ATOM     14  N   UNL     1      -1.438  12.375  21.603  0.00  0.00    +0.000 N 
ATOM     15  C   UNL     1      -1.436  12.168  23.048  0.00  0.00    +0.000 C 
ATOM     16  C   UNL     1      -2.899  12.088  23.456  0.00  0.00    +0.000 C 
ATOM     17  C   UNL     1      -3.646  12.861  22.383  0.00  0.00    +0.000 C 
ATOM     18  C   UNL     1      -2.777  12.733  21.121  0.00  0.00    +0.000 C 
BRANCH  17  19
ATOM     19  O   UNL     1      -4.951  12.321  22.196  0.00  0.00    +0.000 OA
ATOM     20  H   UNL     1      -4.931  11.768  21.395  0.00  0.00    +0.000 HD
ENDBRANCH  17  19
ENDBRANCH   6  14
BRANCH   3  21
ATOM     21  C   UNL     1       1.877   9.084  18.381  0.00  0.00    +0.000 C 
ATOM     22  O   UNL     1       2.113   9.424  17.224  0.00  0.00    +0.000 OA
ATOM     23  N   UNL     1       2.220   7.868  18.955  0.00  0.00    +0.000 N 
ATOM     24  H   UNL     1       1.778   7.613  19.830  0.00  0.00    +0.000 HD
BRANCH  23  25
ATOM     25  C   UNL     1       2.990   6.854  18.328  0.00  0.00    +0.000 A 
ATOM     26  C   UNL     1       4.294   7.056  17.877  0.00  0.00    +0.000 A 
ATOM     27  C   UNL     1       5.005   6.028  17.246  0.00  0.00    +0.000 A 
ATOM     28  C   UNL     1       4.431   4.774  17.057  0.00  0.00    +0.000 A 
ATOM     29  C   UNL     1       3.123   4.565  17.486  0.00  0.00    +0.000 A 
ATOM     30  C   UNL     1       2.417   5.590  18.144  0.00  0.00    +0.000 A 
BRANCH  28  31
ATOM     31  O   UNL     1       5.207   3.889  16.376  0.00  0.00    +0.000 OA
BRANCH  31  32
ATOM     32  C   UNL     1       5.978   4.325  15.268  0.00  0.00    +0.000 C 
ATOM     33  F   UNL     1       7.194   4.812  15.589  0.00  0.00    +0.000 F 
ATOM     34  F   UNL     1       6.140   3.295  14.409  0.00  0.00    +0.000 F 
ATOM     35  F   UNL     1       5.297   5.301  14.625  0.00  0.00    +0.000 F 
ENDBRANCH  31  32
ENDBRANCH  28  31
ENDBRANCH  23  25
ENDBRANCH   3  21
TORSDOF 7
ENDMDL
MODEL 2
REMARK VINA RESULT:      -8.1      2.582      4.535
REMARK  Name = 
REMARK  8 active torsions:
REMARK  status: ('A' for Active; 'I' for Inactive)
REMARK    1  A    between atoms: C_1  and  C_2
REMARK    2  A    between atoms: C_5  and  C_6
REMARK    3  A    between atoms: C_8  and  C_9
REMARK    4  A    between atoms: N_11  and  C_12
REMARK    5  A    between atoms: C_15  and  O_16
REMARK    6  A    between atoms: O_16  and  C_17
REMARK    7  A    between atoms: C_25  and  N_26
REMARK    8  A    between atoms: C_29  and  O_30
REMARK                            x       y       z     vdW  Elec       q    Type
REMARK                         _______ _______ _______ _____ _____    ______ ____
ROOT
ATOM      1  C   UNL     1      -0.222  11.883  20.237  0.00  0.00    +0.000 A 
ATOM      2  C   UNL     1       0.110  10.525  19.963  0.00  0.00    +0.000 A 
ATOM      3  C   UNL     1       1.151  10.206  19.095  0.00  0.00    +0.000 A 
ATOM      4  C   UNL     1       1.838  11.262  18.530  0.00  0.00    +0.000 A 
ATOM      5  N   UNL     1       1.554  12.572  18.758  0.00  0.00    +0.000 NA
ATOM      6  C   UNL     1       0.551  12.900  19.611  0.00  0.00    +0.000 A 
ENDROOT
BRANCH   1  11
ATOM      7  C   UNL     1      -4.883  12.879  23.473  0.00  0.00    +0.000 C 
ATOM      8  C   UNL     1      -3.656  12.604  22.659  0.00  0.00    +0.000 A 
ATOM      9  C   UNL     1      -2.473  12.234  23.278  0.00  0.00    +0.000 A 
ATOM     10  C   UNL     1      -1.338  12.063  22.494  0.00  0.00    +0.000 A 
ATOM     11  C   UNL     1      -1.396  12.168  21.099  0.00  0.00    +0.000 A 
ATOM     12  C   UNL     1      -2.637  12.546  20.583  0.00  0.00    +0.000 A 
ATOM     13  N   UNL     1      -3.749  12.782  21.322  0.00  0.00    +0.000 NA
ENDBRANCH   1  11
BRANCH   6  14
ATOM     14  N   UNL     1       0.324  14.254  19.823  0.00  0.00    +0.000 N 
ATOM     15  C   UNL     1      -0.292  15.066  18.778  0.00  0.00    +0.000 C 
ATOM     16  C   UNL     1       0.523  16.349  18.716  0.00  0.00    +0.000 C 
ATOM     17  C   UNL     1       1.139  16.487  20.098  0.00  0.00    +0.000 C 
ATOM     18  C   UNL     1       1.264  15.048  20.624  0.00  0.00    +0.000 C 
BRANCH  17  19
ATOM     19  O   UNL     1       2.400  17.144  20.018  0.00  0.00    +0.000 OA
ATOM     20  H   UNL     1       3.026  16.653  20.580  0.00  0.00    +0.000 HD
ENDBRANCH  17  19
ENDBRANCH   6  14
BRANCH   3  21
ATOM     21  C   UNL     1       1.611   8.823  18.805  0.00  0.00    +0.000 C 
ATOM     22  O   UNL     1       1.668   8.496  17.623  0.00  0.00    +0.000 OA
ATOM     23  N   UNL     1       1.883   7.999  19.889  0.00  0.00    +0.000 N 
ATOM     24  H   UNL     1       1.585   8.306  20.807  0.00  0.00    +0.000 HD
BRANCH  23  25
ATOM     25  C   UNL     1       2.368   6.668  19.805  0.00  0.00    +0.000 A 
ATOM     26  C   UNL     1       3.442   6.298  18.994  0.00  0.00    +0.000 A 
ATOM     27  C   UNL     1       3.870   4.966  18.931  0.00  0.00    +0.000 A 
ATOM     28  C   UNL     1       3.240   3.976  19.680  0.00  0.00    +0.000 A 
ATOM     29  C   UNL     1       2.155   4.330  20.479  0.00  0.00    +0.000 A 
ATOM     30  C   UNL     1       1.741   5.673  20.563  0.00  0.00    +0.000 A 
BRANCH  28  31
ATOM     31  O   UNL     1       3.715   2.718  19.477  0.00  0.00    +0.000 OA
BRANCH  31  32
ATOM     32  C   UNL     1       3.393   2.020  18.284  0.00  0.00    +0.000 C 
ATOM     33  F   UNL     1       2.093   2.086  17.932  0.00  0.00    +0.000 F 
ATOM     34  F   UNL     1       4.140   2.510  17.270  0.00  0.00    +0.000 F 
ATOM     35  F   UNL     1       3.714   0.716  18.447  0.00  0.00    +0.000 F 
ENDBRANCH  31  32
ENDBRANCH  28  31
ENDBRANCH  23  25
ENDBRANCH   3  21
TORSDOF 7
ENDMDL
MODEL 3
REMARK VINA RESULT:      -8.0      0.235      1.072
REMARK  Name = 
REMARK  8 active torsions:
REMARK  status: ('A' for Active; 'I' for Inactive)
REMARK    1  A    between atoms: C_1  and  C_2
REMARK    2  A    between atoms: C_5  and  C_6
REMARK    3  A    between atoms: C_8  and  C_9
REMARK    4  A    between atoms: N_11  and  C_12
REMARK    5  A    between atoms: C_15  and  O_16
REMARK    6  A    between atoms: O_16  and  C_17
REMARK    7  A    between atoms: C_25  and  N_26
REMARK    8  A    between atoms: C_29  and  O_30
REMARK                            x       y       z     vdW  Elec       q    Type
REMARK                         _______ _______ _______ _____ _____    ______ ____
ROOT
ATOM      1  C   UNL     1       0.269  12.380  19.954  0.00  0.00    +0.000 A 
ATOM      2  C   UNL     1       1.101  11.545  19.153  0.00  0.00    +0.000 A 
ATOM      3  C   UNL     1       1.003  10.159  19.228  0.00  0.00    +0.000 A 
ATOM      4  C   UNL     1       0.063   9.645  20.099  0.00  0.00    +0.000 A 
ATOM      5  N   UNL     1      -0.749  10.402  20.885  0.00  0.00    +0.000 NA
ATOM      6  C   UNL     1      -0.674  11.755  20.816  0.00  0.00    +0.000 A 
ENDROOT
BRANCH   1  11
ATOM      7  C   UNL     1       1.256  18.053  19.761  0.00  0.00    +0.000 C 
ATOM      8  C   UNL     1       0.985  16.580  19.778  0.00  0.00    +0.000 A 
ATOM      9  C   UNL     1       0.107  16.017  18.865  0.00  0.00    +0.000 A 
ATOM     10  C   UNL     1      -0.176  14.660  18.965  0.00  0.00    +0.000 A 
ATOM     11  C   UNL     1       0.476  13.849  19.903  0.00  0.00    +0.000 A 
ATOM     12  C   UNL     1       1.338  14.520  20.771  0.00  0.00    +0.000 A 
ATOM     13  N   UNL     1       1.590  15.852  20.744  0.00  0.00    +0.000 NA
ENDBRANCH   1  11
BRANCH   6  14
ATOM     14  N   UNL     1      -1.546  12.474  21.624  0.00  0.00    +0.000 N 
ATOM     15  C   UNL     1      -1.515  12.298  23.073  0.00  0.00    +0.000 C 
ATOM     16  C   UNL     1      -2.968  12.188  23.508  0.00  0.00    +0.000 C 
ATOM     17  C   UNL     1      -3.753  12.919  22.432  0.00  0.00    +0.000 C 
ATOM     18  C   UNL     1      -2.902  12.788  21.158  0.00  0.00    +0.000 C 
BRANCH  17  19
ATOM     19  O   UNL     1      -5.046  12.341  22.278  0.00  0.00    +0.000 OA
ATOM     20  H   UNL     1      -5.370  12.571  21.389  0.00  0.00    +0.000 HD
ENDBRANCH  17  19
ENDBRANCH   6  14
BRANCH   3  21
ATOM     21  C   UNL     1       1.779   9.214  18.383  0.00  0.00    +0.000 C 
ATOM     22  O   UNL     1       1.989   9.554  17.222  0.00  0.00    +0.000 OA
ATOM     23  N   UNL     1       2.151   8.004  18.954  0.00  0.00    +0.000 N 
ATOM     24  H   UNL     1       1.730   7.744  19.838  0.00  0.00    +0.000 HD
BRANCH  23  25
ATOM     25  C   UNL     1       2.925   7.000  18.315  0.00  0.00    +0.000 A 
ATOM     26  C   UNL     1       2.461   5.702  18.100  0.00  0.00    +0.000 A 
ATOM     27  C   UNL     1       3.272   4.742  17.483  0.00  0.00    +0.000 A 
ATOM     28  C   UNL     1       4.561   5.058  17.062  0.00  0.00    +0.000 A 
ATOM     29  C   UNL     1       5.042   6.345  17.288  0.00  0.00    +0.000 A 
ATOM     30  C   UNL     1       4.218   7.318  17.885  0.00  0.00    +0.000 A 
BRANCH  28  31
ATOM     31  O   UNL     1       5.260   4.017  16.536  0.00  0.00    +0.000 OA
BRANCH  31  32
ATOM     32  C   UNL     1       6.097   4.219  15.408  0.00  0.00    +0.000 C 
ATOM     33  F   UNL     1       5.721   5.237  14.608  0.00  0.00    +0.000 F 
ATOM     34  F   UNL     1       7.360   4.446  15.830  0.00  0.00    +0.000 F 
ATOM     35  F   UNL     1       6.103   3.087  14.666  0.00  0.00    +0.000 F 
ENDBRANCH  31  32
ENDBRANCH  28  31
ENDBRANCH  23  25
ENDBRANCH   3  21
TORSDOF 7
ENDMDL
MODEL 4
REMARK VINA RESULT:      -8.0      0.512      1.363
REMARK  Name = 
REMARK  8 active torsions:
REMARK  status: ('A' for Active; 'I' for Inactive)
REMARK    1  A    between atoms: C_1  and  C_2
REMARK    2  A    between atoms: C_5  and  C_6
REMARK    3  A    between atoms: C_8  and  C_9
REMARK    4  A    between atoms: N_11  and  C_12
REMARK    5  A    between atoms: C_15  and  O_16
REMARK    6  A    between atoms: O_16  and  C_17
REMARK    7  A    between atoms: C_25  and  N_26
REMARK    8  A    between atoms: C_29  and  O_30
REMARK                            x       y       z     vdW  Elec       q    Type
REMARK                         _______ _______ _______ _____ _____    ______ ____
ROOT
ATOM      1  C   UNL     1       0.281  12.348  19.892  0.00  0.00    +0.000 A 
ATOM      2  C   UNL     1       1.110  11.518  19.083  0.00  0.00    +0.000 A 
ATOM      3  C   UNL     1       1.045  10.131  19.185  0.00  0.00    +0.000 A 
ATOM      4  C   UNL     1       0.141   9.613  20.092  0.00  0.00    +0.000 A 
ATOM      5  N   UNL     1      -0.666  10.366  20.886  0.00  0.00    +0.000 NA
ATOM      6  C   UNL     1      -0.623  11.719  20.791  0.00  0.00    +0.000 A 
ENDROOT
BRANCH   1  11
ATOM      7  C   UNL     1       0.768  18.080  19.571  0.00  0.00    +0.000 C 
ATOM      8  C   UNL     1       0.657  16.591  19.686  0.00  0.00    +0.000 A 
ATOM      9  C   UNL     1       1.414  15.902  20.621  0.00  0.00    +0.000 A 
ATOM     10  C   UNL     1       1.340  14.514  20.643  0.00  0.00    +0.000 A 
ATOM     11  C   UNL     1       0.454  13.820  19.809  0.00  0.00    +0.000 A 
ATOM     12  C   UNL     1      -0.258  14.614  18.908  0.00  0.00    +0.000 A 
ATOM     13  N   UNL     1      -0.164  15.963  18.815  0.00  0.00    +0.000 NA
ENDBRANCH   1  11
BRANCH   6  14
ATOM     14  N   UNL     1      -1.489  12.434  21.610  0.00  0.00    +0.000 N 
ATOM     15  C   UNL     1      -1.469  12.225  23.054  0.00  0.00    +0.000 C 
ATOM     16  C   UNL     1      -2.927  12.129  23.478  0.00  0.00    +0.000 C 
ATOM     17  C   UNL     1      -3.694  12.895  22.414  0.00  0.00    +0.000 C 
ATOM     18  C   UNL     1      -2.837  12.779  21.143  0.00  0.00    +0.000 C 
BRANCH  17  19
ATOM     19  O   UNL     1      -4.995  12.341  22.241  0.00  0.00    +0.000 OA
ATOM     20  H   UNL     1      -5.594  12.792  22.862  0.00  0.00    +0.000 HD
ENDBRANCH  17  19
ENDBRANCH   6  14
BRANCH   3  21
ATOM     21  C   UNL     1       1.818   9.188  18.336  0.00  0.00    +0.000 C 
ATOM     22  O   UNL     1       2.059   9.548  17.187  0.00  0.00    +0.000 OA
ATOM     23  N   UNL     1       2.155   7.959  18.889  0.00  0.00    +0.000 N 
ATOM     24  H   UNL     1       1.710   7.690  19.759  0.00  0.00    +0.000 HD
BRANCH  23  25
ATOM     25  C   UNL     1       2.921   6.953  18.245  0.00  0.00    +0.000 A 
ATOM     26  C   UNL     1       2.479   5.638  18.094  0.00  0.00    +0.000 A 
ATOM     27  C   UNL     1       3.283   4.677  17.468  0.00  0.00    +0.000 A 
ATOM     28  C   UNL     1       4.541   5.009  16.974  0.00  0.00    +0.000 A 
ATOM     29  C   UNL     1       5.001   6.313  17.136  0.00  0.00    +0.000 A 
ATOM     30  C   UNL     1       4.183   7.287  17.741  0.00  0.00    +0.000 A 
BRANCH  28  31
ATOM     31  O   UNL     1       5.239   3.967  16.447  0.00  0.00    +0.000 OA
BRANCH  31  32
ATOM     32  C   UNL     1       6.034   4.157  15.288  0.00  0.00    +0.000 C 
ATOM     33  F   UNL     1       6.140   3.070  14.497  0.00  0.00    +0.000 F 
ATOM     34  F   UNL     1       5.517   5.170  14.558  0.00  0.00    +0.000 F 
ATOM     35  F   UNL     1       7.281   4.514  15.672  0.00  0.00    +0.000 F 
ENDBRANCH  31  32
ENDBRANCH  28  31
ENDBRANCH  23  25
ENDBRANCH   3  21
TORSDOF 7
ENDMDL
MODEL 5
REMARK VINA RESULT:      -7.9      2.555      4.529
REMARK  Name = 
REMARK  8 active torsions:
REMARK  status: ('A' for Active; 'I' for Inactive)
REMARK    1  A    between atoms: C_1  and  C_2
REMARK    2  A    between atoms: C_5  and  C_6
REMARK    3  A    between atoms: C_8  and  C_9
REMARK    4  A    between atoms: N_11  and  C_12
REMARK    5  A    between atoms: C_15  and  O_16
REMARK    6  A    between atoms: O_16  and  C_17
REMARK    7  A    between atoms: C_25  and  N_26
REMARK    8  A    between atoms: C_29  and  O_30
REMARK                            x       y       z     vdW  Elec       q    Type
REMARK                         _______ _______ _______ _____ _____    ______ ____
ROOT
ATOM      1  C   UNL     1      -0.260  11.958  20.286  0.00  0.00    +0.000 A 
ATOM      2  C   UNL     1       0.053  10.603  19.973  0.00  0.00    +0.000 A 
ATOM      3  C   UNL     1       1.083  10.296  19.089  0.00  0.00    +0.000 A 
ATOM      4  C   UNL     1       1.780  11.360  18.548  0.00  0.00    +0.000 A 
ATOM      5  N   UNL     1       1.513  12.666  18.814  0.00  0.00    +0.000 NA
ATOM      6  C   UNL     1       0.520  12.982  19.682  0.00  0.00    +0.000 A 
ENDROOT
BRANCH   1  11
ATOM      7  C   UNL     1      -4.887  12.923  23.581  0.00  0.00    +0.000 C 
ATOM      8  C   UNL     1      -3.669  12.655  22.752  0.00  0.00    +0.000 A 
ATOM      9  C   UNL     1      -2.493  12.231  23.349  0.00  0.00    +0.000 A 
ATOM     10  C   UNL     1      -1.365  12.067  22.554  0.00  0.00    +0.000 A 
ATOM     11  C   UNL     1      -1.425  12.233  21.164  0.00  0.00    +0.000 A 
ATOM     12  C   UNL     1      -2.659  12.660  20.670  0.00  0.00    +0.000 A 
ATOM     13  N   UNL     1      -3.762  12.891  21.423  0.00  0.00    +0.000 NA
ENDBRANCH   1  11
BRANCH   6  14
ATOM     14  N   UNL     1       0.311  14.333  19.933  0.00  0.00    +0.000 N 
ATOM     15  C   UNL     1      -0.269  15.187  18.902  0.00  0.00    +0.000 C 
ATOM     16  C   UNL     1       0.569  16.458  18.898  0.00  0.00    +0.000 C 
ATOM     17  C   UNL     1       1.157  16.541  20.297  0.00  0.00    +0.000 C 
ATOM     18  C   UNL     1       1.247  15.084  20.779  0.00  0.00    +0.000 C 
BRANCH  17  19
ATOM     19  O   UNL     1       2.430  17.178  20.265  0.00  0.00    +0.000 OA
ATOM     20  H   UNL     1       2.947  16.773  19.547  0.00  0.00    +0.000 HD
ENDBRANCH  17  19
ENDBRANCH   6  14
BRANCH   3  21
ATOM     21  C   UNL     1       1.525   8.917  18.758  0.00  0.00    +0.000 C 
ATOM     22  O   UNL     1       1.574   8.623  17.566  0.00  0.00    +0.000 OA
ATOM     23  N   UNL     1       1.789   8.058  19.816  0.00  0.00    +0.000 N 
ATOM     24  H   UNL     1       1.498   8.342  20.744  0.00  0.00    +0.000 HD
BRANCH  23  25
ATOM     25  C   UNL     1       2.257   6.724  19.692  0.00  0.00    +0.000 A 
ATOM     26  C   UNL     1       1.780   5.673  20.477  0.00  0.00    +0.000 A 
ATOM     27  C   UNL     1       2.288   4.377  20.329  0.00  0.00    +0.000 A 
ATOM     28  C   UNL     1       3.280   4.100  19.392  0.00  0.00    +0.000 A 
ATOM     29  C   UNL     1       3.778   5.144  18.617  0.00  0.00    +0.000 A 
ATOM     30  C   UNL     1       3.248   6.442  18.746  0.00  0.00    +0.000 A 
BRANCH  28  31
ATOM     31  O   UNL     1       3.727   2.816  19.398  0.00  0.00    +0.000 OA
BRANCH  31  32
ATOM     32  C   UNL     1       3.543   1.993  18.257  0.00  0.00    +0.000 C 
ATOM     33  F   UNL     1       4.256   2.369  17.175  0.00  0.00    +0.000 F 
ATOM     34  F   UNL     1       3.875   0.722  18.570  0.00  0.00    +0.000 F 
ATOM     35  F   UNL     1       2.233   2.011  17.918  0.00  0.00    +0.000 F 
ENDBRANCH  31  32
ENDBRANCH  28  31
ENDBRANCH  23  25
ENDBRANCH   3  21
TORSDOF 7
ENDMDL
MODEL 6
REMARK VINA RESULT:      -7.9      2.775      3.320
REMARK  Name = 
REMARK  8 active torsions:
REMARK  status: ('A' for Active; 'I' for Inactive)
REMARK    1  A    between atoms: C_1  and  C_2
REMARK    2  A    between atoms: C_5  and  C_6
REMARK    3  A    between atoms: C_8  and  C_9
REMARK    4  A    between atoms: N_11  and  C_12
REMARK    5  A    between atoms: C_15  and  O_16
REMARK    6  A    between atoms: O_16  and  C_17
REMARK    7  A    between atoms: C_25  and  N_26
REMARK    8  A    between atoms: C_29  and  O_30
REMARK                            x       y       z     vdW  Elec       q    Type
REMARK                         _______ _______ _______ _____ _____    ______ ____
ROOT
ATOM      1  C   UNL     1      -0.247  12.782  21.349  0.00  0.00    +0.000 A 
ATOM      2  C   UNL     1       0.148  11.471  20.951  0.00  0.00    +0.000 A 
ATOM      3  C   UNL     1      -0.191  10.361  21.719  0.00  0.00    +0.000 A 
ATOM      4  C   UNL     1      -0.928  10.595  22.864  0.00  0.00    +0.000 A 
ATOM      5  N   UNL     1      -1.322  11.826  23.284  0.00  0.00    +0.000 NA
ATOM      6  C   UNL     1      -1.010  12.917  22.541  0.00  0.00    +0.000 A 
ENDROOT
BRANCH   1  11
ATOM      7  C   UNL     1       1.711  17.181  18.186  0.00  0.00    +0.000 C 
ATOM      8  C   UNL     1       1.176  16.033  18.984  0.00  0.00    +0.000 A 
ATOM      9  C   UNL     1      -0.100  15.546  18.745  0.00  0.00    +0.000 A 
ATOM     10  C   UNL     1      -0.587  14.531  19.560  0.00  0.00    +0.000 A 
ATOM     11  C   UNL     1       0.217  13.939  20.543  0.00  0.00    +0.000 A 
ATOM     12  C   UNL     1       1.482  14.507  20.697  0.00  0.00    +0.000 A 
ATOM     13  N   UNL     1       1.967  15.539  19.964  0.00  0.00    +0.000 NA
ENDBRANCH   1  11
BRANCH   6  14
ATOM     14  N   UNL     1      -1.462  14.146  23.008  0.00  0.00    +0.000 N 
ATOM     15  C   UNL     1      -0.699  14.870  24.019  0.00  0.00    +0.000 C 
ATOM     16  C   UNL     1      -1.719  15.362  25.035  0.00  0.00    +0.000 C 
ATOM     17  C   UNL     1      -3.025  15.452  24.263  0.00  0.00    +0.000 C 
ATOM     18  C   UNL     1      -2.901  14.404  23.145  0.00  0.00    +0.000 C 
BRANCH  17  19
ATOM     19  O   UNL     1      -4.131  15.197  25.122  0.00  0.00    +0.000 OA
ATOM     20  H   UNL     1      -4.242  14.231  25.184  0.00  0.00    +0.000 HD
ENDBRANCH  17  19
ENDBRANCH   6  14
BRANCH   3  21
ATOM     21  C   UNL     1       0.117   8.955  21.348  0.00  0.00    +0.000 C 
ATOM     22  O   UNL     1      -0.675   8.097  21.729  0.00  0.00    +0.000 OA
ATOM     23  N   UNL     1       1.297   8.720  20.656  0.00  0.00    +0.000 N 
ATOM     24  H   UNL     1       1.973   9.473  20.597  0.00  0.00    +0.000 HD
BRANCH  23  25
ATOM     25  C   UNL     1       1.734   7.454  20.186  0.00  0.00    +0.000 A 
ATOM     26  C   UNL     1       1.636   6.286  20.943  0.00  0.00    +0.000 A 
ATOM     27  C   UNL     1       2.100   5.064  20.441  0.00  0.00    +0.000 A 
ATOM     28  C   UNL     1       2.667   4.980  19.172  0.00  0.00    +0.000 A 
ATOM     29  C   UNL     1       2.787   6.143  18.415  0.00  0.00    +0.000 A 
ATOM     30  C   UNL     1       2.296   7.367  18.908  0.00  0.00    +0.000 A 
BRANCH  28  31
ATOM     31  O   UNL     1       3.132   3.747  18.836  0.00  0.00    +0.000 OA
BRANCH  31  32
ATOM     32  C   UNL     1       2.224   2.718  18.477  0.00  0.00    +0.000 C 
ATOM     33  F   UNL     1       1.020   3.155  18.056  0.00  0.00    +0.000 F 
ATOM     34  F   UNL     1       2.774   1.965  17.499  0.00  0.00    +0.000 F 
ATOM     35  F   UNL     1       2.025   1.922  19.553  0.00  0.00    +0.000 F 
ENDBRANCH  31  32
ENDBRANCH  28  31
ENDBRANCH  23  25
ENDBRANCH   3  21
TORSDOF 7
ENDMDL
MODEL 7
REMARK VINA RESULT:      -7.9      2.736      3.220
REMARK  Name = 
REMARK  8 active torsions:
REMARK  status: ('A' for Active; 'I' for Inactive)
REMARK    1  A    between atoms: C_1  and  C_2
REMARK    2  A    between atoms: C_5  and  C_6
REMARK    3  A    between atoms: C_8  and  C_9
REMARK    4  A    between atoms: N_11  and  C_12
REMARK    5  A    between atoms: C_15  and  O_16
REMARK    6  A    between atoms: O_16  and  C_17
REMARK    7  A    between atoms: C_25  and  N_26
REMARK    8  A    between atoms: C_29  and  O_30
REMARK                            x       y       z     vdW  Elec       q    Type
REMARK                         _______ _______ _______ _____ _____    ______ ____
ROOT
ATOM      1  C   UNL     1      -0.325  12.845  21.408  0.00  0.00    +0.000 A 
ATOM      2  C   UNL     1       0.101  11.549  20.995  0.00  0.00    +0.000 A 
ATOM      3  C   UNL     1      -0.219  10.422  21.746  0.00  0.00    +0.000 A 
ATOM      4  C   UNL     1      -0.968  10.624  22.889  0.00  0.00    +0.000 A 
ATOM      5  N   UNL     1      -1.391  11.841  23.323  0.00  0.00    +0.000 NA
ATOM      6  C   UNL     1      -1.098  12.949  22.597  0.00  0.00    +0.000 A 
ENDROOT
BRANCH   1  11
ATOM      7  C   UNL     1       1.561  17.331  18.324  0.00  0.00    +0.000 C 
ATOM      8  C   UNL     1       1.046  16.159  19.100  0.00  0.00    +0.000 A 
ATOM      9  C   UNL     1      -0.197  15.619  18.813  0.00  0.00    +0.000 A 
ATOM     10  C   UNL     1      -0.671  14.582  19.608  0.00  0.00    +0.000 A 
ATOM     11  C   UNL     1       0.119  14.023  20.620  0.00  0.00    +0.000 A 
ATOM     12  C   UNL     1       1.353  14.645  20.823  0.00  0.00    +0.000 A 
ATOM     13  N   UNL     1       1.820  15.698  20.109  0.00  0.00    +0.000 NA
ENDBRANCH   1  11
BRANCH   6  14
ATOM     14  N   UNL     1      -1.579  14.161  23.077  0.00  0.00    +0.000 N 
ATOM     15  C   UNL     1      -1.011  14.745  24.288  0.00  0.00    +0.000 C 
ATOM     16  C   UNL     1      -2.197  15.216  25.116  0.00  0.00    +0.000 C 
ATOM     17  C   UNL     1      -3.306  15.458  24.106  0.00  0.00    +0.000 C 
ATOM     18  C   UNL     1      -3.000  14.501  22.941  0.00  0.00    +0.000 C 
BRANCH  17  19
ATOM     19  O   UNL     1      -4.579  15.205  24.692  0.00  0.00    +0.000 OA
ATOM     20  H   UNL     1      -5.254  15.335  24.003  0.00  0.00    +0.000 HD
ENDBRANCH  17  19
ENDBRANCH   6  14
BRANCH   3  21
ATOM     21  C   UNL     1       0.121   9.028  21.358  0.00  0.00    +0.000 C 
ATOM     22  O   UNL     1      -0.641   8.145  21.743  0.00  0.00    +0.000 OA
ATOM     23  N   UNL     1       1.296   8.831  20.646  0.00  0.00    +0.000 N 
ATOM     24  H   UNL     1       1.951   9.602  20.583  0.00  0.00    +0.000 HD
BRANCH  23  25
ATOM     25  C   UNL     1       1.760   7.581  20.159  0.00  0.00    +0.000 A 
ATOM     26  C   UNL     1       2.348   7.424  18.904  0.00  0.00    +0.000 A 
ATOM     27  C   UNL     1       2.772   6.164  18.461  0.00  0.00    +0.000 A 
ATOM     28  C   UNL     1       2.623   5.037  19.264  0.00  0.00    +0.000 A 
ATOM     29  C   UNL     1       2.020   5.178  20.511  0.00  0.00    +0.000 A 
ATOM     30  C   UNL     1       1.618   6.449  20.968  0.00  0.00    +0.000 A 
BRANCH  28  31
ATOM     31  O   UNL     1       3.018   3.870  18.687  0.00  0.00    +0.000 OA
BRANCH  31  32
ATOM     32  C   UNL     1       2.053   2.900  18.310  0.00  0.00    +0.000 C 
ATOM     33  F   UNL     1       2.419   2.122  17.272  0.00  0.00    +0.000 F 
ATOM     34  F   UNL     1       1.787   2.107  19.371  0.00  0.00    +0.000 F 
ATOM     35  F   UNL     1       0.910   3.538  17.969  0.00  0.00    +0.000 F 
ENDBRANCH  31  32
ENDBRANCH  28  31
ENDBRANCH  23  25
ENDBRANCH   3  21
TORSDOF 7
ENDMDL
MODEL 8
REMARK VINA RESULT:      -7.8      5.091     10.654
REMARK  Name = 
REMARK  8 active torsions:
REMARK  status: ('A' for Active; 'I' for Inactive)
REMARK    1  A    between atoms: C_1  and  C_2
REMARK    2  A    between atoms: C_5  and  C_6
REMARK    3  A    between atoms: C_8  and  C_9
REMARK    4  A    between atoms: N_11  and  C_12
REMARK    5  A    between atoms: C_15  and  O_16
REMARK    6  A    between atoms: O_16  and  C_17
REMARK    7  A    between atoms: C_25  and  N_26
REMARK    8  A    between atoms: C_29  and  O_30
REMARK                            x       y       z     vdW  Elec       q    Type
REMARK                         _______ _______ _______ _____ _____    ______ ____
ROOT
ATOM      1  C   UNL     1       4.057   6.074  17.428  0.00  0.00    +0.000 A 
ATOM      2  C   UNL     1       3.464   7.369  17.413  0.00  0.00    +0.000 A 
ATOM      3  C   UNL     1       2.479   7.713  18.335  0.00  0.00    +0.000 A 
ATOM      4  C   UNL     1       2.122   6.747  19.256  0.00  0.00    +0.000 A 
ATOM      5  N   UNL     1       2.657   5.499  19.305  0.00  0.00    +0.000 NA
ATOM      6  C   UNL     1       3.626   5.152  18.421  0.00  0.00    +0.000 A 
ENDROOT
BRANCH   1  11
ATOM      7  C   UNL     1       7.980   4.685  13.444  0.00  0.00    +0.000 C 
ATOM      8  C   UNL     1       6.939   5.020  14.467  0.00  0.00    +0.000 A 
ATOM      9  C   UNL     1       5.643   4.549  14.330  0.00  0.00    +0.000 A 
ATOM     10  C   UNL     1       4.690   4.946  15.259  0.00  0.00    +0.000 A 
ATOM     11  C   UNL     1       5.037   5.729  16.368  0.00  0.00    +0.000 A 
ATOM     12  C   UNL     1       6.368   6.147  16.406  0.00  0.00    +0.000 A 
ATOM     13  N   UNL     1       7.310   5.831  15.484  0.00  0.00    +0.000 NA
ENDBRANCH   1  11
BRANCH   6  14
ATOM     14  N   UNL     1       4.152   3.871  18.537  0.00  0.00    +0.000 N 
ATOM     15  C   UNL     1       3.369   2.717  18.108  0.00  0.00    +0.000 C 
ATOM     16  C   UNL     1       3.526   1.678  19.209  0.00  0.00    +0.000 C 
ATOM     17  C   UNL     1       4.847   2.016  19.878  0.00  0.00    +0.000 C 
ATOM     18  C   UNL     1       5.028   3.527  19.664  0.00  0.00    +0.000 C 
BRANCH  17  19
ATOM     19  O   UNL     1       4.811   1.667  21.258  0.00  0.00    +0.000 OA
ATOM     20  H   UNL     1       4.899   2.488  21.774  0.00  0.00    +0.000 HD
ENDBRANCH  17  19
ENDBRANCH   6  14
BRANCH   3  21
ATOM     21  C   UNL     1       1.855   9.058  18.438  0.00  0.00    +0.000 C 
ATOM     22  O   UNL     1       2.187   9.887  17.596  0.00  0.00    +0.000 OA
ATOM     23  N   UNL     1       0.996   9.284  19.506  0.00  0.00    +0.000 N 
ATOM     24  H   UNL     1       0.977   8.602  20.254  0.00  0.00    +0.000 HD
BRANCH  23  25
ATOM     25  C   UNL     1       0.283  10.488  19.742  0.00  0.00    +0.000 A 
ATOM     26  C   UNL     1       0.692  11.447  20.669  0.00  0.00    +0.000 A 
ATOM     27  C   UNL     1      -0.059  12.610  20.880  0.00  0.00    +0.000 A 
ATOM     28  C   UNL     1      -1.232  12.843  20.166  0.00  0.00    +0.000 A 
ATOM     29  C   UNL     1      -1.661  11.884  19.253  0.00  0.00    +0.000 A 
ATOM     30  C   UNL     1      -0.892  10.727  19.021  0.00  0.00    +0.000 A 
BRANCH  28  31
ATOM     31  O   UNL     1      -1.894  13.979  20.514  0.00  0.00    +0.000 OA
BRANCH  31  32
ATOM     32  C   UNL     1      -3.012  13.912  21.385  0.00  0.00    +0.000 C 
ATOM     33  F   UNL     1      -3.122  12.754  22.067  0.00  0.00    +0.000 F 
ATOM     34  F   UNL     1      -2.944  14.929  22.271  0.00  0.00    +0.000 F 
ATOM     35  F   UNL     1      -4.139  14.071  20.653  0.00  0.00    +0.000 F 
ENDBRANCH  31  32
ENDBRANCH  28  31
ENDBRANCH  23  25
ENDBRANCH   3  21
TORSDOF 7
ENDMDL
MODEL 9
REMARK VINA RESULT:      -7.8      4.710     10.525
REMARK  Name = 
REMARK  8 active torsions:
REMARK  status: ('A' for Active; 'I' for Inactive)
REMARK    1  A    between atoms: C_1  and  C_2
REMARK    2  A    between atoms: C_5  and  C_6
REMARK    3  A    between atoms: C_8  and  C_9
REMARK    4  A    between atoms: N_11  and  C_12
REMARK    5  A    between atoms: C_15  and  O_16
REMARK    6  A    between atoms: O_16  and  C_17
REMARK    7  A    between atoms: C_25  and  N_26
REMARK    8  A    between atoms: C_29  and  O_30
REMARK                            x       y       z     vdW  Elec       q    Type
REMARK                         _______ _______ _______ _____ _____    ______ ____
ROOT
ATOM      1  C   UNL     1       4.043   6.075  17.450  0.00  0.00    +0.000 A 
ATOM      2  C   UNL     1       3.463   7.376  17.435  0.00  0.00    +0.000 A 
ATOM      3  C   UNL     1       2.482   7.729  18.357  0.00  0.00    +0.000 A 
ATOM      4  C   UNL     1       2.116   6.768  19.278  0.00  0.00    +0.000 A 
ATOM      5  N   UNL     1       2.638   5.513  19.327  0.00  0.00    +0.000 NA
ATOM      6  C   UNL     1       3.603   5.157  18.443  0.00  0.00    +0.000 A 
ENDROOT
BRANCH   1  11
ATOM      7  C   UNL     1       7.953   4.654  13.464  0.00  0.00    +0.000 C 
ATOM      8  C   UNL     1       6.916   4.997  14.488  0.00  0.00    +0.000 A 
ATOM      9  C   UNL     1       5.626   4.502  14.373  0.00  0.00    +0.000 A 
ATOM     10  C   UNL     1       4.675   4.907  15.302  0.00  0.00    +0.000 A 
ATOM     11  C   UNL     1       5.019   5.720  16.389  0.00  0.00    +0.000 A 
ATOM     12  C   UNL     1       6.344   6.160  16.405  0.00  0.00    +0.000 A 
ATOM     13  N   UNL     1       7.283   5.837  15.482  0.00  0.00    +0.000 NA
ENDBRANCH   1  11
BRANCH   6  14
ATOM     14  N   UNL     1       4.117   3.871  18.558  0.00  0.00    +0.000 N 
ATOM     15  C   UNL     1       3.316   2.724  18.145  0.00  0.00    +0.000 C 
ATOM     16  C   UNL     1       3.475   1.689  19.249  0.00  0.00    +0.000 C 
ATOM     17  C   UNL     1       4.808   2.015  19.899  0.00  0.00    +0.000 C 
ATOM     18  C   UNL     1       5.003   3.523  19.675  0.00  0.00    +0.000 C 
BRANCH  17  19
ATOM     19  O   UNL     1       4.786   1.673  21.282  0.00  0.00    +0.000 OA
ATOM     20  H   UNL     1       4.160   2.272  21.725  0.00  0.00    +0.000 HD
ENDBRANCH  17  19
ENDBRANCH   6  14
BRANCH   3  21
ATOM     21  C   UNL     1       1.871   9.081  18.461  0.00  0.00    +0.000 C 
ATOM     22  O   UNL     1       2.130   9.875  17.561  0.00  0.00    +0.000 OA
ATOM     23  N   UNL     1       1.110   9.353  19.590  0.00  0.00    +0.000 N 
ATOM     24  H   UNL     1       1.155   8.701  20.364  0.00  0.00    +0.000 HD
BRANCH  23  25
ATOM     25  C   UNL     1       0.421  10.569  19.839  0.00  0.00    +0.000 A 
ATOM     26  C   UNL     1      -0.820  10.871  19.278  0.00  0.00    +0.000 A 
ATOM     27  C   UNL     1      -1.449  12.094  19.540  0.00  0.00    +0.000 A 
ATOM     28  C   UNL     1      -0.857  13.039  20.373  0.00  0.00    +0.000 A 
ATOM     29  C   UNL     1       0.391  12.757  20.924  0.00  0.00    +0.000 A 
ATOM     30  C   UNL     1       1.012  11.517  20.682  0.00  0.00    +0.000 A 
BRANCH  28  31
ATOM     31  O   UNL     1      -1.546  14.206  20.491  0.00  0.00    +0.000 OA
BRANCH  31  32
ATOM     32  C   UNL     1      -1.003  15.408  19.969  0.00  0.00    +0.000 C 
ATOM     33  F   UNL     1      -0.020  15.950  20.716  0.00  0.00    +0.000 F 
ATOM     34  F   UNL     1      -0.522  15.173  18.728  0.00  0.00    +0.000 F 
ATOM     35  F   UNL     1      -1.996  16.321  19.865  0.00  0.00    +0.000 F 
ENDBRANCH  31  32
ENDBRANCH  28  31
ENDBRANCH  23  25
ENDBRANCH   3  21
TORSDOF 7
ENDMDL
