MODEL 1
REMARK VINA RESULT:      -9.1      0.000      0.000
REMARK  Name = 
REMARK  8 active torsions:
REMARK  status: ('A' for Active; 'I' for Inactive)
REMARK    1  A    between atoms: C_1  and  C_2
REMARK    2  A    between atoms: C_6  and  N_7
REMARK    3  A    between atoms: C_8  and  C_10
REMARK    4  A    between atoms: C_10  and  C_11
REMARK    5  A    between atoms: C_11  and  C_12
REMARK    6  A    between atoms: C_11  and  S_13
REMARK    7  A    between atoms: S_13  and  C_16
REMARK    8  A    between atoms: C_27  and  C_28
REMARK                            x       y       z     vdW  Elec       q    Type
REMARK                         _______ _______ _______ _____ _____    ______ ____
ROOT
ATOM      1  C   UNL     1       2.369   2.685  20.120  0.00  0.00    +0.000 C 
ATOM      2  C   UNL     1       1.415   3.059  18.982  0.00  0.00    +0.000 C 
ENDROOT
BRANCH   1   3
ATOM      3  S   UNL     1       3.937   2.144  19.432  0.00  0.00    +0.000 S 
ATOM      4  O   UNL     1       4.866   1.894  20.517  0.00  0.00    +0.000 OA
ATOM      5  O   UNL     1       3.651   1.110  18.450  0.00  0.00    +0.000 OA
BRANCH   3   6
ATOM      6  C   UNL     1       4.592   3.543  18.546  0.00  0.00    +0.000 A 
ATOM      7  C   UNL     1       4.042   3.891  17.308  0.00  0.00    +0.000 A 
ATOM      8  C   UNL     1       4.550   4.991  16.615  0.00  0.00    +0.000 A 
ATOM      9  C   UNL     1       5.605   5.731  17.154  0.00  0.00    +0.000 A 
ATOM     10  C   UNL     1       6.125   5.395  18.407  0.00  0.00    +0.000 A 
ATOM     11  C   UNL     1       5.615   4.309  19.117  0.00  0.00    +0.000 A 
ATOM     12  N   UNL     1       7.150   6.162  18.963  0.00  0.00    +0.000 N 
ATOM     13  C   UNL     1       7.761   7.161  18.257  0.00  0.00    +0.000 C 
ATOM     14  O   UNL     1       8.664   7.833  18.750  0.00  0.00    +0.000 OA
ATOM     15  C   UNL     1       7.309   7.299  16.804  0.00  0.00    +0.000 C 
ATOM     16  O   UNL     1       6.034   6.803  16.421  0.00  0.00    +0.000 OA
ATOM     17  H   UNL     1       7.481   5.999  19.906  0.00  0.00    +0.000 HD
ENDBRANCH   3   6
ENDBRANCH   1   3
BRANCH   1  18
ATOM     18  C   UNL     1       2.559   3.867  21.081  0.00  0.00    +0.000 C 
BRANCH  18  20
ATOM     19  N   UNL     1       2.628   6.138  20.193  0.00  0.00    +0.000 N 
ATOM     20  C   UNL     1       1.814   5.075  20.550  0.00  0.00    +0.000 C 
ATOM     21  O   UNL     1       0.589   5.026  20.471  0.00  0.00    +0.000 OA
ATOM     22  H   UNL     1       3.594   6.085  20.481  0.00  0.00    +0.000 HD
BRANCH  19  28
ATOM     23  C   UNL     1       0.329  10.625  20.300  0.00  0.00    +0.000 C 
ATOM     24  C   UNL     1       1.097   9.528  19.604  0.00  0.00    +0.000 A 
ATOM     25  C   UNL     1       1.380   9.694  18.242  0.00  0.00    +0.000 A 
ATOM     26  C   UNL     1       2.089   8.724  17.551  0.00  0.00    +0.000 A 
ATOM     27  C   UNL     1       2.502   7.567  18.207  0.00  0.00    +0.000 A 
ATOM     28  C   UNL     1       2.212   7.342  19.560  0.00  0.00    +0.000 A 
ATOM     29  C   UNL     1       1.517   8.349  20.284  0.00  0.00    +0.000 A 
ATOM     30  C   UNL     1       1.156   8.221  21.745  0.00  0.00    +0.000 C 
ENDBRANCH  19  28
ENDBRANCH  18  20
ENDBRANCH   1  18
TORSDOF 5
ENDMDL
MODEL 2
REMARK VINA RESULT:      -9.0      2.291      3.258
REMARK  Name = 
REMARK  8 active torsions:
REMARK  status: ('A' for Active; 'I' for Inactive)
REMARK    1  A    between atoms: C_1  and  C_2
REMARK    2  A    between atoms: C_6  and  N_7
REMARK    3  A    between atoms: C_8  and  C_10
REMARK    4  A    between atoms: C_10  and  C_11
REMARK    5  A    between atoms: C_11  and  C_12
REMARK    6  A    between atoms: C_11  and  S_13
REMARK    7  A    between atoms: S_13  and  C_16
REMARK    8  A    between atoms: C_27  and  C_28
REMARK                            x       y       z     vdW  Elec       q    Type
REMARK                         _______ _______ _______ _____ _____    ______ ____
ROOT
ATOM      1  C   UNL     1       2.733   4.110  19.031  0.00  0.00    +0.000 C 
ATOM      2  C   UNL     1       2.294   4.758  17.715  0.00  0.00    +0.000 C 
ENDROOT
BRANCH   1   3
ATOM      3  S   UNL     1       4.006   2.887  18.700  0.00  0.00    +0.000 S 
ATOM      4  O   UNL     1       4.776   2.671  19.910  0.00  0.00    +0.000 OA
ATOM      5  O   UNL     1       3.375   1.771  18.015  0.00  0.00    +0.000 OA
BRANCH   3   6
ATOM      6  C   UNL     1       5.127   3.647  17.543  0.00  0.00    +0.000 A 
ATOM      7  C   UNL     1       6.008   4.637  17.989  0.00  0.00    +0.000 A 
ATOM      8  C   UNL     1       6.892   5.228  17.085  0.00  0.00    +0.000 A 
ATOM      9  C   UNL     1       6.887   4.838  15.745  0.00  0.00    +0.000 A 
ATOM     10  C   UNL     1       6.026   3.823  15.315  0.00  0.00    +0.000 A 
ATOM     11  C   UNL     1       5.150   3.212  16.213  0.00  0.00    +0.000 A 
ATOM     12  N   UNL     1       6.053   3.404  13.985  0.00  0.00    +0.000 N 
ATOM     13  C   UNL     1       6.808   4.051  13.045  0.00  0.00    +0.000 C 
ATOM     14  O   UNL     1       6.828   3.679  11.875  0.00  0.00    +0.000 OA
ATOM     15  C   UNL     1       7.524   5.306  13.541  0.00  0.00    +0.000 C 
ATOM     16  O   UNL     1       7.794   5.453  14.927  0.00  0.00    +0.000 OA
ATOM     17  H   UNL     1       5.510   2.611  13.669  0.00  0.00    +0.000 HD
ENDBRANCH   3   6
ENDBRANCH   1   3
BRANCH   1  18
ATOM     18  C   UNL     1       3.224   5.173  20.023  0.00  0.00    +0.000 C 
BRANCH  18  20
ATOM     19  N   UNL     1       2.324   7.417  20.347  0.00  0.00    +0.000 N 
ATOM     20  C   UNL     1       2.065   6.058  20.432  0.00  0.00    +0.000 C 
ATOM     21  O   UNL     1       1.015   5.529  20.789  0.00  0.00    +0.000 OA
ATOM     22  H   UNL     1       3.286   7.686  20.205  0.00  0.00    +0.000 HD
BRANCH  19  28
ATOM     23  C   UNL     1      -0.423  11.292  18.652  0.00  0.00    +0.000 C 
ATOM     24  C   UNL     1       0.045  10.353  19.737  0.00  0.00    +0.000 A 
ATOM     25  C   UNL     1      -0.446  10.557  21.033  0.00  0.00    +0.000 A 
ATOM     26  C   UNL     1      -0.058   9.723  22.069  0.00  0.00    +0.000 A 
ATOM     27  C   UNL     1       0.843   8.689  21.827  0.00  0.00    +0.000 A 
ATOM     28  C   UNL     1       1.388   8.468  20.553  0.00  0.00    +0.000 A 
ATOM     29  C   UNL     1       0.966   9.297  19.479  0.00  0.00    +0.000 A 
ATOM     30  C   UNL     1       1.477   9.148  18.066  0.00  0.00    +0.000 C 
ENDBRANCH  19  28
ENDBRANCH  18  20
ENDBRANCH   1  18
TORSDOF 5
ENDMDL
MODEL 3
REMARK VINA RESULT:      -9.0      4.520      8.524
REMARK  Name = 
REMARK  8 active torsions:
REMARK  status: ('A' for Active; 'I' for Inactive)
REMARK    1  A    between atoms: C_1  and  C_2
REMARK    2  A    between atoms: C_6  and  N_7
REMARK    3  A    between atoms: C_8  and  C_10
REMARK    4  A    between atoms: C_10  and  C_11
REMARK    5  A    between atoms: C_11  and  C_12
REMARK    6  A    between atoms: C_11  and  S_13
REMARK    7  A    between atoms: S_13  and  C_16
REMARK    8  A    between atoms: C_27  and  C_28
REMARK                            x       y       z     vdW  Elec       q    Type
REMARK                         _______ _______ _______ _____ _____    ______ ____
ROOT
ATOM      1  C   UNL     1       0.141   9.385  21.539  0.00  0.00    +0.000 C 
ATOM      2  C   UNL     1      -0.508   9.071  22.890  0.00  0.00    +0.000 C 
ENDROOT
BRANCH   1   3
ATOM      3  S   UNL     1       0.047  11.152  21.229  0.00  0.00    +0.000 S 
ATOM      4  O   UNL     1      -0.417  11.816  22.432  0.00  0.00    +0.000 OA
ATOM      5  O   UNL     1       1.293  11.553  20.595  0.00  0.00    +0.000 OA
BRANCH   3   6
ATOM      6  C   UNL     1      -1.248  11.370  20.026  0.00  0.00    +0.000 A 
ATOM      7  C   UNL     1      -2.404  12.072  20.381  0.00  0.00    +0.000 A 
ATOM      8  C   UNL     1      -3.417  12.250  19.437  0.00  0.00    +0.000 A 
ATOM      9  C   UNL     1      -3.277  11.723  18.152  0.00  0.00    +0.000 A 
ATOM     10  C   UNL     1      -2.103  11.052  17.797  0.00  0.00    +0.000 A 
ATOM     11  C   UNL     1      -1.076  10.882  18.725  0.00  0.00    +0.000 A 
ATOM     12  N   UNL     1      -1.946  10.564  16.499  0.00  0.00    +0.000 N 
ATOM     13  C   UNL     1      -2.969  10.601  15.591  0.00  0.00    +0.000 C 
ATOM     14  O   UNL     1      -2.827  10.169  14.450  0.00  0.00    +0.000 OA
ATOM     15  C   UNL     1      -4.299  11.119  16.134  0.00  0.00    +0.000 C 
ATOM     16  O   UNL     1      -4.306  11.955  17.283  0.00  0.00    +0.000 OA
ATOM     17  H   UNL     1      -1.073  10.158  16.188  0.00  0.00    +0.000 HD
ENDBRANCH   3   6
ENDBRANCH   1   3
BRANCH   1  18
ATOM     18  C   UNL     1       1.592   8.889  21.505  0.00  0.00    +0.000 C 
BRANCH  18  20
ATOM     19  N   UNL     1       2.412   6.861  20.424  0.00  0.00    +0.000 N 
ATOM     20  C   UNL     1       1.829   8.104  20.231  0.00  0.00    +0.000 C 
ATOM     21  O   UNL     1       1.495   8.602  19.159  0.00  0.00    +0.000 OA
ATOM     22  H   UNL     1       2.784   6.674  21.343  0.00  0.00    +0.000 HD
BRANCH  19  28
ATOM     23  C   UNL     1       1.553   2.307  18.435  0.00  0.00    +0.000 C 
ATOM     24  C   UNL     1       2.223   3.659  18.450  0.00  0.00    +0.000 A 
ATOM     25  C   UNL     1       3.152   3.937  17.438  0.00  0.00    +0.000 A 
ATOM     26  C   UNL     1       3.794   5.165  17.396  0.00  0.00    +0.000 A 
ATOM     27  C   UNL     1       3.532   6.119  18.376  0.00  0.00    +0.000 A 
ATOM     28  C   UNL     1       2.637   5.872  19.426  0.00  0.00    +0.000 A 
ATOM     29  C   UNL     1       1.948   4.630  19.456  0.00  0.00    +0.000 A 
ATOM     30  C   UNL     1       0.956   4.256  20.532  0.00  0.00    +0.000 C 
ENDBRANCH  19  28
ENDBRANCH  18  20
ENDBRANCH   1  18
TORSDOF 5
ENDMDL
MODEL 4
REMARK VINA RESULT:      -8.8      3.641      7.262
REMARK  Name = 
REMARK  8 active torsions:
REMARK  status: ('A' for Active; 'I' for Inactive)
REMARK    1  A    between atoms: C_1  and  C_2
REMARK    2  A    between atoms: C_6  and  N_7
REMARK    3  A    between atoms: C_8  and  C_10
REMARK    4  A    between atoms: C_10  and  C_11
REMARK    5  A    between atoms: C_11  and  C_12
REMARK    6  A    between atoms: C_11  and  S_13
REMARK    7  A    between atoms: S_13  and  C_16
REMARK    8  A    between atoms: C_27  and  C_28
REMARK                            x       y       z     vdW  Elec       q    Type
REMARK                         _______ _______ _______ _____ _____    ______ ____
ROOT
ATOM      1  C   UNL     1       6.893   6.994  17.953  0.00  0.00    +0.000 C 
ATOM      2  C   UNL     1       5.750   7.224  16.959  0.00  0.00    +0.000 C 
ENDROOT
BRANCH   1   3
ATOM      3  S   UNL     1       7.180   5.231  18.135  0.00  0.00    +0.000 S 
ATOM      4  O   UNL     1       7.877   4.745  16.959  0.00  0.00    +0.000 OA
ATOM      5  O   UNL     1       7.728   5.010  19.464  0.00  0.00    +0.000 OA
BRANCH   3   6
ATOM      6  C   UNL     1       5.573   4.465  18.096  0.00  0.00    +0.000 A 
ATOM      7  C   UNL     1       5.024   4.082  16.868  0.00  0.00    +0.000 A 
ATOM      8  C   UNL     1       3.767   3.475  16.836  0.00  0.00    +0.000 A 
ATOM      9  C   UNL     1       3.063   3.262  18.023  0.00  0.00    +0.000 A 
ATOM     10  C   UNL     1       3.634   3.618  19.248  0.00  0.00    +0.000 A 
ATOM     11  C   UNL     1       4.897   4.209  19.295  0.00  0.00    +0.000 A 
ATOM     12  N   UNL     1       2.948   3.365  20.436  0.00  0.00    +0.000 N 
ATOM     13  C   UNL     1       1.662   2.897  20.435  0.00  0.00    +0.000 C 
ATOM     14  O   UNL     1       1.061   2.677  21.483  0.00  0.00    +0.000 OA
ATOM     15  C   UNL     1       1.019   2.774  19.055  0.00  0.00    +0.000 C 
ATOM     16  O   UNL     1       1.847   2.648  17.908  0.00  0.00    +0.000 OA
ATOM     17  H   UNL     1       3.375   3.526  21.339  0.00  0.00    +0.000 HD
ENDBRANCH   3   6
ENDBRANCH   1   3
BRANCH   1  18
ATOM     18  C   UNL     1       8.164   7.723  17.498  0.00  0.00    +0.000 C 
BRANCH  18  20
ATOM     19  N   UNL     1       9.152   9.296  19.080  0.00  0.00    +0.000 N 
ATOM     20  C   UNL     1       8.191   9.114  18.097  0.00  0.00    +0.000 C 
ATOM     21  O   UNL     1       7.395   9.953  17.681  0.00  0.00    +0.000 OA
ATOM     22  H   UNL     1       9.606   8.465  19.428  0.00  0.00    +0.000 HD
BRANCH  19  28
ATOM     23  C   UNL     1      11.478  13.770  19.157  0.00  0.00    +0.000 C 
ATOM     24  C   UNL     1      10.604  12.702  19.768  0.00  0.00    +0.000 A 
ATOM     25  C   UNL     1      10.117  12.921  21.064  0.00  0.00    +0.000 A 
ATOM     26  C   UNL     1       9.304  11.979  21.674  0.00  0.00    +0.000 A 
ATOM     27  C   UNL     1       8.985  10.800  21.006  0.00  0.00    +0.000 A 
ATOM     28  C   UNL     1       9.477  10.523  19.723  0.00  0.00    +0.000 A 
ATOM     29  C   UNL     1      10.282  11.499  19.077  0.00  0.00    +0.000 A 
ATOM     30  C   UNL     1      10.861  11.315  17.693  0.00  0.00    +0.000 C 
ENDBRANCH  19  28
ENDBRANCH  18  20
ENDBRANCH   1  18
TORSDOF 5
ENDMDL
MODEL 5
REMARK VINA RESULT:      -8.7      3.467      6.908
REMARK  Name = 
REMARK  8 active torsions:
REMARK  status: ('A' for Active; 'I' for Inactive)
REMARK    1  A    between atoms: C_1  and  C_2
REMARK    2  A    between atoms: C_6  and  N_7
REMARK    3  A    between atoms: C_8  and  C_10
REMARK    4  A    between atoms: C_10  and  C_11
REMARK    5  A    between atoms: C_11  and  C_12
REMARK    6  A    between atoms: C_11  and  S_13
REMARK    7  A    between atoms: S_13  and  C_16
REMARK    8  A    between atoms: C_27  and  C_28
REMARK                            x       y       z     vdW  Elec       q    Type
REMARK                         _______ _______ _______ _____ _____    ______ ____
ROOT
ATOM      1  C   UNL     1       6.400   6.683  17.655  0.00  0.00    +0.000 C 
ATOM      2  C   UNL     1       5.055   7.080  17.039  0.00  0.00    +0.000 C 
ENDROOT
BRANCH   1   3
ATOM      3  S   UNL     1       6.626   4.908  17.500  0.00  0.00    +0.000 S 
ATOM      4  O   UNL     1       6.899   4.589  16.112  0.00  0.00    +0.000 OA
ATOM      5  O   UNL     1       7.541   4.489  18.549  0.00  0.00    +0.000 OA
BRANCH   3   6
ATOM      6  C   UNL     1       5.042   4.178  17.862  0.00  0.00    +0.000 A 
ATOM      7  C   UNL     1       4.200   3.808  16.809  0.00  0.00    +0.000 A 
ATOM      8  C   UNL     1       2.961   3.229  17.091  0.00  0.00    +0.000 A 
ATOM      9  C   UNL     1       2.567   3.031  18.416  0.00  0.00    +0.000 A 
ATOM     10  C   UNL     1       3.430   3.373  19.461  0.00  0.00    +0.000 A 
ATOM     11  C   UNL     1       4.678   3.936  19.192  0.00  0.00    +0.000 A 
ATOM     12  N   UNL     1       3.053   3.134  20.782  0.00  0.00    +0.000 N 
ATOM     13  C   UNL     1       1.797   2.695  21.100  0.00  0.00    +0.000 C 
ATOM     14  O   UNL     1       1.468   2.487  22.265  0.00  0.00    +0.000 OA
ATOM     15  C   UNL     1       0.830   2.587  19.922  0.00  0.00    +0.000 C 
ATOM     16  O   UNL     1       1.347   2.444  18.607  0.00  0.00    +0.000 OA
ATOM     17  H   UNL     1       3.693   3.285  21.551  0.00  0.00    +0.000 HD
ENDBRANCH   3   6
ENDBRANCH   1   3
BRANCH   1  18
ATOM     18  C   UNL     1       7.550   7.452  16.992  0.00  0.00    +0.000 C 
BRANCH  18  20
ATOM     19  N   UNL     1       8.382   9.639  17.683  0.00  0.00    +0.000 N 
ATOM     20  C   UNL     1       8.254   8.303  18.029  0.00  0.00    +0.000 C 
ATOM     21  O   UNL     1       8.641   7.771  19.067  0.00  0.00    +0.000 OA
ATOM     22  H   UNL     1       8.170   9.881  16.727  0.00  0.00    +0.000 HD
BRANCH  19  28
ATOM     23  C   UNL     1       8.909  14.521  18.833  0.00  0.00    +0.000 C 
ATOM     24  C   UNL     1       9.150  13.052  19.079  0.00  0.00    +0.000 A 
ATOM     25  C   UNL     1       9.956  12.697  20.168  0.00  0.00    +0.000 A 
ATOM     26  C   UNL     1      10.207  11.363  20.449  0.00  0.00    +0.000 A 
ATOM     27  C   UNL     1       9.674  10.370  19.631  0.00  0.00    +0.000 A 
ATOM     28  C   UNL     1       8.890  10.679  18.510  0.00  0.00    +0.000 A 
ATOM     29  C   UNL     1       8.599  12.042  18.238  0.00  0.00    +0.000 A 
ATOM     30  C   UNL     1       7.760  12.494  17.065  0.00  0.00    +0.000 C 
ENDBRANCH  19  28
ENDBRANCH  18  20
ENDBRANCH   1  18
TORSDOF 5
ENDMDL
MODEL 6
REMARK VINA RESULT:      -8.5      2.485      3.394
REMARK  Name = 
REMARK  8 active torsions:
REMARK  status: ('A' for Active; 'I' for Inactive)
REMARK    1  A    between atoms: C_1  and  C_2
REMARK    2  A    between atoms: C_6  and  N_7
REMARK    3  A    between atoms: C_8  and  C_10
REMARK    4  A    between atoms: C_10  and  C_11
REMARK    5  A    between atoms: C_11  and  C_12
REMARK    6  A    between atoms: C_11  and  S_13
REMARK    7  A    between atoms: S_13  and  C_16
REMARK    8  A    between atoms: C_27  and  C_28
REMARK                            x       y       z     vdW  Elec       q    Type
REMARK                         _______ _______ _______ _____ _____    ______ ____
ROOT
ATOM      1  C   UNL     1       3.245   5.100  19.348  0.00  0.00    +0.000 C 
ATOM      2  C   UNL     1       2.299   4.723  20.492  0.00  0.00    +0.000 C 
ENDROOT
BRANCH   1   3
ATOM      3  S   UNL     1       4.146   3.641  18.814  0.00  0.00    +0.000 S 
ATOM      4  O   UNL     1       4.996   3.190  19.900  0.00  0.00    +0.000 OA
ATOM      5  O   UNL     1       3.190   2.735  18.198  0.00  0.00    +0.000 OA
BRANCH   3   6
ATOM      6  C   UNL     1       5.252   4.190  17.530  0.00  0.00    +0.000 A 
ATOM      7  C   UNL     1       6.184   5.195  17.809  0.00  0.00    +0.000 A 
ATOM      8  C   UNL     1       7.056   5.621  16.806  0.00  0.00    +0.000 A 
ATOM      9  C   UNL     1       6.989   5.052  15.533  0.00  0.00    +0.000 A 
ATOM     10  C   UNL     1       6.076   4.025  15.273  0.00  0.00    +0.000 A 
ATOM     11  C   UNL     1       5.212   3.578  16.272  0.00  0.00    +0.000 A 
ATOM     12  N   UNL     1       6.041   3.428  14.013  0.00  0.00    +0.000 N 
ATOM     13  C   UNL     1       6.784   3.910  12.970  0.00  0.00    +0.000 C 
ATOM     14  O   UNL     1       6.749   3.383  11.862  0.00  0.00    +0.000 OA
ATOM     15  C   UNL     1       7.563   5.191  13.267  0.00  0.00    +0.000 C 
ATOM     16  O   UNL     1       7.888   5.514  14.611  0.00  0.00    +0.000 OA
ATOM     17  H   UNL     1       5.458   2.623  13.825  0.00  0.00    +0.000 HD
ENDBRANCH   3   6
ENDBRANCH   1   3
BRANCH   1  18
ATOM     18  C   UNL     1       2.468   5.733  18.186  0.00  0.00    +0.000 C 
BRANCH  18  20
ATOM     19  N   UNL     1       1.519   7.922  18.693  0.00  0.00    +0.000 N 
ATOM     20  C   UNL     1       2.632   7.238  18.229  0.00  0.00    +0.000 C 
ATOM     21  O   UNL     1       3.700   7.728  17.869  0.00  0.00    +0.000 OA
ATOM     22  H   UNL     1       0.666   7.391  18.781  0.00  0.00    +0.000 HD
BRANCH  19  28
ATOM     23  C   UNL     1       0.053  11.821  21.536  0.00  0.00    +0.000 C 
ATOM     24  C   UNL     1       0.727  11.222  20.326  0.00  0.00    +0.000 A 
ATOM     25  C   UNL     1       1.267  12.102  19.379  0.00  0.00    +0.000 A 
ATOM     26  C   UNL     1       1.904  11.611  18.250  0.00  0.00    +0.000 A 
ATOM     27  C   UNL     1       1.989  10.237  18.044  0.00  0.00    +0.000 A 
ATOM     28  C   UNL     1       1.434   9.319  18.947  0.00  0.00    +0.000 A 
ATOM     29  C   UNL     1       0.811   9.814  20.124  0.00  0.00    +0.000 A 
ATOM     30  C   UNL     1       0.186   8.922  21.171  0.00  0.00    +0.000 C 
ENDBRANCH  19  28
ENDBRANCH  18  20
ENDBRANCH   1  18
TORSDOF 5
ENDMDL
MODEL 7
REMARK VINA RESULT:      -8.3      2.716      3.784
REMARK  Name = 
REMARK  8 active torsions:
REMARK  status: ('A' for Active; 'I' for Inactive)
REMARK    1  A    between atoms: C_1  and  C_2
REMARK    2  A    between atoms: C_6  and  N_7
REMARK    3  A    between atoms: C_8  and  C_10
REMARK    4  A    between atoms: C_10  and  C_11
REMARK    5  A    between atoms: C_11  and  C_12
REMARK    6  A    between atoms: C_11  and  S_13
REMARK    7  A    between atoms: S_13  and  C_16
REMARK    8  A    between atoms: C_27  and  C_28
REMARK                            x       y       z     vdW  Elec       q    Type
REMARK                         _______ _______ _______ _____ _____    ______ ____
ROOT
ATOM      1  C   UNL     1       2.819   5.883  18.671  0.00  0.00    +0.000 C 
ATOM      2  C   UNL     1       1.727   5.304  17.765  0.00  0.00    +0.000 C 
ENDROOT
BRANCH   1   3
ATOM      3  S   UNL     1       4.111   4.658  18.905  0.00  0.00    +0.000 S 
ATOM      4  O   UNL     1       4.874   5.001  20.090  0.00  0.00    +0.000 OA
ATOM      5  O   UNL     1       3.501   3.345  18.773  0.00  0.00    +0.000 OA
BRANCH   3   6
ATOM      6  C   UNL     1       5.231   4.857  17.534  0.00  0.00    +0.000 A 
ATOM      7  C   UNL     1       6.320   5.726  17.658  0.00  0.00    +0.000 A 
ATOM      8  C   UNL     1       7.202   5.878  16.586  0.00  0.00    +0.000 A 
ATOM      9  C   UNL     1       6.990   5.173  15.400  0.00  0.00    +0.000 A 
ATOM     10  C   UNL     1       5.917   4.282  15.298  0.00  0.00    +0.000 A 
ATOM     11  C   UNL     1       5.039   4.108  16.368  0.00  0.00    +0.000 A 
ATOM     12  N   UNL     1       5.732   3.546  14.128  0.00  0.00    +0.000 N 
ATOM     13  C   UNL     1       6.495   3.769  13.013  0.00  0.00    +0.000 C 
ATOM     14  O   UNL     1       6.328   3.120  11.984  0.00  0.00    +0.000 OA
ATOM     15  C   UNL     1       7.477   4.934  13.122  0.00  0.00    +0.000 C 
ATOM     16  O   UNL     1       7.908   5.365  14.405  0.00  0.00    +0.000 OA
ATOM     17  H   UNL     1       5.022   2.828  14.060  0.00  0.00    +0.000 HD
ENDBRANCH   3   6
ENDBRANCH   1   3
BRANCH   1  18
ATOM     18  C   UNL     1       3.381   7.183  18.080  0.00  0.00    +0.000 C 
BRANCH  18  20
ATOM     19  N   UNL     1       1.705   8.397  19.370  0.00  0.00    +0.000 N 
ATOM     20  C   UNL     1       2.322   8.264  18.136  0.00  0.00    +0.000 C 
ATOM     21  O   UNL     1       2.097   8.925  17.125  0.00  0.00    +0.000 OA
ATOM     22  H   UNL     1       1.877   7.666  20.044  0.00  0.00    +0.000 HD
BRANCH  19  28
ATOM     23  C   UNL     1      -0.797  11.052  22.853  0.00  0.00    +0.000 C 
ATOM     24  C   UNL     1      -0.454  10.699  21.426  0.00  0.00    +0.000 A 
ATOM     25  C   UNL     1      -1.133  11.378  20.406  0.00  0.00    +0.000 A 
ATOM     26  C   UNL     1      -0.855  11.102  19.076  0.00  0.00    +0.000 A 
ATOM     27  C   UNL     1       0.087  10.130  18.752  0.00  0.00    +0.000 A 
ATOM     28  C   UNL     1       0.766   9.401  19.739  0.00  0.00    +0.000 A 
ATOM     29  C   UNL     1       0.513   9.704  21.103  0.00  0.00    +0.000 A 
ATOM     30  C   UNL     1       1.189   8.992  22.251  0.00  0.00    +0.000 C 
ENDBRANCH  19  28
ENDBRANCH  18  20
ENDBRANCH   1  18
TORSDOF 5
ENDMDL
MODEL 8
REMARK VINA RESULT:      -8.3      0.882      1.101
REMARK  Name = 
REMARK  8 active torsions:
REMARK  status: ('A' for Active; 'I' for Inactive)
REMARK    1  A    between atoms: C_1  and  C_2
REMARK    2  A    between atoms: C_6  and  N_7
REMARK    3  A    between atoms: C_8  and  C_10
REMARK    4  A    between atoms: C_10  and  C_11
REMARK    5  A    between atoms: C_11  and  C_12
REMARK    6  A    between atoms: C_11  and  S_13
REMARK    7  A    between atoms: S_13  and  C_16
REMARK    8  A    between atoms: C_27  and  C_28
REMARK                            x       y       z     vdW  Elec       q    Type
REMARK                         _______ _______ _______ _____ _____    ______ ____
ROOT
ATOM      1  C   UNL     1       2.761   2.939  20.466  0.00  0.00    +0.000 C 
ATOM      2  C   UNL     1       2.531   2.160  21.765  0.00  0.00    +0.000 C 
ENDROOT
BRANCH   1   3
ATOM      3  S   UNL     1       4.107   2.184  19.547  0.00  0.00    +0.000 S 
ATOM      4  O   UNL     1       5.151   1.798  20.476  0.00  0.00    +0.000 OA
ATOM      5  O   UNL     1       3.524   1.208  18.640  0.00  0.00    +0.000 OA
BRANCH   3   6
ATOM      6  C   UNL     1       4.805   3.480  18.545  0.00  0.00    +0.000 A 
ATOM      7  C   UNL     1       4.423   3.594  17.205  0.00  0.00    +0.000 A 
ATOM      8  C   UNL     1       4.964   4.614  16.420  0.00  0.00    +0.000 A 
ATOM      9  C   UNL     1       5.885   5.506  16.971  0.00  0.00    +0.000 A 
ATOM     10  C   UNL     1       6.235   5.405  18.321  0.00  0.00    +0.000 A 
ATOM     11  C   UNL     1       5.688   4.401  19.120  0.00  0.00    +0.000 A 
ATOM     12  N   UNL     1       7.123   6.325  18.881  0.00  0.00    +0.000 N 
ATOM     13  C   UNL     1       7.774   7.252  18.113  0.00  0.00    +0.000 C 
ATOM     14  O   UNL     1       8.555   8.059  18.609  0.00  0.00    +0.000 OA
ATOM     15  C   UNL     1       7.531   7.132  16.609  0.00  0.00    +0.000 C 
ATOM     16  O   UNL     1       6.356   6.486  16.141  0.00  0.00    +0.000 OA
ATOM     17  H   UNL     1       7.321   6.333  19.873  0.00  0.00    +0.000 HD
ENDBRANCH   3   6
ENDBRANCH   1   3
BRANCH   1  18
ATOM     18  C   UNL     1       1.476   2.994  19.631  0.00  0.00    +0.000 C 
BRANCH  18  20
ATOM     19  N   UNL     1       1.834   5.407  19.640  0.00  0.00    +0.000 N 
ATOM     20  C   UNL     1       1.404   4.318  18.898  0.00  0.00    +0.000 C 
ATOM     21  O   UNL     1       0.993   4.332  17.740  0.00  0.00    +0.000 OA
ATOM     22  H   UNL     1       1.975   5.254  20.627  0.00  0.00    +0.000 HD
BRANCH  19  28
ATOM     23  C   UNL     1       0.982  10.363  20.030  0.00  0.00    +0.000 C 
ATOM     24  C   UNL     1       1.579   9.154  19.351  0.00  0.00    +0.000 A 
ATOM     25  C   UNL     1       2.293   9.359  18.163  0.00  0.00    +0.000 A 
ATOM     26  C   UNL     1       2.869   8.288  17.499  0.00  0.00    +0.000 A 
ATOM     27  C   UNL     1       2.721   6.998  18.002  0.00  0.00    +0.000 A 
ATOM     28  C   UNL     1       1.986   6.741  19.168  0.00  0.00    +0.000 A 
ATOM     29  C   UNL     1       1.423   7.838  19.874  0.00  0.00    +0.000 A 
ATOM     30  C   UNL     1       0.620   7.683  21.144  0.00  0.00    +0.000 C 
ENDBRANCH  19  28
ENDBRANCH  18  20
ENDBRANCH   1  18
TORSDOF 5
ENDMDL
MODEL 9
REMARK VINA RESULT:      -8.3      5.011      9.116
REMARK  Name = 
REMARK  8 active torsions:
REMARK  status: ('A' for Active; 'I' for Inactive)
REMARK    1  A    between atoms: C_1  and  C_2
REMARK    2  A    between atoms: C_6  and  N_7
REMARK    3  A    between atoms: C_8  and  C_10
REMARK    4  A    between atoms: C_10  and  C_11
REMARK    5  A    between atoms: C_11  and  C_12
REMARK    6  A    between atoms: C_11  and  S_13
REMARK    7  A    between atoms: S_13  and  C_16
REMARK    8  A    between atoms: C_27  and  C_28
REMARK                            x       y       z     vdW  Elec       q    Type
REMARK                         _______ _______ _______ _____ _____    ______ ____
ROOT
ATOM      1  C   UNL     1       0.124   9.408  21.155  0.00  0.00    +0.000 C 
ATOM      2  C   UNL     1      -0.487   9.234  22.549  0.00  0.00    +0.000 C 
ENDROOT
BRANCH   1   3
ATOM      3  S   UNL     1      -0.015  11.126  20.652  0.00  0.00    +0.000 S 
ATOM      4  O   UNL     1      -0.414  11.920  21.798  0.00  0.00    +0.000 OA
ATOM      5  O   UNL     1       1.184  11.462  19.901  0.00  0.00    +0.000 OA
BRANCH   3   6
ATOM      6  C   UNL     1      -1.383  11.196  19.515  0.00  0.00    +0.000 A 
ATOM      7  C   UNL     1      -1.306  10.499  18.304  0.00  0.00    +0.000 A 
ATOM      8  C   UNL     1      -2.381  10.547  17.415  0.00  0.00    +0.000 A 
ATOM      9  C   UNL     1      -3.518  11.292  17.731  0.00  0.00    +0.000 A 
ATOM     10  C   UNL     1      -3.599  11.957  18.958  0.00  0.00    +0.000 A 
ATOM     11  C   UNL     1      -2.540  11.903  19.863  0.00  0.00    +0.000 A 
ATOM     12  N   UNL     1      -4.754  12.666  19.291  0.00  0.00    +0.000 N 
ATOM     13  C   UNL     1      -5.769  12.845  18.391  0.00  0.00    +0.000 C 
ATOM     14  O   UNL     1      -6.784  13.470  18.687  0.00  0.00    +0.000 OA
ATOM     15  C   UNL     1      -5.495  12.304  16.989  0.00  0.00    +0.000 C 
ATOM     16  O   UNL     1      -4.533  11.274  16.814  0.00  0.00    +0.000 OA
ATOM     17  H   UNL     1      -4.878  13.077  20.207  0.00  0.00    +0.000 HD
ENDBRANCH   3   6
ENDBRANCH   1   3
BRANCH   1  18
ATOM     18  C   UNL     1       1.584   8.937  21.139  0.00  0.00    +0.000 C 
BRANCH  18  20
ATOM     19  N   UNL     1       2.490   6.883  20.186  0.00  0.00    +0.000 N 
ATOM     20  C   UNL     1       1.822   8.068  19.921  0.00  0.00    +0.000 C 
ATOM     21  O   UNL     1       1.417   8.457  18.828  0.00  0.00    +0.000 OA
ATOM     22  H   UNL     1       2.908   6.793  21.100  0.00  0.00    +0.000 HD
BRANCH  19  28
ATOM     23  C   UNL     1       1.643   2.227  18.441  0.00  0.00    +0.000 C 
ATOM     24  C   UNL     1       2.333   3.569  18.402  0.00  0.00    +0.000 A 
ATOM     25  C   UNL     1       3.307   3.773  17.416  0.00  0.00    +0.000 A 
ATOM     26  C   UNL     1       3.969   4.987  17.326  0.00  0.00    +0.000 A 
ATOM     27  C   UNL     1       3.682   6.003  18.235  0.00  0.00    +0.000 A 
ATOM     28  C   UNL     1       2.741   5.832  19.260  0.00  0.00    +0.000 A 
ATOM     29  C   UNL     1       2.032   4.603  19.335  0.00  0.00    +0.000 A 
ATOM     30  C   UNL     1       0.991   4.308  20.389  0.00  0.00    +0.000 C 
ENDBRANCH  19  28
ENDBRANCH  18  20
ENDBRANCH   1  18
TORSDOF 5
ENDMDL
