MODEL 1
REMARK VINA RESULT:      -5.8      0.000      0.000
REMARK  Name = 
REMARK  5 active torsions:
REMARK  status: ('A' for Active; 'I' for Inactive)
REMARK    1  A    between atoms: C_1  and  C_2
REMARK    2  A    between atoms: C_2  and  C_3
REMARK    3  A    between atoms: C_8  and  C_9
REMARK    4  A    between atoms: C_13  and  N_14
REMARK    5  A    between atoms: C_20  and  O_21
REMARK                            x       y       z     vdW  Elec       q    Type
REMARK                         _______ _______ _______ _____ _____    ______ ____
ROOT
ATOM      1  C   UNL     1       1.888   8.563  18.918  0.00  0.00    +0.000 C 
ATOM      2  C   UNL     1       0.880   9.706  18.667  0.00  0.00    +0.000 C 
ATOM      3  C   UNL     1       1.689  10.925  18.186  0.00  0.00    +0.000 C 
ATOM      4  C   UNL     1      -0.121   9.276  17.571  0.00  0.00    +0.000 C 
ATOM      5  C   UNL     1      -1.404  10.084  17.512  0.00  0.00    +0.000 A 
ATOM      6  C   UNL     1      -2.218   9.950  16.375  0.00  0.00    +0.000 A 
ATOM      7  C   UNL     1      -3.448  10.598  16.290  0.00  0.00    +0.000 A 
ATOM      8  C   UNL     1      -3.912  11.362  17.364  0.00  0.00    +0.000 A 
ATOM      9  C   UNL     1      -3.122  11.485  18.513  0.00  0.00    +0.000 A 
ATOM     10  C   UNL     1      -1.849  10.883  18.592  0.00  0.00    +0.000 A 
ATOM     11  C   UNL     1      -0.952  11.161  19.803  0.00  0.00    +0.000 C 
ATOM     12  C   UNL     1       0.061   9.976  19.955  0.00  0.00    +0.000 C 
ENDROOT
BRANCH  11  13
ATOM     13  N   UNL     1      -0.349  12.523  19.753  0.00  0.00    +0.000 N 
ATOM     14  C   UNL     1      -0.513  13.433  18.633  0.00  0.00    +0.000 C 
ATOM     15  C   UNL     1       0.300  14.648  19.029  0.00  0.00    +0.000 C 
ATOM     16  C   UNL     1       0.094  14.705  20.528  0.00  0.00    +0.000 C 
ATOM     17  C   UNL     1       0.023  13.244  20.888  0.00  0.00    +0.000 C 
ATOM     18  O   UNL     1       0.217  12.795  22.004  0.00  0.00    +0.000 OA
ENDBRANCH  11  13
BRANCH   8  19
ATOM     19  C   UNL     1      -5.174  12.038  17.277  0.00  0.00    +0.000 C 
ATOM     20  N   UNL     1      -6.191  12.599  17.222  0.00  0.00    +0.000 NA
ENDBRANCH   8  19
BRANCH  12  21
ATOM     21  O   UNL     1       0.900  10.021  21.105  0.00  0.00    +0.000 OA
ATOM     22  H   UNL     1       1.434   9.202  21.148  0.00  0.00    +0.000 HD
ENDBRANCH  12  21
TORSDOF 3
ENDMDL
MODEL 2
REMARK VINA RESULT:      -5.8      5.333      8.226
REMARK  Name = 
REMARK  5 active torsions:
REMARK  status: ('A' for Active; 'I' for Inactive)
REMARK    1  A    between atoms: C_1  and  C_2
REMARK    2  A    between atoms: C_2  and  C_3
REMARK    3  A    between atoms: C_8  and  C_9
REMARK    4  A    between atoms: C_13  and  N_14
REMARK    5  A    between atoms: C_20  and  O_21
REMARK                            x       y       z     vdW  Elec       q    Type
REMARK                         _______ _______ _______ _____ _____    ______ ____
ROOT
ATOM      1  C   UNL     1       3.580   1.589  18.154  0.00  0.00    +0.000 C 
ATOM      2  C   UNL     1       3.768   3.116  18.019  0.00  0.00    +0.000 C 
ATOM      3  C   UNL     1       4.764   3.348  16.867  0.00  0.00    +0.000 C 
ATOM      4  C   UNL     1       2.411   3.772  17.678  0.00  0.00    +0.000 C 
ATOM      5  C   UNL     1       2.331   5.266  17.932  0.00  0.00    +0.000 A 
ATOM      6  C   UNL     1       1.250   5.973  17.380  0.00  0.00    +0.000 A 
ATOM      7  C   UNL     1       1.070   7.330  17.640  0.00  0.00    +0.000 A 
ATOM      8  C   UNL     1       1.945   8.000  18.499  0.00  0.00    +0.000 A 
ATOM      9  C   UNL     1       3.013   7.301  19.076  0.00  0.00    +0.000 A 
ATOM     10  C   UNL     1       3.243   5.942  18.776  0.00  0.00    +0.000 A 
ATOM     11  C   UNL     1       4.504   5.252  19.308  0.00  0.00    +0.000 C 
ATOM     12  C   UNL     1       4.237   3.709  19.372  0.00  0.00    +0.000 C 
ENDROOT
BRANCH  11  13
ATOM     13  N   UNL     1       5.726   5.665  18.562  0.00  0.00    +0.000 N 
ATOM     14  C   UNL     1       5.697   6.484  17.363  0.00  0.00    +0.000 C 
ATOM     15  C   UNL     1       7.154   6.598  16.964  0.00  0.00    +0.000 C 
ATOM     16  C   UNL     1       7.857   6.640  18.305  0.00  0.00    +0.000 C 
ATOM     17  C   UNL     1       6.996   5.725  19.136  0.00  0.00    +0.000 C 
ATOM     18  O   UNL     1       7.357   5.177  20.164  0.00  0.00    +0.000 OA
ENDBRANCH  11  13
BRANCH   8  19
ATOM     19  C   UNL     1       1.768   9.398  18.763  0.00  0.00    +0.000 C 
ATOM     20  N   UNL     1       1.644  10.533  18.981  0.00  0.00    +0.000 NA
ENDBRANCH   8  19
BRANCH  12  21
ATOM     21  O   UNL     1       5.273   2.924  19.953  0.00  0.00    +0.000 OA
ATOM     22  H   UNL     1       5.010   2.658  20.857  0.00  0.00    +0.000 HD
ENDBRANCH  12  21
TORSDOF 3
ENDMDL
MODEL 3
REMARK VINA RESULT:      -5.6      5.378      8.787
REMARK  Name = 
REMARK  5 active torsions:
REMARK  status: ('A' for Active; 'I' for Inactive)
REMARK    1  A    between atoms: C_1  and  C_2
REMARK    2  A    between atoms: C_2  and  C_3
REMARK    3  A    between atoms: C_8  and  C_9
REMARK    4  A    between atoms: C_13  and  N_14
REMARK    5  A    between atoms: C_20  and  O_21
REMARK                            x       y       z     vdW  Elec       q    Type
REMARK                         _______ _______ _______ _____ _____    ______ ____
ROOT
ATOM      1  C   UNL     1       1.917   2.166  18.885  0.00  0.00    +0.000 C 
ATOM      2  C   UNL     1       2.617   3.540  18.976  0.00  0.00    +0.000 C 
ATOM      3  C   UNL     1       2.116   4.218  20.265  0.00  0.00    +0.000 C 
ATOM      4  C   UNL     1       4.147   3.333  19.053  0.00  0.00    +0.000 C 
ATOM      5  C   UNL     1       4.983   4.553  18.717  0.00  0.00    +0.000 A 
ATOM      6  C   UNL     1       6.349   4.528  19.046  0.00  0.00    +0.000 A 
ATOM      7  C   UNL     1       7.193   5.580  18.694  0.00  0.00    +0.000 A 
ATOM      8  C   UNL     1       6.696   6.661  17.962  0.00  0.00    +0.000 A 
ATOM      9  C   UNL     1       5.342   6.687  17.606  0.00  0.00    +0.000 A 
ATOM     10  C   UNL     1       4.462   5.659  18.006  0.00  0.00    +0.000 A 
ATOM     11  C   UNL     1       2.961   5.795  17.726  0.00  0.00    +0.000 C 
ATOM     12  C   UNL     1       2.330   4.361  17.693  0.00  0.00    +0.000 C 
ENDROOT
BRANCH  11  13
ATOM     13  N   UNL     1       2.306   6.768  18.644  0.00  0.00    +0.000 N 
ATOM     14  C   UNL     1       2.377   6.680  20.092  0.00  0.00    +0.000 C 
ATOM     15  C   UNL     1       1.540   7.848  20.570  0.00  0.00    +0.000 C 
ATOM     16  C   UNL     1       1.821   8.902  19.520  0.00  0.00    +0.000 C 
ATOM     17  C   UNL     1       1.965   8.069  18.274  0.00  0.00    +0.000 C 
ATOM     18  O   UNL     1       1.846   8.495  17.138  0.00  0.00    +0.000 OA
ENDBRANCH  11  13
BRANCH   8  19
ATOM     19  C   UNL     1       7.559   7.748  17.605  0.00  0.00    +0.000 C 
ATOM     20  N   UNL     1       8.243   8.643  17.315  0.00  0.00    +0.000 NA
ENDBRANCH   8  19
BRANCH  12  21
ATOM     21  O   UNL     1       0.953   4.297  17.332  0.00  0.00    +0.000 OA
ATOM     22  H   UNL     1       0.633   5.197  17.116  0.00  0.00    +0.000 HD
ENDBRANCH  12  21
TORSDOF 3
ENDMDL
MODEL 4
REMARK VINA RESULT:      -5.6      9.207     11.076
REMARK  Name = 
REMARK  5 active torsions:
REMARK  status: ('A' for Active; 'I' for Inactive)
REMARK    1  A    between atoms: C_1  and  C_2
REMARK    2  A    between atoms: C_2  and  C_3
REMARK    3  A    between atoms: C_8  and  C_9
REMARK    4  A    between atoms: C_13  and  N_14
REMARK    5  A    between atoms: C_20  and  O_21
REMARK                            x       y       z     vdW  Elec       q    Type
REMARK                         _______ _______ _______ _____ _____    ______ ____
ROOT
ATOM      1  C   UNL     1      12.333  13.383  16.789  0.00  0.00    +0.000 C 
ATOM      2  C   UNL     1      11.226  13.828  17.770  0.00  0.00    +0.000 C 
ATOM      3  C   UNL     1      11.835  13.796  19.184  0.00  0.00    +0.000 C 
ATOM      4  C   UNL     1      10.782  15.268  17.423  0.00  0.00    +0.000 C 
ATOM      5  C   UNL     1       9.440  15.687  17.992  0.00  0.00    +0.000 A 
ATOM      6  C   UNL     1       9.110  17.052  17.970  0.00  0.00    +0.000 A 
ATOM      7  C   UNL     1       7.863  17.499  18.402  0.00  0.00    +0.000 A 
ATOM      8  C   UNL     1       6.898  16.580  18.824  0.00  0.00    +0.000 A 
ATOM      9  C   UNL     1       7.205  15.214  18.828  0.00  0.00    +0.000 A 
ATOM     10  C   UNL     1       8.483  14.751  18.450  0.00  0.00    +0.000 A 
ATOM     11  C   UNL     1       8.829  13.266  18.608  0.00  0.00    +0.000 C 
ATOM     12  C   UNL     1       9.984  12.915  17.610  0.00  0.00    +0.000 C 
ENDROOT
BRANCH  11  13
ATOM     13  N   UNL     1       9.072  12.896  20.031  0.00  0.00    +0.000 N 
ATOM     14  C   UNL     1       8.894  13.815  21.142  0.00  0.00    +0.000 C 
ATOM     15  C   UNL     1       9.292  13.001  22.356  0.00  0.00    +0.000 C 
ATOM     16  C   UNL     1       8.807  11.613  21.992  0.00  0.00    +0.000 C 
ATOM     17  C   UNL     1       9.038  11.584  20.503  0.00  0.00    +0.000 C 
ATOM     18  O   UNL     1       9.131  10.568  19.836  0.00  0.00    +0.000 OA
ENDBRANCH  11  13
BRANCH   8  19
ATOM     19  C   UNL     1       5.617  17.035  19.276  0.00  0.00    +0.000 C 
ATOM     20  N   UNL     1       4.579  17.393  19.660  0.00  0.00    +0.000 NA
ENDBRANCH   8  19
BRANCH  12  21
ATOM     21  O   UNL     1      10.354  11.541  17.547  0.00  0.00    +0.000 OA
ATOM     22  H   UNL     1      10.485  11.199  18.454  0.00  0.00    +0.000 HD
ENDBRANCH  12  21
TORSDOF 3
ENDMDL
MODEL 5
REMARK VINA RESULT:      -5.6      5.097      8.118
REMARK  Name = 
REMARK  5 active torsions:
REMARK  status: ('A' for Active; 'I' for Inactive)
REMARK    1  A    between atoms: C_1  and  C_2
REMARK    2  A    between atoms: C_2  and  C_3
REMARK    3  A    between atoms: C_8  and  C_9
REMARK    4  A    between atoms: C_13  and  N_14
REMARK    5  A    between atoms: C_20  and  O_21
REMARK                            x       y       z     vdW  Elec       q    Type
REMARK                         _______ _______ _______ _____ _____    ______ ____
ROOT
ATOM      1  C   UNL     1       5.260   3.252  16.105  0.00  0.00    +0.000 C 
ATOM      2  C   UNL     1       4.449   4.099  17.110  0.00  0.00    +0.000 C 
ATOM      3  C   UNL     1       4.958   3.738  18.518  0.00  0.00    +0.000 C 
ATOM      4  C   UNL     1       4.696   5.600  16.832  0.00  0.00    +0.000 C 
ATOM      5  C   UNL     1       3.669   6.545  17.427  0.00  0.00    +0.000 A 
ATOM      6  C   UNL     1       3.980   7.915  17.470  0.00  0.00    +0.000 A 
ATOM      7  C   UNL     1       3.052   8.849  17.928  0.00  0.00    +0.000 A 
ATOM      8  C   UNL     1       1.774   8.435  18.311  0.00  0.00    +0.000 A 
ATOM      9  C   UNL     1       1.443   7.076  18.250  0.00  0.00    +0.000 A 
ATOM     10  C   UNL     1       2.390   6.112  17.845  0.00  0.00    +0.000 A 
ATOM     11  C   UNL     1       2.039   4.622  17.933  0.00  0.00    +0.000 C 
ATOM     12  C   UNL     1       2.935   3.839  16.913  0.00  0.00    +0.000 C 
ENDROOT
BRANCH  11  13
ATOM     13  N   UNL     1       2.069   4.121  19.336  0.00  0.00    +0.000 N 
ATOM     14  C   UNL     1       2.394   4.955  20.480  0.00  0.00    +0.000 C 
ATOM     15  C   UNL     1       2.329   4.002  21.655  0.00  0.00    +0.000 C 
ATOM     16  C   UNL     1       1.200   3.073  21.260  0.00  0.00    +0.000 C 
ATOM     17  C   UNL     1       1.373   2.991  19.766  0.00  0.00    +0.000 C 
ATOM     18  O   UNL     1       0.927   2.099  19.065  0.00  0.00    +0.000 OA
ENDBRANCH  11  13
BRANCH   8  19
ATOM     19  C   UNL     1       0.820   9.392  18.790  0.00  0.00    +0.000 C 
ATOM     20  N   UNL     1       0.055  10.183  19.167  0.00  0.00    +0.000 NA
ENDBRANCH   8  19
BRANCH  12  21
ATOM     21  O   UNL     1       2.658   2.448  16.785  0.00  0.00    +0.000 OA
ATOM     22  H   UNL     1       1.751   2.268  17.104  0.00  0.00    +0.000 HD
ENDBRANCH  12  21
TORSDOF 3
ENDMDL
MODEL 6
REMARK VINA RESULT:      -5.6      3.427      5.559
REMARK  Name = 
REMARK  5 active torsions:
REMARK  status: ('A' for Active; 'I' for Inactive)
REMARK    1  A    between atoms: C_1  and  C_2
REMARK    2  A    between atoms: C_2  and  C_3
REMARK    3  A    between atoms: C_8  and  C_9
REMARK    4  A    between atoms: C_13  and  N_14
REMARK    5  A    between atoms: C_20  and  O_21
REMARK                            x       y       z     vdW  Elec       q    Type
REMARK                         _______ _______ _______ _____ _____    ______ ____
ROOT
ATOM      1  C   UNL     1      -3.236  13.997  22.957  0.00  0.00    +0.000 C 
ATOM      2  C   UNL     1      -1.953  13.322  22.423  0.00  0.00    +0.000 C 
ATOM      3  C   UNL     1      -0.769  14.222  22.822  0.00  0.00    +0.000 C 
ATOM      4  C   UNL     1      -1.797  11.930  23.076  0.00  0.00    +0.000 C 
ATOM      5  C   UNL     1      -0.855  10.980  22.359  0.00  0.00    +0.000 A 
ATOM      6  C   UNL     1      -0.438   9.824  23.040  0.00  0.00    +0.000 A 
ATOM      7  C   UNL     1       0.360   8.869  22.414  0.00  0.00    +0.000 A 
ATOM      8  C   UNL     1       0.722   9.029  21.074  0.00  0.00    +0.000 A 
ATOM      9  C   UNL     1       0.294  10.165  20.377  0.00  0.00    +0.000 A 
ATOM     10  C   UNL     1      -0.466  11.170  21.013  0.00  0.00    +0.000 A 
ATOM     11  C   UNL     1      -0.790  12.465  20.261  0.00  0.00    +0.000 C 
ATOM     12  C   UNL     1      -2.075  13.100  20.894  0.00  0.00    +0.000 C 
ENDROOT
BRANCH  11  13
ATOM     13  N   UNL     1       0.393  13.366  20.161  0.00  0.00    +0.000 N 
ATOM     14  C   UNL     1       1.694  13.050  20.725  0.00  0.00    +0.000 C 
ATOM     15  C   UNL     1       2.536  14.266  20.402  0.00  0.00    +0.000 C 
ATOM     16  C   UNL     1       2.000  14.685  19.049  0.00  0.00    +0.000 C 
ATOM     17  C   UNL     1       0.539  14.342  19.174  0.00  0.00    +0.000 C 
ATOM     18  O   UNL     1      -0.347  14.816  18.484  0.00  0.00    +0.000 OA
ENDBRANCH  11  13
BRANCH   8  19
ATOM     19  C   UNL     1       1.551   8.053  20.429  0.00  0.00    +0.000 C 
ATOM     20  N   UNL     1       2.235   7.277  19.899  0.00  0.00    +0.000 NA
ENDBRANCH   8  19
BRANCH  12  21
ATOM     21  O   UNL     1      -2.582  14.258  20.239  0.00  0.00    +0.000 OA
ATOM     22  H   UNL     1      -2.245  14.285  19.321  0.00  0.00    +0.000 HD
ENDBRANCH  12  21
TORSDOF 3
ENDMDL
MODEL 7
REMARK VINA RESULT:      -5.4      3.153      5.295
REMARK  Name = 
REMARK  5 active torsions:
REMARK  status: ('A' for Active; 'I' for Inactive)
REMARK    1  A    between atoms: C_1  and  C_2
REMARK    2  A    between atoms: C_2  and  C_3
REMARK    3  A    between atoms: C_8  and  C_9
REMARK    4  A    between atoms: C_13  and  N_14
REMARK    5  A    between atoms: C_20  and  O_21
REMARK                            x       y       z     vdW  Elec       q    Type
REMARK                         _______ _______ _______ _____ _____    ______ ____
ROOT
ATOM      1  C   UNL     1      -2.904  12.801  22.927  0.00  0.00    +0.000 C 
ATOM      2  C   UNL     1      -1.616  12.349  22.205  0.00  0.00    +0.000 C 
ATOM      3  C   UNL     1      -0.491  13.303  22.648  0.00  0.00    +0.000 C 
ATOM      4  C   UNL     1      -1.271  10.902  22.625  0.00  0.00    +0.000 C 
ATOM      5  C   UNL     1      -0.312  10.171  21.706  0.00  0.00    +0.000 A 
ATOM      6  C   UNL     1       0.271   8.980  22.171  0.00  0.00    +0.000 A 
ATOM      7  C   UNL     1       1.097   8.215  21.350  0.00  0.00    +0.000 A 
ATOM      8  C   UNL     1       1.324   8.604  20.027  0.00  0.00    +0.000 A 
ATOM      9  C   UNL     1       0.730   9.776  19.544  0.00  0.00    +0.000 A 
ATOM     10  C   UNL     1      -0.062  10.592  20.379  0.00  0.00    +0.000 A 
ATOM     11  C   UNL     1      -0.572  11.940  19.858  0.00  0.00    +0.000 C 
ATOM     12  C   UNL     1      -1.850  12.337  20.673  0.00  0.00    +0.000 C 
ENDROOT
BRANCH  11  13
ATOM     13  N   UNL     1       0.507  12.967  19.810  0.00  0.00    +0.000 N 
ATOM     14  C   UNL     1       1.869  12.722  20.252  0.00  0.00    +0.000 C 
ATOM     15  C   UNL     1       2.564  14.052  20.043  0.00  0.00    +0.000 C 
ATOM     16  C   UNL     1       1.895  14.577  18.791  0.00  0.00    +0.000 C 
ATOM     17  C   UNL     1       0.487  14.068  18.954  0.00  0.00    +0.000 C 
ATOM     18  O   UNL     1      -0.487  14.529  18.383  0.00  0.00    +0.000 OA
ENDBRANCH  11  13
BRANCH   8  19
ATOM     19  C   UNL     1       2.180   7.824  19.183  0.00  0.00    +0.000 C 
ATOM     20  N   UNL     1       2.859   7.176  18.496  0.00  0.00    +0.000 NA
ENDBRANCH   8  19
BRANCH  12  21
ATOM     21  O   UNL     1      -2.520  13.517  20.240  0.00  0.00    +0.000 OA
ATOM     22  H   UNL     1      -3.274  13.699  20.836  0.00  0.00    +0.000 HD
ENDBRANCH  12  21
TORSDOF 3
ENDMDL
MODEL 8
REMARK VINA RESULT:      -5.3     10.414     11.573
REMARK  Name = 
REMARK  5 active torsions:
REMARK  status: ('A' for Active; 'I' for Inactive)
REMARK    1  A    between atoms: C_1  and  C_2
REMARK    2  A    between atoms: C_2  and  C_3
REMARK    3  A    between atoms: C_8  and  C_9
REMARK    4  A    between atoms: C_13  and  N_14
REMARK    5  A    between atoms: C_20  and  O_21
REMARK                            x       y       z     vdW  Elec       q    Type
REMARK                         _______ _______ _______ _____ _____    ______ ____
ROOT
ATOM      1  C   UNL     1      11.988  11.513  18.651  0.00  0.00    +0.000 C 
ATOM      2  C   UNL     1      10.835  12.310  19.300  0.00  0.00    +0.000 C 
ATOM      3  C   UNL     1       9.748  12.488  18.224  0.00  0.00    +0.000 C 
ATOM      4  C   UNL     1      10.265  11.509  20.493  0.00  0.00    +0.000 C 
ATOM      5  C   UNL     1       9.444  12.314  21.481  0.00  0.00    +0.000 A 
ATOM      6  C   UNL     1       8.660  11.615  22.413  0.00  0.00    +0.000 A 
ATOM      7  C   UNL     1       7.944  12.288  23.401  0.00  0.00    +0.000 A 
ATOM      8  C   UNL     1       8.034  13.679  23.505  0.00  0.00    +0.000 A 
ATOM      9  C   UNL     1       8.831  14.387  22.597  0.00  0.00    +0.000 A 
ATOM     10  C   UNL     1       9.515  13.725  21.556  0.00  0.00    +0.000 A 
ATOM     11  C   UNL     1      10.256  14.546  20.494  0.00  0.00    +0.000 C 
ATOM     12  C   UNL     1      11.374  13.649  19.863  0.00  0.00    +0.000 C 
ENDROOT
BRANCH  11  13
ATOM     13  N   UNL     1       9.320  15.187  19.527  0.00  0.00    +0.000 N 
ATOM     14  C   UNL     1       7.883  14.976  19.540  0.00  0.00    +0.000 C 
ATOM     15  C   UNL     1       7.385  15.794  18.367  0.00  0.00    +0.000 C 
ATOM     16  C   UNL     1       8.319  16.986  18.380  0.00  0.00    +0.000 C 
ATOM     17  C   UNL     1       9.612  16.363  18.836  0.00  0.00    +0.000 C 
ATOM     18  O   UNL     1      10.716  16.849  18.660  0.00  0.00    +0.000 OA
ENDBRANCH  11  13
BRANCH   8  19
ATOM     19  C   UNL     1       7.292  14.376  24.515  0.00  0.00    +0.000 C 
ATOM     20  N   UNL     1       6.676  14.927  25.332  0.00  0.00    +0.000 NA
ENDBRANCH   8  19
BRANCH  12  21
ATOM     21  O   UNL     1      12.236  14.296  18.932  0.00  0.00    +0.000 OA
ATOM     22  H   UNL     1      11.913  14.132  18.023  0.00  0.00    +0.000 HD
ENDBRANCH  12  21
TORSDOF 3
ENDMDL
MODEL 9
REMARK VINA RESULT:      -5.3      1.918      3.896
REMARK  Name = 
REMARK  5 active torsions:
REMARK  status: ('A' for Active; 'I' for Inactive)
REMARK    1  A    between atoms: C_1  and  C_2
REMARK    2  A    between atoms: C_2  and  C_3
REMARK    3  A    between atoms: C_8  and  C_9
REMARK    4  A    between atoms: C_13  and  N_14
REMARK    5  A    between atoms: C_20  and  O_21
REMARK                            x       y       z     vdW  Elec       q    Type
REMARK                         _______ _______ _______ _____ _____    ______ ____
ROOT
ATOM      1  C   UNL     1      -1.858  13.797  22.003  0.00  0.00    +0.000 C 
ATOM      2  C   UNL     1      -1.728  12.814  20.819  0.00  0.00    +0.000 C 
ATOM      3  C   UNL     1      -1.066  11.535  21.365  0.00  0.00    +0.000 C 
ATOM      4  C   UNL     1      -3.134  12.483  20.270  0.00  0.00    +0.000 C 
ATOM      5  C   UNL     1      -3.162  11.893  18.873  0.00  0.00    +0.000 A 
ATOM      6  C   UNL     1      -4.357  11.301  18.429  0.00  0.00    +0.000 A 
ATOM      7  C   UNL     1      -4.478  10.813  17.130  0.00  0.00    +0.000 A 
ATOM      8  C   UNL     1      -3.418  10.947  16.230  0.00  0.00    +0.000 A 
ATOM      9  C   UNL     1      -2.231  11.556  16.651  0.00  0.00    +0.000 A 
ATOM     10  C   UNL     1      -2.071  12.003  17.980  0.00  0.00    +0.000 A 
ATOM     11  C   UNL     1      -0.707  12.529  18.444  0.00  0.00    +0.000 C 
ATOM     12  C   UNL     1      -0.932  13.480  19.668  0.00  0.00    +0.000 C 
ENDROOT
BRANCH  11  13
ATOM     13  N   UNL     1       0.276  11.429  18.653  0.00  0.00    +0.000 N 
ATOM     14  C   UNL     1      -0.072  10.020  18.599  0.00  0.00    +0.000 C 
ATOM     15  C   UNL     1       1.231   9.311  18.906  0.00  0.00    +0.000 C 
ATOM     16  C   UNL     1       2.256  10.214  18.252  0.00  0.00    +0.000 C 
ATOM     17  C   UNL     1       1.650  11.577  18.464  0.00  0.00    +0.000 C 
ATOM     18  O   UNL     1       2.271  12.625  18.426  0.00  0.00    +0.000 OA
ENDBRANCH  11  13
BRANCH   8  19
ATOM     19  C   UNL     1      -3.537  10.438  14.894  0.00  0.00    +0.000 C 
ATOM     20  N   UNL     1      -3.615  10.016  13.814  0.00  0.00    +0.000 NA
ENDBRANCH   8  19
BRANCH  12  21
ATOM     21  O   UNL     1       0.228  14.147  20.156  0.00  0.00    +0.000 OA
ATOM     22  H   UNL     1       0.000  14.638  20.971  0.00  0.00    +0.000 HD
ENDBRANCH  12  21
TORSDOF 3
ENDMDL
