MODEL 1
REMARK VINA RESULT:      -8.3      0.000      0.000
REMARK  Name = 
REMARK  6 active torsions:
REMARK  status: ('A' for Active; 'I' for Inactive)
REMARK    1  A    between atoms: C_2  and  C_14
REMARK    2  A    between atoms: N_3  and  C_4
REMARK    3  A    between atoms: C_8  and  O_9
REMARK    4  A    between atoms: O_9  and  C_10
REMARK    5  A    between atoms: C_17  and  N_18
REMARK    6  A    between atoms: C_23  and  C_24
REMARK                            x       y       z     vdW  Elec       q    Type
REMARK                         _______ _______ _______ _____ _____    ______ ____
ROOT
ATOM      1  C   UNL     1       1.394   9.397  19.205  0.00  0.00    +0.000 A 
ATOM      2  C   UNL     1       1.165  10.635  18.636  0.00  0.00    +0.000 A 
ATOM      3  C   UNL     1       0.448  11.599  19.359  0.00  0.00    +0.000 A 
ATOM      4  C   UNL     1      -0.098  11.395  20.658  0.00  0.00    +0.000 A 
ATOM      5  C   UNL     1       0.168  10.130  21.233  0.00  0.00    +0.000 A 
ATOM      6  C   UNL     1       0.893   9.154  20.482  0.00  0.00    +0.000 A 
ENDROOT
BRANCH   4   7
ATOM      7  N   UNL     1      -0.814  12.425  21.244  0.00  0.00    +0.000 N 
ATOM      8  C   UNL     1      -0.254  13.401  22.186  0.00  0.00    +0.000 C 
ATOM      9  C   UNL     1      -1.333  13.558  23.249  0.00  0.00    +0.000 C 
ATOM     10  C   UNL     1      -2.612  13.462  22.438  0.00  0.00    +0.000 C 
ATOM     11  C   UNL     1      -2.284  12.406  21.385  0.00  0.00    +0.000 C 
ENDBRANCH   4   7
BRANCH   1  13
ATOM     12  O   UNL     1       2.472   8.533  17.340  0.00  0.00    +0.000 OA
ATOM     13  C   UNL     1       2.099   8.304  18.486  0.00  0.00    +0.000 C 
ATOM     14  N   UNL     1       2.224   7.101  19.167  0.00  0.00    +0.000 N 
ATOM     15  H   UNL     1       1.680   6.984  20.011  0.00  0.00    +0.000 HD
BRANCH  14  16
ATOM     16  C   UNL     1       2.878   5.944  18.672  0.00  0.00    +0.000 A 
ATOM     17  C   UNL     1       2.213   4.976  17.913  0.00  0.00    +0.000 A 
ATOM     18  C   UNL     1       2.871   3.821  17.496  0.00  0.00    +0.000 A 
ATOM     19  C   UNL     1       4.208   3.632  17.823  0.00  0.00    +0.000 A 
ATOM     20  C   UNL     1       4.905   4.609  18.534  0.00  0.00    +0.000 A 
ATOM     21  C   UNL     1       4.243   5.768  18.959  0.00  0.00    +0.000 A 
BRANCH  20  22
ATOM     22  O   UNL     1       6.207   4.284  18.797  0.00  0.00    +0.000 OA
BRANCH  22  23
ATOM     23  C   UNL     1       7.189   5.040  18.116  0.00  0.00    +0.000 C 
ATOM     24  F   UNL     1       8.200   4.214  17.746  0.00  0.00    +0.000 F 
ATOM     25  F   UNL     1       6.621   5.498  16.971  0.00  0.00    +0.000 F 
ENDBRANCH  22  23
ENDBRANCH  20  22
ENDBRANCH  14  16
ENDBRANCH   1  13
BRANCH   5  26
ATOM     26  C   UNL     1      -0.191   9.632  22.620  0.00  0.00    +0.000 C 
ATOM     27  F   UNL     1      -0.898  10.452  23.436  0.00  0.00    +0.000 F 
ATOM     28  F   UNL     1      -0.908   8.470  22.567  0.00  0.00    +0.000 F 
ATOM     29  F   UNL     1       0.930   9.322  23.344  0.00  0.00    +0.000 F 
ENDBRANCH   5  26
TORSDOF 6
ENDMDL
MODEL 2
REMARK VINA RESULT:      -8.2      1.815      2.383
REMARK  Name = 
REMARK  6 active torsions:
REMARK  status: ('A' for Active; 'I' for Inactive)
REMARK    1  A    between atoms: C_2  and  C_14
REMARK    2  A    between atoms: N_3  and  C_4
REMARK    3  A    between atoms: C_8  and  O_9
REMARK    4  A    between atoms: O_9  and  C_10
REMARK    5  A    between atoms: C_17  and  N_18
REMARK    6  A    between atoms: C_23  and  C_24
REMARK                            x       y       z     vdW  Elec       q    Type
REMARK                         _______ _______ _______ _____ _____    ______ ____
ROOT
ATOM      1  C   UNL     1       1.228   8.830  20.226  0.00  0.00    +0.000 A 
ATOM      2  C   UNL     1       1.277   8.794  21.606  0.00  0.00    +0.000 A 
ATOM      3  C   UNL     1       0.558   9.748  22.342  0.00  0.00    +0.000 A 
ATOM      4  C   UNL     1      -0.221  10.792  21.769  0.00  0.00    +0.000 A 
ATOM      5  C   UNL     1      -0.277  10.799  20.355  0.00  0.00    +0.000 A 
ATOM      6  C   UNL     1       0.466   9.826  19.618  0.00  0.00    +0.000 A 
ENDROOT
BRANCH   4   7
ATOM      7  N   UNL     1      -0.854  11.687  22.617  0.00  0.00    +0.000 N 
ATOM      8  C   UNL     1      -2.136  11.438  23.285  0.00  0.00    +0.000 C 
ATOM      9  C   UNL     1      -2.881  12.761  23.171  0.00  0.00    +0.000 C 
ATOM     10  C   UNL     1      -1.769  13.781  23.328  0.00  0.00    +0.000 C 
ATOM     11  C   UNL     1      -0.595  13.140  22.592  0.00  0.00    +0.000 C 
ENDBRANCH   4   7
BRANCH   1  13
ATOM     12  O   UNL     1       2.319   8.278  18.255  0.00  0.00    +0.000 OA
ATOM     13  C   UNL     1       2.001   7.891  19.373  0.00  0.00    +0.000 C 
ATOM     14  N   UNL     1       2.246   6.634  19.910  0.00  0.00    +0.000 N 
ATOM     15  H   UNL     1       1.738   6.376  20.745  0.00  0.00    +0.000 HD
BRANCH  14  16
ATOM     16  C   UNL     1       2.981   5.601  19.273  0.00  0.00    +0.000 A 
ATOM     17  C   UNL     1       2.365   4.616  18.493  0.00  0.00    +0.000 A 
ATOM     18  C   UNL     1       3.110   3.581  17.934  0.00  0.00    +0.000 A 
ATOM     19  C   UNL     1       4.484   3.530  18.138  0.00  0.00    +0.000 A 
ATOM     20  C   UNL     1       5.126   4.531  18.867  0.00  0.00    +0.000 A 
ATOM     21  C   UNL     1       4.377   5.569  19.436  0.00  0.00    +0.000 A 
BRANCH  20  22
ATOM     22  O   UNL     1       6.475   4.347  19.000  0.00  0.00    +0.000 OA
BRANCH  22  23
ATOM     23  C   UNL     1       7.295   5.065  18.100  0.00  0.00    +0.000 C 
ATOM     24  F   UNL     1       8.050   5.946  18.801  0.00  0.00    +0.000 F 
ATOM     25  F   UNL     1       8.153   4.174  17.540  0.00  0.00    +0.000 F 
ENDBRANCH  22  23
ENDBRANCH  20  22
ENDBRANCH  14  16
ENDBRANCH   1  13
BRANCH   5  26
ATOM     26  C   UNL     1      -1.080  11.712  19.449  0.00  0.00    +0.000 C 
ATOM     27  F   UNL     1      -0.683  13.002  19.319  0.00  0.00    +0.000 F 
ATOM     28  F   UNL     1      -1.144  11.224  18.174  0.00  0.00    +0.000 F 
ATOM     29  F   UNL     1      -2.384  11.801  19.858  0.00  0.00    +0.000 F 
ENDBRANCH   5  26
TORSDOF 6
ENDMDL
MODEL 3
REMARK VINA RESULT:      -8.2      0.631      1.280
REMARK  Name = 
REMARK  6 active torsions:
REMARK  status: ('A' for Active; 'I' for Inactive)
REMARK    1  A    between atoms: C_2  and  C_14
REMARK    2  A    between atoms: N_3  and  C_4
REMARK    3  A    between atoms: C_8  and  O_9
REMARK    4  A    between atoms: O_9  and  C_10
REMARK    5  A    between atoms: C_17  and  N_18
REMARK    6  A    between atoms: C_23  and  C_24
REMARK                            x       y       z     vdW  Elec       q    Type
REMARK                         _______ _______ _______ _____ _____    ______ ____
ROOT
ATOM      1  C   UNL     1       1.452   9.362  19.192  0.00  0.00    +0.000 A 
ATOM      2  C   UNL     1       1.294  10.626  18.658  0.00  0.00    +0.000 A 
ATOM      3  C   UNL     1       0.575  11.590  19.379  0.00  0.00    +0.000 A 
ATOM      4  C   UNL     1      -0.043  11.361  20.641  0.00  0.00    +0.000 A 
ATOM      5  C   UNL     1       0.149  10.068  21.182  0.00  0.00    +0.000 A 
ATOM      6  C   UNL     1       0.878   9.093  20.433  0.00  0.00    +0.000 A 
ENDROOT
BRANCH   4   7
ATOM      7  N   UNL     1      -0.752  12.396  21.228  0.00  0.00    +0.000 N 
ATOM      8  C   UNL     1      -2.134  12.756  20.891  0.00  0.00    +0.000 C 
ATOM      9  C   UNL     1      -2.129  14.279  20.866  0.00  0.00    +0.000 C 
ATOM     10  C   UNL     1      -1.176  14.624  21.994  0.00  0.00    +0.000 C 
ATOM     11  C   UNL     1      -0.103  13.543  21.892  0.00  0.00    +0.000 C 
ENDBRANCH   4   7
BRANCH   1  13
ATOM     12  O   UNL     1       2.480   8.483  17.307  0.00  0.00    +0.000 OA
ATOM     13  C   UNL     1       2.154   8.270  18.470  0.00  0.00    +0.000 C 
ATOM     14  N   UNL     1       2.329   7.084  19.169  0.00  0.00    +0.000 N 
ATOM     15  H   UNL     1       1.818   6.972  20.034  0.00  0.00    +0.000 HD
BRANCH  14  16
ATOM     16  C   UNL     1       2.991   5.931  18.673  0.00  0.00    +0.000 A 
ATOM     17  C   UNL     1       2.330   4.956  17.919  0.00  0.00    +0.000 A 
ATOM     18  C   UNL     1       2.995   3.805  17.501  0.00  0.00    +0.000 A 
ATOM     19  C   UNL     1       4.335   3.627  17.823  0.00  0.00    +0.000 A 
ATOM     20  C   UNL     1       5.028   4.611  18.530  0.00  0.00    +0.000 A 
ATOM     21  C   UNL     1       4.358   5.766  18.956  0.00  0.00    +0.000 A 
BRANCH  20  22
ATOM     22  O   UNL     1       6.333   4.297  18.789  0.00  0.00    +0.000 OA
BRANCH  22  23
ATOM     23  C   UNL     1       7.307   5.059  18.102  0.00  0.00    +0.000 C 
ATOM     24  F   UNL     1       8.073   5.713  19.010  0.00  0.00    +0.000 F 
ATOM     25  F   UNL     1       8.123   4.184  17.461  0.00  0.00    +0.000 F 
ENDBRANCH  22  23
ENDBRANCH  20  22
ENDBRANCH  14  16
ENDBRANCH   1  13
BRANCH   5  26
ATOM     26  C   UNL     1      -0.296   9.536  22.531  0.00  0.00    +0.000 C 
ATOM     27  F   UNL     1      -0.923   8.334  22.574  0.00  0.00    +0.000 F 
ATOM     28  F   UNL     1       0.754   9.425  23.399  0.00  0.00    +0.000 F 
ATOM     29  F   UNL     1      -1.170  10.394  23.143  0.00  0.00    +0.000 F 
ENDBRANCH   5  26
TORSDOF 6
ENDMDL
MODEL 4
REMARK VINA RESULT:      -8.1      1.985      2.367
REMARK  Name = 
REMARK  6 active torsions:
REMARK  status: ('A' for Active; 'I' for Inactive)
REMARK    1  A    between atoms: C_2  and  C_14
REMARK    2  A    between atoms: N_3  and  C_4
REMARK    3  A    between atoms: C_8  and  O_9
REMARK    4  A    between atoms: O_9  and  C_10
REMARK    5  A    between atoms: C_17  and  N_18
REMARK    6  A    between atoms: C_23  and  C_24
REMARK                            x       y       z     vdW  Elec       q    Type
REMARK                         _______ _______ _______ _____ _____    ______ ____
ROOT
ATOM      1  C   UNL     1       1.211   9.786  19.150  0.00  0.00    +0.000 A 
ATOM      2  C   UNL     1       0.892  11.047  18.686  0.00  0.00    +0.000 A 
ATOM      3  C   UNL     1       0.160  11.915  19.509  0.00  0.00    +0.000 A 
ATOM      4  C   UNL     1      -0.314  11.587  20.811  0.00  0.00    +0.000 A 
ATOM      5  C   UNL     1       0.042  10.300  21.277  0.00  0.00    +0.000 A 
ATOM      6  C   UNL     1       0.782   9.423  20.425  0.00  0.00    +0.000 A 
ENDROOT
BRANCH   4   7
ATOM      7  N   UNL     1      -1.055  12.532  21.502  0.00  0.00    +0.000 N 
ATOM      8  C   UNL     1      -0.486  13.549  22.394  0.00  0.00    +0.000 C 
ATOM      9  C   UNL     1      -1.439  13.582  23.581  0.00  0.00    +0.000 C 
ATOM     10  C   UNL     1      -2.790  13.364  22.926  0.00  0.00    +0.000 C 
ATOM     11  C   UNL     1      -2.487  12.359  21.817  0.00  0.00    +0.000 C 
ENDBRANCH   4   7
BRANCH   1  13
ATOM     12  O   UNL     1       2.194   9.098  17.164  0.00  0.00    +0.000 OA
ATOM     13  C   UNL     1       1.937   8.788  18.322  0.00  0.00    +0.000 C 
ATOM     14  N   UNL     1       2.212   7.570  18.927  0.00  0.00    +0.000 N 
ATOM     15  H   UNL     1       1.750   7.370  19.805  0.00  0.00    +0.000 HD
BRANCH  14  16
ATOM     16  C   UNL     1       2.911   6.494  18.323  0.00  0.00    +0.000 A 
ATOM     17  C   UNL     1       4.131   6.673  17.661  0.00  0.00    +0.000 A 
ATOM     18  C   UNL     1       4.759   5.605  17.023  0.00  0.00    +0.000 A 
ATOM     19  C   UNL     1       4.179   4.343  17.057  0.00  0.00    +0.000 A 
ATOM     20  C   UNL     1       2.990   4.131  17.756  0.00  0.00    +0.000 A 
ATOM     21  C   UNL     1       2.354   5.206  18.391  0.00  0.00    +0.000 A 
BRANCH  20  22
ATOM     22  O   UNL     1       2.527   2.846  17.692  0.00  0.00    +0.000 OA
BRANCH  22  23
ATOM     23  C   UNL     1       2.799   2.028  18.813  0.00  0.00    +0.000 C 
ATOM     24  F   UNL     1       1.633   1.508  19.270  0.00  0.00    +0.000 F 
ATOM     25  F   UNL     1       3.546   0.983  18.375  0.00  0.00    +0.000 F 
ENDBRANCH  22  23
ENDBRANCH  20  22
ENDBRANCH  14  16
ENDBRANCH   1  13
BRANCH   5  26
ATOM     26  C   UNL     1      -0.226   9.683  22.637  0.00  0.00    +0.000 C 
ATOM     27  F   UNL     1      -0.903  10.418  23.554  0.00  0.00    +0.000 F 
ATOM     28  F   UNL     1      -0.921   8.512  22.529  0.00  0.00    +0.000 F 
ATOM     29  F   UNL     1       0.940   9.344  23.270  0.00  0.00    +0.000 F 
ENDBRANCH   5  26
TORSDOF 6
ENDMDL
MODEL 5
REMARK VINA RESULT:      -8.0      2.466      3.067
REMARK  Name = 
REMARK  6 active torsions:
REMARK  status: ('A' for Active; 'I' for Inactive)
REMARK    1  A    between atoms: C_2  and  C_14
REMARK    2  A    between atoms: N_3  and  C_4
REMARK    3  A    between atoms: C_8  and  O_9
REMARK    4  A    between atoms: O_9  and  C_10
REMARK    5  A    between atoms: C_17  and  N_18
REMARK    6  A    between atoms: C_23  and  C_24
REMARK                            x       y       z     vdW  Elec       q    Type
REMARK                         _______ _______ _______ _____ _____    ______ ____
ROOT
ATOM      1  C   UNL     1       2.413   7.984  18.509  0.00  0.00    +0.000 A 
ATOM      2  C   UNL     1       2.182   9.027  17.634  0.00  0.00    +0.000 A 
ATOM      3  C   UNL     1       1.363  10.091  18.037  0.00  0.00    +0.000 A 
ATOM      4  C   UNL     1       0.714  10.178  19.300  0.00  0.00    +0.000 A 
ATOM      5  C   UNL     1       0.980   9.112  20.191  0.00  0.00    +0.000 A 
ATOM      6  C   UNL     1       1.810   8.030  19.765  0.00  0.00    +0.000 A 
ENDROOT
BRANCH   4   7
ATOM      7  N   UNL     1      -0.095  11.274  19.554  0.00  0.00    +0.000 N 
ATOM      8  C   UNL     1       0.320  12.461  20.310  0.00  0.00    +0.000 C 
ATOM      9  C   UNL     1      -0.884  12.792  21.181  0.00  0.00    +0.000 C 
ATOM     10  C   UNL     1      -2.051  12.452  20.274  0.00  0.00    +0.000 C 
ATOM     11  C   UNL     1      -1.570  11.209  19.530  0.00  0.00    +0.000 C 
ENDBRANCH   4   7
BRANCH   1  13
ATOM     12  O   UNL     1       2.844   5.705  18.554  0.00  0.00    +0.000 OA
ATOM     13  C   UNL     1       3.224   6.795  18.141  0.00  0.00    +0.000 C 
ATOM     14  N   UNL     1       4.373   7.039  17.402  0.00  0.00    +0.000 N 
ATOM     15  H   UNL     1       4.681   7.999  17.322  0.00  0.00    +0.000 HD
BRANCH  14  16
ATOM     16  C   UNL     1       5.271   6.047  16.932  0.00  0.00    +0.000 A 
ATOM     17  C   UNL     1       6.347   5.587  17.699  0.00  0.00    +0.000 A 
ATOM     18  C   UNL     1       7.246   4.658  17.181  0.00  0.00    +0.000 A 
ATOM     19  C   UNL     1       7.067   4.167  15.893  0.00  0.00    +0.000 A 
ATOM     20  C   UNL     1       5.971   4.572  15.130  0.00  0.00    +0.000 A 
ATOM     21  C   UNL     1       5.070   5.512  15.647  0.00  0.00    +0.000 A 
BRANCH  20  22
ATOM     22  O   UNL     1       5.928   4.021  13.879  0.00  0.00    +0.000 OA
BRANCH  22  23
ATOM     23  C   UNL     1       7.115   4.110  13.117  0.00  0.00    +0.000 C 
ATOM     24  F   UNL     1       6.836   3.786  11.830  0.00  0.00    +0.000 F 
ATOM     25  F   UNL     1       7.496   5.413  13.117  0.00  0.00    +0.000 F 
ENDBRANCH  22  23
ENDBRANCH  20  22
ENDBRANCH  14  16
ENDBRANCH   1  13
BRANCH   5  26
ATOM     26  C   UNL     1       0.521   8.948  21.628  0.00  0.00    +0.000 C 
ATOM     27  F   UNL     1       0.406  10.058  22.398  0.00  0.00    +0.000 F 
ATOM     28  F   UNL     1      -0.697   8.333  21.698  0.00  0.00    +0.000 F 
ATOM     29  F   UNL     1       1.368   8.135  22.333  0.00  0.00    +0.000 F 
ENDBRANCH   5  26
TORSDOF 6
ENDMDL
MODEL 6
REMARK VINA RESULT:      -7.9      2.056      2.517
REMARK  Name = 
REMARK  6 active torsions:
REMARK  status: ('A' for Active; 'I' for Inactive)
REMARK    1  A    between atoms: C_2  and  C_14
REMARK    2  A    between atoms: N_3  and  C_4
REMARK    3  A    between atoms: C_8  and  O_9
REMARK    4  A    between atoms: O_9  and  C_10
REMARK    5  A    between atoms: C_17  and  N_18
REMARK    6  A    between atoms: C_23  and  C_24
REMARK                            x       y       z     vdW  Elec       q    Type
REMARK                         _______ _______ _______ _____ _____    ______ ____
ROOT
ATOM      1  C   UNL     1       1.164   9.171  19.338  0.00  0.00    +0.000 A 
ATOM      2  C   UNL     1       1.283   9.350  20.703  0.00  0.00    +0.000 A 
ATOM      3  C   UNL     1       0.515  10.339  21.334  0.00  0.00    +0.000 A 
ATOM      4  C   UNL     1      -0.386  11.214  20.663  0.00  0.00    +0.000 A 
ATOM      5  C   UNL     1      -0.511  11.000  19.270  0.00  0.00    +0.000 A 
ATOM      6  C   UNL     1       0.284   9.994  18.639  0.00  0.00    +0.000 A 
ENDROOT
BRANCH   4   7
ATOM      7  N   UNL     1      -1.057  12.169  21.407  0.00  0.00    +0.000 N 
ATOM      8  C   UNL     1      -0.748  13.604  21.397  0.00  0.00    +0.000 C 
ATOM      9  C   UNL     1      -0.855  14.021  22.857  0.00  0.00    +0.000 C 
ATOM     10  C   UNL     1      -2.011  13.177  23.359  0.00  0.00    +0.000 C 
ATOM     11  C   UNL     1      -1.820  11.849  22.630  0.00  0.00    +0.000 C 
ENDBRANCH   4   7
BRANCH   1  13
ATOM     12  O   UNL     1       2.327   8.487  17.451  0.00  0.00    +0.000 OA
ATOM     13  C   UNL     1       1.979   8.182  18.587  0.00  0.00    +0.000 C 
ATOM     14  N   UNL     1       2.229   6.977  19.228  0.00  0.00    +0.000 N 
ATOM     15  H   UNL     1       1.699   6.775  20.065  0.00  0.00    +0.000 HD
BRANCH  14  16
ATOM     16  C   UNL     1       3.000   5.911  18.697  0.00  0.00    +0.000 A 
ATOM     17  C   UNL     1       2.468   4.973  17.807  0.00  0.00    +0.000 A 
ATOM     18  C   UNL     1       3.237   3.903  17.355  0.00  0.00    +0.000 A 
ATOM     19  C   UNL     1       4.554   3.771  17.779  0.00  0.00    +0.000 A 
ATOM     20  C   UNL     1       5.121   4.724  18.625  0.00  0.00    +0.000 A 
ATOM     21  C   UNL     1       4.346   5.797  19.086  0.00  0.00    +0.000 A 
BRANCH  20  22
ATOM     22  O   UNL     1       6.417   4.461  18.973  0.00  0.00    +0.000 OA
BRANCH  22  23
ATOM     23  C   UNL     1       7.411   5.167  18.258  0.00  0.00    +0.000 C 
ATOM     24  F   UNL     1       8.231   5.788  19.142  0.00  0.00    +0.000 F 
ATOM     25  F   UNL     1       8.167   4.248  17.605  0.00  0.00    +0.000 F 
ENDBRANCH  22  23
ENDBRANCH  20  22
ENDBRANCH  14  16
ENDBRANCH   1  13
BRANCH   5  26
ATOM     26  C   UNL     1      -1.439  11.693  18.291  0.00  0.00    +0.000 C 
ATOM     27  F   UNL     1      -2.678  12.043  18.716  0.00  0.00    +0.000 F 
ATOM     28  F   UNL     1      -0.887  12.844  17.803  0.00  0.00    +0.000 F 
ATOM     29  F   UNL     1      -1.669  10.917  17.186  0.00  0.00    +0.000 F 
ENDBRANCH   5  26
TORSDOF 6
ENDMDL
MODEL 7
REMARK VINA RESULT:      -7.9      0.933      1.438
REMARK  Name = 
REMARK  6 active torsions:
REMARK  status: ('A' for Active; 'I' for Inactive)
REMARK    1  A    between atoms: C_2  and  C_14
REMARK    2  A    between atoms: N_3  and  C_4
REMARK    3  A    between atoms: C_8  and  O_9
REMARK    4  A    between atoms: O_9  and  C_10
REMARK    5  A    between atoms: C_17  and  N_18
REMARK    6  A    between atoms: C_23  and  C_24
REMARK                            x       y       z     vdW  Elec       q    Type
REMARK                         _______ _______ _______ _____ _____    ______ ____
ROOT
ATOM      1  C   UNL     1       1.145   9.719  19.160  0.00  0.00    +0.000 A 
ATOM      2  C   UNL     1       0.835  10.991  18.723  0.00  0.00    +0.000 A 
ATOM      3  C   UNL     1       0.089  11.839  19.556  0.00  0.00    +0.000 A 
ATOM      4  C   UNL     1      -0.407  11.478  20.841  0.00  0.00    +0.000 A 
ATOM      5  C   UNL     1      -0.059  10.179  21.280  0.00  0.00    +0.000 A 
ATOM      6  C   UNL     1       0.694   9.323  20.417  0.00  0.00    +0.000 A 
ENDROOT
BRANCH   4   7
ATOM      7  N   UNL     1      -1.159  12.405  21.543  0.00  0.00    +0.000 N 
ATOM      8  C   UNL     1      -2.532  12.794  21.204  0.00  0.00    +0.000 C 
ATOM      9  C   UNL     1      -2.555  14.303  21.406  0.00  0.00    +0.000 C 
ATOM     10  C   UNL     1      -1.655  14.488  22.613  0.00  0.00    +0.000 C 
ATOM     11  C   UNL     1      -0.559  13.448  22.399  0.00  0.00    +0.000 C 
ENDBRANCH   4   7
BRANCH   1  13
ATOM     12  O   UNL     1       2.160   9.081  17.173  0.00  0.00    +0.000 OA
ATOM     13  C   UNL     1       1.884   8.742  18.318  0.00  0.00    +0.000 C 
ATOM     14  N   UNL     1       2.151   7.509  18.898  0.00  0.00    +0.000 N 
ATOM     15  H   UNL     1       1.675   7.287  19.762  0.00  0.00    +0.000 HD
BRANCH  14  16
ATOM     16  C   UNL     1       2.860   6.449  18.277  0.00  0.00    +0.000 A 
ATOM     17  C   UNL     1       2.286   5.193  18.055  0.00  0.00    +0.000 A 
ATOM     18  C   UNL     1       3.032   4.156  17.501  0.00  0.00    +0.000 A 
ATOM     19  C   UNL     1       4.359   4.371  17.148  0.00  0.00    +0.000 A 
ATOM     20  C   UNL     1       4.936   5.631  17.312  0.00  0.00    +0.000 A 
ATOM     21  C   UNL     1       4.189   6.673  17.876  0.00  0.00    +0.000 A 
BRANCH  20  22
ATOM     22  O   UNL     1       6.250   5.695  16.937  0.00  0.00    +0.000 OA
BRANCH  22  23
ATOM     23  C   UNL     1       6.877   4.462  16.647  0.00  0.00    +0.000 C 
ATOM     24  F   UNL     1       7.370   4.506  15.385  0.00  0.00    +0.000 F 
ATOM     25  F   UNL     1       7.945   4.349  17.479  0.00  0.00    +0.000 F 
ENDBRANCH  22  23
ENDBRANCH  20  22
ENDBRANCH  14  16
ENDBRANCH   1  13
BRANCH   5  26
ATOM     26  C   UNL     1      -0.351   9.527  22.618  0.00  0.00    +0.000 C 
ATOM     27  F   UNL     1       0.682   9.320  23.471  0.00  0.00    +0.000 F 
ATOM     28  F   UNL     1      -1.271  10.240  23.333  0.00  0.00    +0.000 F 
ATOM     29  F   UNL     1      -0.910   8.288  22.459  0.00  0.00    +0.000 F 
ENDBRANCH   5  26
TORSDOF 6
ENDMDL
MODEL 8
REMARK VINA RESULT:      -7.9      2.048      2.611
REMARK  Name = 
REMARK  6 active torsions:
REMARK  status: ('A' for Active; 'I' for Inactive)
REMARK    1  A    between atoms: C_2  and  C_14
REMARK    2  A    between atoms: N_3  and  C_4
REMARK    3  A    between atoms: C_8  and  O_9
REMARK    4  A    between atoms: O_9  and  C_10
REMARK    5  A    between atoms: C_17  and  N_18
REMARK    6  A    between atoms: C_23  and  C_24
REMARK                            x       y       z     vdW  Elec       q    Type
REMARK                         _______ _______ _______ _____ _____    ______ ____
ROOT
ATOM      1  C   UNL     1       1.158   9.755  19.195  0.00  0.00    +0.000 A 
ATOM      2  C   UNL     1       0.828  11.007  18.715  0.00  0.00    +0.000 A 
ATOM      3  C   UNL     1       0.081  11.876  19.523  0.00  0.00    +0.000 A 
ATOM      4  C   UNL     1      -0.399  11.557  20.825  0.00  0.00    +0.000 A 
ATOM      5  C   UNL     1      -0.032  10.278  21.308  0.00  0.00    +0.000 A 
ATOM      6  C   UNL     1       0.723   9.401  20.470  0.00  0.00    +0.000 A 
ENDROOT
BRANCH   4   7
ATOM      7  N   UNL     1      -1.155  12.500  21.501  0.00  0.00    +0.000 N 
ATOM      8  C   UNL     1      -2.525  12.885  21.141  0.00  0.00    +0.000 C 
ATOM      9  C   UNL     1      -2.546  14.398  21.311  0.00  0.00    +0.000 C 
ATOM     10  C   UNL     1      -1.657  14.607  22.522  0.00  0.00    +0.000 C 
ATOM     11  C   UNL     1      -0.561  13.559  22.340  0.00  0.00    +0.000 C 
ENDBRANCH   4   7
BRANCH   1  13
ATOM     12  O   UNL     1       2.259   9.099  17.261  0.00  0.00    +0.000 OA
ATOM     13  C   UNL     1       1.901   8.757  18.382  0.00  0.00    +0.000 C 
ATOM     14  N   UNL     1       2.076   7.505  18.956  0.00  0.00    +0.000 N 
ATOM     15  H   UNL     1       1.540   7.293  19.787  0.00  0.00    +0.000 HD
BRANCH  14  16
ATOM     16  C   UNL     1       2.772   6.422  18.361  0.00  0.00    +0.000 A 
ATOM     17  C   UNL     1       4.105   6.525  17.949  0.00  0.00    +0.000 A 
ATOM     18  C   UNL     1       4.738   5.461  17.311  0.00  0.00    +0.000 A 
ATOM     19  C   UNL     1       4.046   4.276  17.092  0.00  0.00    +0.000 A 
ATOM     20  C   UNL     1       2.733   4.133  17.542  0.00  0.00    +0.000 A 
ATOM     21  C   UNL     1       2.093   5.205  18.178  0.00  0.00    +0.000 A 
BRANCH  20  22
ATOM     22  O   UNL     1       2.171   2.922  17.246  0.00  0.00    +0.000 OA
BRANCH  22  23
ATOM     23  C   UNL     1       1.814   2.113  18.349  0.00  0.00    +0.000 C 
ATOM     24  F   UNL     1       2.633   2.404  19.390  0.00  0.00    +0.000 F 
ATOM     25  F   UNL     1       0.561   2.477  18.726  0.00  0.00    +0.000 F 
ENDBRANCH  22  23
ENDBRANCH  20  22
ENDBRANCH  14  16
ENDBRANCH   1  13
BRANCH   5  26
ATOM     26  C   UNL     1      -0.303   9.673  22.672  0.00  0.00    +0.000 C 
ATOM     27  F   UNL     1      -1.026  10.395  23.564  0.00  0.00    +0.000 F 
ATOM     28  F   UNL     1      -0.951   8.474  22.569  0.00  0.00    +0.000 F 
ATOM     29  F   UNL     1       0.862   9.389  23.333  0.00  0.00    +0.000 F 
ENDBRANCH   5  26
TORSDOF 6
ENDMDL
MODEL 9
REMARK VINA RESULT:      -7.9      1.933      2.426
REMARK  Name = 
REMARK  6 active torsions:
REMARK  status: ('A' for Active; 'I' for Inactive)
REMARK    1  A    between atoms: C_2  and  C_14
REMARK    2  A    between atoms: N_3  and  C_4
REMARK    3  A    between atoms: C_8  and  O_9
REMARK    4  A    between atoms: O_9  and  C_10
REMARK    5  A    between atoms: C_17  and  N_18
REMARK    6  A    between atoms: C_23  and  C_24
REMARK                            x       y       z     vdW  Elec       q    Type
REMARK                         _______ _______ _______ _____ _____    ______ ____
ROOT
ATOM      1  C   UNL     1       1.246   9.115  19.551  0.00  0.00    +0.000 A 
ATOM      2  C   UNL     1       1.421   9.007  20.917  0.00  0.00    +0.000 A 
ATOM      3  C   UNL     1       0.759   9.906  21.765  0.00  0.00    +0.000 A 
ATOM      4  C   UNL     1      -0.084  10.964  21.322  0.00  0.00    +0.000 A 
ATOM      5  C   UNL     1      -0.268  11.044  19.922  0.00  0.00    +0.000 A 
ATOM      6  C   UNL     1       0.418  10.126  19.069  0.00  0.00    +0.000 A 
ENDROOT
BRANCH   4   7
ATOM      7  N   UNL     1      -0.649  11.801  22.271  0.00  0.00    +0.000 N 
ATOM      8  C   UNL     1      -1.866  11.496  23.033  0.00  0.00    +0.000 C 
ATOM      9  C   UNL     1      -2.632  12.812  23.059  0.00  0.00    +0.000 C 
ATOM     10  C   UNL     1      -1.521  13.838  23.177  0.00  0.00    +0.000 C 
ATOM     11  C   UNL     1      -0.409  13.257  22.307  0.00  0.00    +0.000 C 
ENDBRANCH   4   7
BRANCH   1  13
ATOM     12  O   UNL     1       2.116   8.668  17.447  0.00  0.00    +0.000 OA
ATOM     13  C   UNL     1       1.951   8.236  18.582  0.00  0.00    +0.000 C 
ATOM     14  N   UNL     1       2.315   6.979  19.044  0.00  0.00    +0.000 N 
ATOM     15  H   UNL     1       1.923   6.674  19.925  0.00  0.00    +0.000 HD
BRANCH  14  16
ATOM     16  C   UNL     1       3.012   6.000  18.291  0.00  0.00    +0.000 A 
ATOM     17  C   UNL     1       2.405   4.817  17.857  0.00  0.00    +0.000 A 
ATOM     18  C   UNL     1       3.137   3.849  17.173  0.00  0.00    +0.000 A 
ATOM     19  C   UNL     1       4.484   4.063  16.905  0.00  0.00    +0.000 A 
ATOM     20  C   UNL     1       5.097   5.258  17.283  0.00  0.00    +0.000 A 
ATOM     21  C   UNL     1       4.363   6.230  17.976  0.00  0.00    +0.000 A 
BRANCH  20  22
ATOM     22  O   UNL     1       6.426   5.327  16.968  0.00  0.00    +0.000 OA
BRANCH  22  23
ATOM     23  C   UNL     1       7.331   5.055  18.020  0.00  0.00    +0.000 C 
ATOM     24  F   UNL     1       8.248   4.155  17.587  0.00  0.00    +0.000 F 
ATOM     25  F   UNL     1       8.005   6.206  18.278  0.00  0.00    +0.000 F 
ENDBRANCH  22  23
ENDBRANCH  20  22
ENDBRANCH  14  16
ENDBRANCH   1  13
BRANCH   5  26
ATOM     26  C   UNL     1      -1.164  11.989  19.142  0.00  0.00    +0.000 C 
ATOM     27  F   UNL     1      -0.805  13.294  19.059  0.00  0.00    +0.000 F 
ATOM     28  F   UNL     1      -1.324  11.576  17.850  0.00  0.00    +0.000 F 
ATOM     29  F   UNL     1      -2.430  12.020  19.663  0.00  0.00    +0.000 F 
ENDBRANCH   5  26
TORSDOF 6
ENDMDL
