MODEL 1
REMARK VINA RESULT:      -7.6      0.000      0.000
REMARK  Name = 
REMARK  12 active torsions:
REMARK  status: ('A' for Active; 'I' for Inactive)
REMARK    1  A    between atoms: C_2  and  C_3
REMARK    2  A    between atoms: C_3  and  C_4
REMARK    3  A    between atoms: C_3  and  N_9
REMARK    4  A    between atoms: C_4  and  C_5
REMARK    5  A    between atoms: C_5  and  O_7
REMARK    6  A    between atoms: O_7  and  C_8
REMARK    7  A    between atoms: C_10  and  C_12
REMARK    8  A    between atoms: C_16  and  O_17
REMARK    9  A    between atoms: O_17  and  C_18
REMARK   10  A    between atoms: C_20  and  C_21
REMARK   11  A    between atoms: C_21  and  N_22
REMARK   12  A    between atoms: C_24  and  C_25
REMARK                            x       y       z     vdW  Elec       q    Type
REMARK                         _______ _______ _______ _____ _____    ______ ____
ROOT
ATOM      1  C   UNL     1       3.092   5.866  18.920  0.00  0.00    +0.000 A 
ATOM      2  C   UNL     1       2.450   5.613  20.153  0.00  0.00    +0.000 A 
ATOM      3  C   UNL     1       1.650   6.589  20.754  0.00  0.00    +0.000 A 
ATOM      4  C   UNL     1       1.470   7.831  20.141  0.00  0.00    +0.000 A 
ATOM      5  C   UNL     1       2.078   8.103  18.913  0.00  0.00    +0.000 A 
ATOM      6  C   UNL     1       2.890   7.122  18.315  0.00  0.00    +0.000 A 
ENDROOT
BRANCH   1   8
ATOM      7  N   UNL     1       5.115   5.233  17.578  0.00  0.00    +0.000 N 
ATOM      8  C   UNL     1       3.974   4.867  18.234  0.00  0.00    +0.000 C 
ATOM      9  O   UNL     1       3.660   3.684  18.278  0.00  0.00    +0.000 OA
ATOM     10  H   UNL     1       5.405   6.217  17.544  0.00  0.00    +0.000 HD
BRANCH   7  11
ATOM     11  C   UNL     1       5.992   4.279  16.916  0.00  0.00    +0.000 C 
BRANCH  11  13
ATOM     12  C   UNL     1       5.512   4.404  14.287  0.00  0.00    +0.000 C 
ATOM     13  C   UNL     1       5.742   4.344  15.468  0.00  0.00    +0.000 C 
ENDBRANCH  11  13
BRANCH  11  14
ATOM     14  C   UNL     1       7.465   4.613  17.214  0.00  0.00    +0.000 C 
BRANCH  14  15
ATOM     15  C   UNL     1       7.612   5.956  17.883  0.00  0.00    +0.000 C 
ATOM     16  O   UNL     1       7.805   6.014  19.090  0.00  0.00    +0.000 OA
BRANCH  15  17
ATOM     17  O   UNL     1       7.543   7.088  17.136  0.00  0.00    +0.000 OA
ATOM     18  C   UNL     1       7.807   8.352  17.620  0.00  0.00    +0.000 C 
ENDBRANCH  15  17
ENDBRANCH  14  15
ENDBRANCH  11  14
ENDBRANCH   7  11
ENDBRANCH   1   8
BRANCH   5  19
ATOM     19  O   UNL     1       1.888   9.314  18.328  0.00  0.00    +0.000 OA
BRANCH  19  20
ATOM     20  C   UNL     1       0.782  10.083  18.491  0.00  0.00    +0.000 A 
ATOM     21  C   UNL     1       0.804  11.164  19.377  0.00  0.00    +0.000 A 
ATOM     22  C   UNL     1      -0.353  11.941  19.551  0.00  0.00    +0.000 A 
ATOM     23  C   UNL     1      -1.518  11.606  18.844  0.00  0.00    +0.000 A 
ATOM     24  C   UNL     1      -1.508  10.508  17.969  0.00  0.00    +0.000 A 
ATOM     25  N   UNL     1      -0.366   9.790  17.819  0.00  0.00    +0.000 NA
BRANCH  24  26
ATOM     26  C   UNL     1      -2.727  10.088  17.197  0.00  0.00    +0.000 C 
ATOM     27  F   UNL     1      -3.462   9.132  17.876  0.00  0.00    +0.000 F 
ATOM     28  F   UNL     1      -3.529  11.191  16.972  0.00  0.00    +0.000 F 
ATOM     29  F   UNL     1      -2.334   9.562  15.980  0.00  0.00    +0.000 F 
ENDBRANCH  24  26
BRANCH  22  30
ATOM     30  C   UNL     1      -0.361  13.113  20.496  0.00  0.00    +0.000 C 
BRANCH  30  31
ATOM     31  N   UNL     1       0.590  12.898  21.585  0.00  0.00    +0.000 NA
ATOM     32  H   UNL     1       1.101  11.999  21.423  0.00  0.00    +0.000 HD
ATOM     33  H   UNL     1       0.056  12.809  22.479  0.00  0.00    +0.000 HD
ENDBRANCH  30  31
ENDBRANCH  22  30
ENDBRANCH  19  20
ENDBRANCH   5  19
TORSDOF 11
ENDMDL
MODEL 2
REMARK VINA RESULT:      -7.5      0.754      1.036
REMARK  Name = 
REMARK  12 active torsions:
REMARK  status: ('A' for Active; 'I' for Inactive)
REMARK    1  A    between atoms: C_2  and  C_3
REMARK    2  A    between atoms: C_3  and  C_4
REMARK    3  A    between atoms: C_3  and  N_9
REMARK    4  A    between atoms: C_4  and  C_5
REMARK    5  A    between atoms: C_5  and  O_7
REMARK    6  A    between atoms: O_7  and  C_8
REMARK    7  A    between atoms: C_10  and  C_12
REMARK    8  A    between atoms: C_16  and  O_17
REMARK    9  A    between atoms: O_17  and  C_18
REMARK   10  A    between atoms: C_20  and  C_21
REMARK   11  A    between atoms: C_21  and  N_22
REMARK   12  A    between atoms: C_24  and  C_25
REMARK                            x       y       z     vdW  Elec       q    Type
REMARK                         _______ _______ _______ _____ _____    ______ ____
ROOT
ATOM      1  C   UNL     1       2.998   6.198  19.010  0.00  0.00    +0.000 A 
ATOM      2  C   UNL     1       2.387   6.031  20.273  0.00  0.00    +0.000 A 
ATOM      3  C   UNL     1       1.593   7.043  20.820  0.00  0.00    +0.000 A 
ATOM      4  C   UNL     1       1.389   8.236  20.123  0.00  0.00    +0.000 A 
ATOM      5  C   UNL     1       1.966   8.422  18.864  0.00  0.00    +0.000 A 
ATOM      6  C   UNL     1       2.773   7.405  18.320  0.00  0.00    +0.000 A 
ENDROOT
BRANCH   1   8
ATOM      7  N   UNL     1       5.100   5.456  17.856  0.00  0.00    +0.000 N 
ATOM      8  C   UNL     1       3.872   5.157  18.378  0.00  0.00    +0.000 C 
ATOM      9  O   UNL     1       3.471   4.001  18.343  0.00  0.00    +0.000 OA
ATOM     10  H   UNL     1       5.462   6.416  17.891  0.00  0.00    +0.000 HD
BRANCH   7  11
ATOM     11  C   UNL     1       5.969   4.460  17.249  0.00  0.00    +0.000 C 
BRANCH  11  13
ATOM     12  C   UNL     1       5.666   4.539  14.593  0.00  0.00    +0.000 C 
ATOM     13  C   UNL     1       5.793   4.515  15.791  0.00  0.00    +0.000 C 
ENDBRANCH  11  13
BRANCH  11  14
ATOM     14  C   UNL     1       7.438   4.741  17.615  0.00  0.00    +0.000 C 
BRANCH  14  15
ATOM     15  C   UNL     1       7.554   5.679  18.790  0.00  0.00    +0.000 C 
ATOM     16  O   UNL     1       7.190   5.311  19.898  0.00  0.00    +0.000 OA
BRANCH  15  17
ATOM     17  O   UNL     1       8.077   6.920  18.608  0.00  0.00    +0.000 OA
ATOM     18  C   UNL     1       7.745   7.754  17.562  0.00  0.00    +0.000 C 
ENDBRANCH  15  17
ENDBRANCH  14  15
ENDBRANCH  11  14
ENDBRANCH   7  11
ENDBRANCH   1   8
BRANCH   5  19
ATOM     19  O   UNL     1       1.753   9.586  18.197  0.00  0.00    +0.000 OA
BRANCH  19  20
ATOM     20  C   UNL     1       0.610  10.313  18.265  0.00  0.00    +0.000 A 
ATOM     21  C   UNL     1       0.581  11.509  18.990  0.00  0.00    +0.000 A 
ATOM     22  C   UNL     1      -0.613  12.243  19.067  0.00  0.00    +0.000 A 
ATOM     23  C   UNL     1      -1.763  11.754  18.429  0.00  0.00    +0.000 A 
ATOM     24  C   UNL     1      -1.701  10.545  17.716  0.00  0.00    +0.000 A 
ATOM     25  N   UNL     1      -0.525   9.871  17.655  0.00  0.00    +0.000 NA
BRANCH  24  26
ATOM     26  C   UNL     1      -2.901   9.959  17.027  0.00  0.00    +0.000 C 
ATOM     27  F   UNL     1      -2.556   9.316  15.851  0.00  0.00    +0.000 F 
ATOM     28  F   UNL     1      -3.514   9.049  17.868  0.00  0.00    +0.000 F 
ATOM     29  F   UNL     1      -3.795  10.972  16.732  0.00  0.00    +0.000 F 
ENDBRANCH  24  26
BRANCH  22  30
ATOM     30  C   UNL     1      -0.677  13.535  19.838  0.00  0.00    +0.000 C 
BRANCH  30  31
ATOM     31  N   UNL     1      -1.925  13.619  20.592  0.00  0.00    +0.000 NA
ATOM     32  H   UNL     1      -2.715  13.798  19.929  0.00  0.00    +0.000 HD
ATOM     33  H   UNL     1      -1.863  14.433  21.247  0.00  0.00    +0.000 HD
ENDBRANCH  30  31
ENDBRANCH  22  30
ENDBRANCH  19  20
ENDBRANCH   5  19
TORSDOF 11
ENDMDL
MODEL 3
REMARK VINA RESULT:      -7.3      4.445      8.991
REMARK  Name = 
REMARK  12 active torsions:
REMARK  status: ('A' for Active; 'I' for Inactive)
REMARK    1  A    between atoms: C_2  and  C_3
REMARK    2  A    between atoms: C_3  and  C_4
REMARK    3  A    between atoms: C_3  and  N_9
REMARK    4  A    between atoms: C_4  and  C_5
REMARK    5  A    between atoms: C_5  and  O_7
REMARK    6  A    between atoms: O_7  and  C_8
REMARK    7  A    between atoms: C_10  and  C_12
REMARK    8  A    between atoms: C_16  and  O_17
REMARK    9  A    between atoms: O_17  and  C_18
REMARK   10  A    between atoms: C_20  and  C_21
REMARK   11  A    between atoms: C_21  and  N_22
REMARK   12  A    between atoms: C_24  and  C_25
REMARK                            x       y       z     vdW  Elec       q    Type
REMARK                         _______ _______ _______ _____ _____    ______ ____
ROOT
ATOM      1  C   UNL     1       1.916   5.123  19.787  0.00  0.00    +0.000 A 
ATOM      2  C   UNL     1       0.946   4.203  20.245  0.00  0.00    +0.000 A 
ATOM      3  C   UNL     1       1.010   2.857  19.875  0.00  0.00    +0.000 A 
ATOM      4  C   UNL     1       2.038   2.399  19.047  0.00  0.00    +0.000 A 
ATOM      5  C   UNL     1       3.020   3.282  18.593  0.00  0.00    +0.000 A 
ATOM      6  C   UNL     1       2.949   4.639  18.960  0.00  0.00    +0.000 A 
ENDROOT
BRANCH   1   8
ATOM      7  N   UNL     1       0.879   7.139  20.862  0.00  0.00    +0.000 N 
ATOM      8  C   UNL     1       1.893   6.580  20.136  0.00  0.00    +0.000 C 
ATOM      9  O   UNL     1       2.823   7.284  19.764  0.00  0.00    +0.000 OA
ATOM     10  H   UNL     1       0.099   6.562  21.198  0.00  0.00    +0.000 HD
BRANCH   7  11
ATOM     11  C   UNL     1       0.842   8.548  21.222  0.00  0.00    +0.000 C 
BRANCH  11  13
ATOM     12  C   UNL     1       0.778  10.016  18.987  0.00  0.00    +0.000 C 
ATOM     13  C   UNL     1       0.814   9.344  19.987  0.00  0.00    +0.000 C 
ENDBRANCH  11  13
BRANCH  11  14
ATOM     14  C   UNL     1      -0.405   8.848  22.073  0.00  0.00    +0.000 C 
BRANCH  14  15
ATOM     15  C   UNL     1      -0.156   9.957  23.064  0.00  0.00    +0.000 C 
ATOM     16  O   UNL     1       0.273   9.688  24.178  0.00  0.00    +0.000 OA
BRANCH  15  17
ATOM     17  O   UNL     1      -0.396  11.245  22.704  0.00  0.00    +0.000 OA
ATOM     18  C   UNL     1      -1.463  11.989  23.160  0.00  0.00    +0.000 C 
ENDBRANCH  15  17
ENDBRANCH  14  15
ENDBRANCH  11  14
ENDBRANCH   7  11
ENDBRANCH   1   8
BRANCH   5  19
ATOM     19  O   UNL     1       4.016   2.819  17.794  0.00  0.00    +0.000 OA
BRANCH  19  20
ATOM     20  C   UNL     1       5.060   3.566  17.354  0.00  0.00    +0.000 A 
ATOM     21  C   UNL     1       5.338   3.645  15.986  0.00  0.00    +0.000 A 
ATOM     22  C   UNL     1       6.433   4.407  15.545  0.00  0.00    +0.000 A 
ATOM     23  C   UNL     1       7.239   5.062  16.489  0.00  0.00    +0.000 A 
ATOM     24  C   UNL     1       6.936   4.954  17.856  0.00  0.00    +0.000 A 
ATOM     25  N   UNL     1       5.862   4.218  18.241  0.00  0.00    +0.000 NA
BRANCH  24  26
ATOM     26  C   UNL     1       7.770   5.616  18.916  0.00  0.00    +0.000 C 
ATOM     27  F   UNL     1       8.218   6.862  18.516  0.00  0.00    +0.000 F 
ATOM     28  F   UNL     1       7.017   5.761  20.066  0.00  0.00    +0.000 F 
ATOM     29  F   UNL     1       8.866   4.820  19.194  0.00  0.00    +0.000 F 
ENDBRANCH  24  26
BRANCH  22  30
ATOM     30  C   UNL     1       6.758   4.514  14.079  0.00  0.00    +0.000 C 
BRANCH  30  31
ATOM     31  N   UNL     1       7.785   5.529  13.856  0.00  0.00    +0.000 NA
ATOM     32  H   UNL     1       8.707   5.059  13.706  0.00  0.00    +0.000 HD
ATOM     33  H   UNL     1       7.860   6.119  14.716  0.00  0.00    +0.000 HD
ENDBRANCH  30  31
ENDBRANCH  22  30
ENDBRANCH  19  20
ENDBRANCH   5  19
TORSDOF 11
ENDMDL
MODEL 4
REMARK VINA RESULT:      -7.3      2.303      3.061
REMARK  Name = 
REMARK  12 active torsions:
REMARK  status: ('A' for Active; 'I' for Inactive)
REMARK    1  A    between atoms: C_2  and  C_3
REMARK    2  A    between atoms: C_3  and  C_4
REMARK    3  A    between atoms: C_3  and  N_9
REMARK    4  A    between atoms: C_4  and  C_5
REMARK    5  A    between atoms: C_5  and  O_7
REMARK    6  A    between atoms: O_7  and  C_8
REMARK    7  A    between atoms: C_10  and  C_12
REMARK    8  A    between atoms: C_16  and  O_17
REMARK    9  A    between atoms: O_17  and  C_18
REMARK   10  A    between atoms: C_20  and  C_21
REMARK   11  A    between atoms: C_21  and  N_22
REMARK   12  A    between atoms: C_24  and  C_25
REMARK                            x       y       z     vdW  Elec       q    Type
REMARK                         _______ _______ _______ _____ _____    ______ ____
ROOT
ATOM      1  C   UNL     1       2.967   3.795  18.697  0.00  0.00    +0.000 A 
ATOM      2  C   UNL     1       1.858   2.922  18.758  0.00  0.00    +0.000 A 
ATOM      3  C   UNL     1       0.815   3.158  19.658  0.00  0.00    +0.000 A 
ATOM      4  C   UNL     1       0.851   4.264  20.509  0.00  0.00    +0.000 A 
ATOM      5  C   UNL     1       1.927   5.154  20.458  0.00  0.00    +0.000 A 
ATOM      6  C   UNL     1       2.981   4.910  19.558  0.00  0.00    +0.000 A 
ENDROOT
BRANCH   1   8
ATOM      7  N   UNL     1       5.308   4.251  17.917  0.00  0.00    +0.000 N 
ATOM      8  C   UNL     1       4.123   3.588  17.765  0.00  0.00    +0.000 C 
ATOM      9  O   UNL     1       3.996   2.788  16.847  0.00  0.00    +0.000 OA
ATOM     10  H   UNL     1       5.440   4.913  18.690  0.00  0.00    +0.000 HD
BRANCH   7  11
ATOM     11  C   UNL     1       6.447   4.057  17.032  0.00  0.00    +0.000 C 
BRANCH  11  13
ATOM     12  C   UNL     1       5.925   5.215  14.678  0.00  0.00    +0.000 C 
ATOM     13  C   UNL     1       6.152   4.704  15.745  0.00  0.00    +0.000 C 
ENDBRANCH  11  13
BRANCH  11  14
ATOM     14  C   UNL     1       7.715   4.669  17.654  0.00  0.00    +0.000 C 
BRANCH  14  15
ATOM     15  C   UNL     1       7.386   5.644  18.755  0.00  0.00    +0.000 C 
ATOM     16  O   UNL     1       7.423   5.276  19.921  0.00  0.00    +0.000 OA
BRANCH  15  17
ATOM     17  O   UNL     1       7.067   6.927  18.443  0.00  0.00    +0.000 OA
ATOM     18  C   UNL     1       7.623   7.629  17.395  0.00  0.00    +0.000 C 
ENDBRANCH  15  17
ENDBRANCH  14  15
ENDBRANCH  11  14
ENDBRANCH   7  11
ENDBRANCH   1   8
BRANCH   5  19
ATOM     19  O   UNL     1       1.945   6.229  21.289  0.00  0.00    +0.000 OA
BRANCH  19  20
ATOM     20  C   UNL     1       1.546   7.477  20.941  0.00  0.00    +0.000 A 
ATOM     21  C   UNL     1       0.855   8.274  21.859  0.00  0.00    +0.000 A 
ATOM     22  C   UNL     1       0.432   9.559  21.480  0.00  0.00    +0.000 A 
ATOM     23  C   UNL     1       0.694  10.013  20.178  0.00  0.00    +0.000 A 
ATOM     24  C   UNL     1       1.382   9.183  19.279  0.00  0.00    +0.000 A 
ATOM     25  N   UNL     1       1.785   7.953  19.687  0.00  0.00    +0.000 NA
BRANCH  24  26
ATOM     26  C   UNL     1       1.678   9.603  17.866  0.00  0.00    +0.000 C 
ATOM     27  F   UNL     1       2.311  10.832  17.817  0.00  0.00    +0.000 F 
ATOM     28  F   UNL     1       2.491   8.658  17.269  0.00  0.00    +0.000 F 
ATOM     29  F   UNL     1       0.492   9.687  17.160  0.00  0.00    +0.000 F 
ENDBRANCH  24  26
BRANCH  22  30
ATOM     30  C   UNL     1      -0.313  10.443  22.446  0.00  0.00    +0.000 C 
BRANCH  30  31
ATOM     31  N   UNL     1      -0.111  11.850  22.110  0.00  0.00    +0.000 NA
ATOM     32  H   UNL     1      -0.657  12.444  22.776  0.00  0.00    +0.000 HD
ATOM     33  H   UNL     1      -0.483  12.018  21.147  0.00  0.00    +0.000 HD
ENDBRANCH  30  31
ENDBRANCH  22  30
ENDBRANCH  19  20
ENDBRANCH   5  19
TORSDOF 11
ENDMDL
MODEL 5
REMARK VINA RESULT:      -7.3      1.891      2.784
REMARK  Name = 
REMARK  12 active torsions:
REMARK  status: ('A' for Active; 'I' for Inactive)
REMARK    1  A    between atoms: C_2  and  C_3
REMARK    2  A    between atoms: C_3  and  C_4
REMARK    3  A    between atoms: C_3  and  N_9
REMARK    4  A    between atoms: C_4  and  C_5
REMARK    5  A    between atoms: C_5  and  O_7
REMARK    6  A    between atoms: O_7  and  C_8
REMARK    7  A    between atoms: C_10  and  C_12
REMARK    8  A    between atoms: C_16  and  O_17
REMARK    9  A    between atoms: O_17  and  C_18
REMARK   10  A    between atoms: C_20  and  C_21
REMARK   11  A    between atoms: C_21  and  N_22
REMARK   12  A    between atoms: C_24  and  C_25
REMARK                            x       y       z     vdW  Elec       q    Type
REMARK                         _______ _______ _______ _____ _____    ______ ____
ROOT
ATOM      1  C   UNL     1       2.934   6.137  18.970  0.00  0.00    +0.000 A 
ATOM      2  C   UNL     1       2.375   5.752  20.208  0.00  0.00    +0.000 A 
ATOM      3  C   UNL     1       1.578   6.639  20.937  0.00  0.00    +0.000 A 
ATOM      4  C   UNL     1       1.317   7.921  20.448  0.00  0.00    +0.000 A 
ATOM      5  C   UNL     1       1.842   8.323  19.217  0.00  0.00    +0.000 A 
ATOM      6  C   UNL     1       2.653   7.432  18.490  0.00  0.00    +0.000 A 
ENDROOT
BRANCH   1   8
ATOM      7  N   UNL     1       5.165   5.396  18.092  0.00  0.00    +0.000 N 
ATOM      8  C   UNL     1       3.809   5.238  18.150  0.00  0.00    +0.000 C 
ATOM      9  O   UNL     1       3.285   4.326  17.523  0.00  0.00    +0.000 OA
ATOM     10  H   UNL     1       5.626   6.144  18.625  0.00  0.00    +0.000 HD
BRANCH   7  11
ATOM     11  C   UNL     1       6.035   4.528  17.313  0.00  0.00    +0.000 C 
BRANCH  11  13
ATOM     12  C   UNL     1       5.892   5.245  14.740  0.00  0.00    +0.000 C 
ATOM     13  C   UNL     1       5.941   4.923  15.900  0.00  0.00    +0.000 C 
ENDBRANCH  11  13
BRANCH  11  14
ATOM     14  C   UNL     1       7.489   4.653  17.802  0.00  0.00    +0.000 C 
BRANCH  14  15
ATOM     15  C   UNL     1       7.634   5.708  18.870  0.00  0.00    +0.000 C 
ATOM     16  O   UNL     1       7.278   5.464  20.015  0.00  0.00    +0.000 OA
BRANCH  15  17
ATOM     17  O   UNL     1       8.173   6.914  18.553  0.00  0.00    +0.000 OA
ATOM     18  C   UNL     1       7.649   7.771  17.609  0.00  0.00    +0.000 C 
ENDBRANCH  15  17
ENDBRANCH  14  15
ENDBRANCH  11  14
ENDBRANCH   7  11
ENDBRANCH   1   8
BRANCH   5  19
ATOM     19  O   UNL     1       1.575   9.572  18.753  0.00  0.00    +0.000 OA
BRANCH  19  20
ATOM     20  C   UNL     1       0.340  10.130  18.713  0.00  0.00    +0.000 A 
ATOM     21  C   UNL     1      -0.542   9.806  17.676  0.00  0.00    +0.000 A 
ATOM     22  C   UNL     1      -1.812  10.405  17.636  0.00  0.00    +0.000 A 
ATOM     23  C   UNL     1      -2.167  11.332  18.628  0.00  0.00    +0.000 A 
ATOM     24  C   UNL     1      -1.254  11.640  19.649  0.00  0.00    +0.000 A 
ATOM     25  N   UNL     1      -0.041  11.031  19.660  0.00  0.00    +0.000 NA
BRANCH  24  26
ATOM     26  C   UNL     1      -1.567  12.637  20.730  0.00  0.00    +0.000 C 
ATOM     27  F   UNL     1      -2.778  13.270  20.511  0.00  0.00    +0.000 F 
ATOM     28  F   UNL     1      -1.617  11.988  21.949  0.00  0.00    +0.000 F 
ATOM     29  F   UNL     1      -0.568  13.592  20.769  0.00  0.00    +0.000 F 
ENDBRANCH  24  26
BRANCH  22  30
ATOM     30  C   UNL     1      -2.785  10.076  16.534  0.00  0.00    +0.000 C 
BRANCH  30  31
ATOM     31  N   UNL     1      -2.930  11.211  15.626  0.00  0.00    +0.000 NA
ATOM     32  H   UNL     1      -3.367  12.010  16.140  0.00  0.00    +0.000 HD
ATOM     33  H   UNL     1      -3.576  10.934  14.850  0.00  0.00    +0.000 HD
ENDBRANCH  30  31
ENDBRANCH  22  30
ENDBRANCH  19  20
ENDBRANCH   5  19
TORSDOF 11
ENDMDL
MODEL 6
REMARK VINA RESULT:      -7.3      3.907      8.641
REMARK  Name = 
REMARK  12 active torsions:
REMARK  status: ('A' for Active; 'I' for Inactive)
REMARK    1  A    between atoms: C_2  and  C_3
REMARK    2  A    between atoms: C_3  and  C_4
REMARK    3  A    between atoms: C_3  and  N_9
REMARK    4  A    between atoms: C_4  and  C_5
REMARK    5  A    between atoms: C_5  and  O_7
REMARK    6  A    between atoms: O_7  and  C_8
REMARK    7  A    between atoms: C_10  and  C_12
REMARK    8  A    between atoms: C_16  and  O_17
REMARK    9  A    between atoms: O_17  and  C_18
REMARK   10  A    between atoms: C_20  and  C_21
REMARK   11  A    between atoms: C_21  and  N_22
REMARK   12  A    between atoms: C_24  and  C_25
REMARK                            x       y       z     vdW  Elec       q    Type
REMARK                         _______ _______ _______ _____ _____    ______ ____
ROOT
ATOM      1  C   UNL     1       1.975   6.464  19.761  0.00  0.00    +0.000 A 
ATOM      2  C   UNL     1       1.345   5.823  20.850  0.00  0.00    +0.000 A 
ATOM      3  C   UNL     1       1.546   4.460  21.088  0.00  0.00    +0.000 A 
ATOM      4  C   UNL     1       2.377   3.711  20.252  0.00  0.00    +0.000 A 
ATOM      5  C   UNL     1       3.028   4.323  19.178  0.00  0.00    +0.000 A 
ATOM      6  C   UNL     1       2.817   5.693  18.935  0.00  0.00    +0.000 A 
ENDROOT
BRANCH   1   8
ATOM      7  N   UNL     1       1.036   8.742  20.233  0.00  0.00    +0.000 N 
ATOM      8  C   UNL     1       1.788   7.917  19.445  0.00  0.00    +0.000 C 
ATOM      9  O   UNL     1       2.340   8.374  18.452  0.00  0.00    +0.000 OA
ATOM     10  H   UNL     1       0.579   8.382  21.079  0.00  0.00    +0.000 HD
BRANCH   7  11
ATOM     11  C   UNL     1       0.850  10.158  19.952  0.00  0.00    +0.000 C 
BRANCH  11  13
ATOM     12  C   UNL     1      -1.505  10.458  18.718  0.00  0.00    +0.000 C 
ATOM     13  C   UNL     1      -0.437  10.331  19.263  0.00  0.00    +0.000 C 
ENDBRANCH  11  13
BRANCH  11  14
ATOM     14  C   UNL     1       0.862  10.967  21.261  0.00  0.00    +0.000 C 
BRANCH  14  15
ATOM     15  C   UNL     1       0.260  10.192  22.406  0.00  0.00    +0.000 C 
ATOM     16  O   UNL     1       0.929   9.344  22.982  0.00  0.00    +0.000 OA
BRANCH  15  17
ATOM     17  O   UNL     1      -1.014  10.454  22.797  0.00  0.00    +0.000 OA
ATOM     18  C   UNL     1      -1.556  11.719  22.871  0.00  0.00    +0.000 C 
ENDBRANCH  15  17
ENDBRANCH  14  15
ENDBRANCH  11  14
ENDBRANCH   7  11
ENDBRANCH   1   8
BRANCH   5  19
ATOM     19  O   UNL     1       3.837   3.581  18.378  0.00  0.00    +0.000 OA
BRANCH  19  20
ATOM     20  C   UNL     1       5.002   4.023  17.841  0.00  0.00    +0.000 A 
ATOM     21  C   UNL     1       6.006   4.536  18.668  0.00  0.00    +0.000 A 
ATOM     22  C   UNL     1       7.199   5.007  18.097  0.00  0.00    +0.000 A 
ATOM     23  C   UNL     1       7.356   4.970  16.703  0.00  0.00    +0.000 A 
ATOM     24  C   UNL     1       6.325   4.456  15.902  0.00  0.00    +0.000 A 
ATOM     25  N   UNL     1       5.191   4.000  16.492  0.00  0.00    +0.000 NA
BRANCH  24  26
ATOM     26  C   UNL     1       6.424   4.406  14.403  0.00  0.00    +0.000 C 
ATOM     27  F   UNL     1       7.543   5.073  13.938  0.00  0.00    +0.000 F 
ATOM     28  F   UNL     1       6.489   3.087  13.993  0.00  0.00    +0.000 F 
ATOM     29  F   UNL     1       5.298   4.992  13.854  0.00  0.00    +0.000 F 
ENDBRANCH  24  26
BRANCH  22  30
ATOM     30  C   UNL     1       8.301   5.564  18.961  0.00  0.00    +0.000 C 
BRANCH  30  31
ATOM     31  N   UNL     1       7.949   5.450  20.374  0.00  0.00    +0.000 NA
ATOM     32  H   UNL     1       7.024   4.968  20.461  0.00  0.00    +0.000 HD
ATOM     33  H   UNL     1       7.849   6.413  20.770  0.00  0.00    +0.000 HD
ENDBRANCH  30  31
ENDBRANCH  22  30
ENDBRANCH  19  20
ENDBRANCH   5  19
TORSDOF 11
ENDMDL
MODEL 7
REMARK VINA RESULT:      -7.3      0.723      1.031
REMARK  Name = 
REMARK  12 active torsions:
REMARK  status: ('A' for Active; 'I' for Inactive)
REMARK    1  A    between atoms: C_2  and  C_3
REMARK    2  A    between atoms: C_3  and  C_4
REMARK    3  A    between atoms: C_3  and  N_9
REMARK    4  A    between atoms: C_4  and  C_5
REMARK    5  A    between atoms: C_5  and  O_7
REMARK    6  A    between atoms: O_7  and  C_8
REMARK    7  A    between atoms: C_10  and  C_12
REMARK    8  A    between atoms: C_16  and  O_17
REMARK    9  A    between atoms: O_17  and  C_18
REMARK   10  A    between atoms: C_20  and  C_21
REMARK   11  A    between atoms: C_21  and  N_22
REMARK   12  A    between atoms: C_24  and  C_25
REMARK                            x       y       z     vdW  Elec       q    Type
REMARK                         _______ _______ _______ _____ _____    ______ ____
ROOT
ATOM      1  C   UNL     1       3.322   5.849  18.939  0.00  0.00    +0.000 A 
ATOM      2  C   UNL     1       2.649   5.646  20.164  0.00  0.00    +0.000 A 
ATOM      3  C   UNL     1       1.777   6.616  20.667  0.00  0.00    +0.000 A 
ATOM      4  C   UNL     1       1.555   7.801  19.963  0.00  0.00    +0.000 A 
ATOM      5  C   UNL     1       2.194   8.021  18.740  0.00  0.00    +0.000 A 
ATOM      6  C   UNL     1       3.078   7.047  18.240  0.00  0.00    +0.000 A 
ENDROOT
BRANCH   1   8
ATOM      7  N   UNL     1       5.008   5.119  17.230  0.00  0.00    +0.000 N 
ATOM      8  C   UNL     1       4.280   4.854  18.356  0.00  0.00    +0.000 C 
ATOM      9  O   UNL     1       4.417   3.776  18.919  0.00  0.00    +0.000 OA
ATOM     10  H   UNL     1       4.920   6.024  16.752  0.00  0.00    +0.000 HD
BRANCH   7  11
ATOM     11  C   UNL     1       5.952   4.174  16.653  0.00  0.00    +0.000 C 
BRANCH  11  13
ATOM     12  C   UNL     1       5.613   4.187  14.000  0.00  0.00    +0.000 C 
ATOM     13  C   UNL     1       5.780   4.175  15.193  0.00  0.00    +0.000 C 
ENDBRANCH  11  13
BRANCH  11  14
ATOM     14  C   UNL     1       7.394   4.572  17.016  0.00  0.00    +0.000 C 
BRANCH  14  15
ATOM     15  C   UNL     1       7.507   6.041  17.339  0.00  0.00    +0.000 C 
ATOM     16  O   UNL     1       7.447   6.865  16.437  0.00  0.00    +0.000 OA
BRANCH  15  17
ATOM     17  O   UNL     1       7.658   6.434  18.630  0.00  0.00    +0.000 OA
ATOM     18  C   UNL     1       7.610   5.579  19.710  0.00  0.00    +0.000 C 
ENDBRANCH  15  17
ENDBRANCH  14  15
ENDBRANCH  11  14
ENDBRANCH   7  11
ENDBRANCH   1   8
BRANCH   5  19
ATOM     19  O   UNL     1       1.963   9.176  18.064  0.00  0.00    +0.000 OA
BRANCH  19  20
ATOM     20  C   UNL     1       0.985  10.065  18.371  0.00  0.00    +0.000 A 
ATOM     21  C   UNL     1       1.239  11.103  19.274  0.00  0.00    +0.000 A 
ATOM     22  C   UNL     1       0.213  12.005  19.597  0.00  0.00    +0.000 A 
ATOM     23  C   UNL     1      -1.056  11.839  19.022  0.00  0.00    +0.000 A 
ATOM     24  C   UNL     1      -1.279  10.780  18.126  0.00  0.00    +0.000 A 
ATOM     25  N   UNL     1      -0.258   9.936  17.830  0.00  0.00    +0.000 NA
BRANCH  24  26
ATOM     26  C   UNL     1      -2.619  10.537  17.490  0.00  0.00    +0.000 C 
ATOM     27  F   UNL     1      -3.009   9.214  17.602  0.00  0.00    +0.000 F 
ATOM     28  F   UNL     1      -3.567  11.335  18.102  0.00  0.00    +0.000 F 
ATOM     29  F   UNL     1      -2.551  10.867  16.149  0.00  0.00    +0.000 F 
ENDBRANCH  24  26
BRANCH  22  30
ATOM     30  C   UNL     1       0.455  13.135  20.564  0.00  0.00    +0.000 C 
BRANCH  30  31
ATOM     31  N   UNL     1       1.766  12.997  21.193  0.00  0.00    +0.000 NA
ATOM     32  H   UNL     1       2.453  13.607  20.693  0.00  0.00    +0.000 HD
ATOM     33  H   UNL     1       2.080  12.004  21.090  0.00  0.00    +0.000 HD
ENDBRANCH  30  31
ENDBRANCH  22  30
ENDBRANCH  19  20
ENDBRANCH   5  19
TORSDOF 11
ENDMDL
MODEL 8
REMARK VINA RESULT:      -7.3      1.952      2.818
REMARK  Name = 
REMARK  12 active torsions:
REMARK  status: ('A' for Active; 'I' for Inactive)
REMARK    1  A    between atoms: C_2  and  C_3
REMARK    2  A    between atoms: C_3  and  C_4
REMARK    3  A    between atoms: C_3  and  N_9
REMARK    4  A    between atoms: C_4  and  C_5
REMARK    5  A    between atoms: C_5  and  O_7
REMARK    6  A    between atoms: O_7  and  C_8
REMARK    7  A    between atoms: C_10  and  C_12
REMARK    8  A    between atoms: C_16  and  O_17
REMARK    9  A    between atoms: O_17  and  C_18
REMARK   10  A    between atoms: C_20  and  C_21
REMARK   11  A    between atoms: C_21  and  N_22
REMARK   12  A    between atoms: C_24  and  C_25
REMARK                            x       y       z     vdW  Elec       q    Type
REMARK                         _______ _______ _______ _____ _____    ______ ____
ROOT
ATOM      1  C   UNL     1       3.031   6.211  19.050  0.00  0.00    +0.000 A 
ATOM      2  C   UNL     1       2.406   6.033  20.305  0.00  0.00    +0.000 A 
ATOM      3  C   UNL     1       1.601   7.039  20.847  0.00  0.00    +0.000 A 
ATOM      4  C   UNL     1       1.398   8.234  20.154  0.00  0.00    +0.000 A 
ATOM      5  C   UNL     1       1.989   8.429  18.904  0.00  0.00    +0.000 A 
ATOM      6  C   UNL     1       2.807   7.420  18.363  0.00  0.00    +0.000 A 
ENDROOT
BRANCH   1   8
ATOM      7  N   UNL     1       5.115   5.498  17.847  0.00  0.00    +0.000 N 
ATOM      8  C   UNL     1       3.918   5.177  18.423  0.00  0.00    +0.000 C 
ATOM      9  O   UNL     1       3.555   4.008  18.442  0.00  0.00    +0.000 OA
ATOM     10  H   UNL     1       5.445   6.471  17.836  0.00  0.00    +0.000 HD
BRANCH   7  11
ATOM     11  C   UNL     1       5.997   4.511  17.243  0.00  0.00    +0.000 C 
BRANCH  11  13
ATOM     12  C   UNL     1       5.686   4.594  14.588  0.00  0.00    +0.000 C 
ATOM     13  C   UNL     1       5.832   4.570  15.784  0.00  0.00    +0.000 C 
ENDBRANCH  11  13
BRANCH  11  14
ATOM     14  C   UNL     1       7.460   4.801  17.623  0.00  0.00    +0.000 C 
BRANCH  14  15
ATOM     15  C   UNL     1       7.560   5.742  18.796  0.00  0.00    +0.000 C 
ATOM     16  O   UNL     1       7.222   5.361  19.909  0.00  0.00    +0.000 OA
BRANCH  15  17
ATOM     17  O   UNL     1       8.040   6.999  18.610  0.00  0.00    +0.000 OA
ATOM     18  C   UNL     1       7.681   7.815  17.558  0.00  0.00    +0.000 C 
ENDBRANCH  15  17
ENDBRANCH  14  15
ENDBRANCH  11  14
ENDBRANCH   7  11
ENDBRANCH   1   8
BRANCH   5  19
ATOM     19  O   UNL     1       1.777   9.596  18.240  0.00  0.00    +0.000 OA
BRANCH  19  20
ATOM     20  C   UNL     1       0.615  10.295  18.265  0.00  0.00    +0.000 A 
ATOM     21  C   UNL     1      -0.558   9.725  17.761  0.00  0.00    +0.000 A 
ATOM     22  C   UNL     1      -1.750  10.467  17.776  0.00  0.00    +0.000 A 
ATOM     23  C   UNL     1      -1.739  11.776  18.281  0.00  0.00    +0.000 A 
ATOM     24  C   UNL     1      -0.542  12.321  18.772  0.00  0.00    +0.000 A 
ATOM     25  N   UNL     1       0.587  11.568  18.751  0.00  0.00    +0.000 NA
BRANCH  24  26
ATOM     26  C   UNL     1      -0.460  13.722  19.309  0.00  0.00    +0.000 C 
ATOM     27  F   UNL     1       0.620  13.885  20.159  0.00  0.00    +0.000 F 
ATOM     28  F   UNL     1      -0.335  14.609  18.256  0.00  0.00    +0.000 F 
ATOM     29  F   UNL     1      -1.619  14.010  20.004  0.00  0.00    +0.000 F 
ENDBRANCH  24  26
BRANCH  22  30
ATOM     30  C   UNL     1      -3.031   9.880  17.243  0.00  0.00    +0.000 C 
BRANCH  30  31
ATOM     31  N   UNL     1      -3.554  10.701  16.154  0.00  0.00    +0.000 NA
ATOM     32  H   UNL     1      -2.790  11.316  15.789  0.00  0.00    +0.000 HD
ATOM     33  H   UNL     1      -4.309  11.317  16.535  0.00  0.00    +0.000 HD
ENDBRANCH  30  31
ENDBRANCH  22  30
ENDBRANCH  19  20
ENDBRANCH   5  19
TORSDOF 11
ENDMDL
MODEL 9
REMARK VINA RESULT:      -7.2      4.400      8.996
REMARK  Name = 
REMARK  12 active torsions:
REMARK  status: ('A' for Active; 'I' for Inactive)
REMARK    1  A    between atoms: C_2  and  C_3
REMARK    2  A    between atoms: C_3  and  C_4
REMARK    3  A    between atoms: C_3  and  N_9
REMARK    4  A    between atoms: C_4  and  C_5
REMARK    5  A    between atoms: C_5  and  O_7
REMARK    6  A    between atoms: O_7  and  C_8
REMARK    7  A    between atoms: C_10  and  C_12
REMARK    8  A    between atoms: C_16  and  O_17
REMARK    9  A    between atoms: O_17  and  C_18
REMARK   10  A    between atoms: C_20  and  C_21
REMARK   11  A    between atoms: C_21  and  N_22
REMARK   12  A    between atoms: C_24  and  C_25
REMARK                            x       y       z     vdW  Elec       q    Type
REMARK                         _______ _______ _______ _____ _____    ______ ____
ROOT
ATOM      1  C   UNL     1       1.896   5.524  19.997  0.00  0.00    +0.000 A 
ATOM      2  C   UNL     1       1.095   4.602  20.706  0.00  0.00    +0.000 A 
ATOM      3  C   UNL     1       1.252   3.226  20.513  0.00  0.00    +0.000 A 
ATOM      4  C   UNL     1       2.208   2.742  19.617  0.00  0.00    +0.000 A 
ATOM      5  C   UNL     1       3.026   3.631  18.915  0.00  0.00    +0.000 A 
ATOM      6  C   UNL     1       2.860   5.016  19.104  0.00  0.00    +0.000 A 
ENDROOT
BRANCH   1   8
ATOM      7  N   UNL     1       0.920   7.577  21.062  0.00  0.00    +0.000 N 
ATOM      8  C   UNL     1       1.765   7.010  20.149  0.00  0.00    +0.000 C 
ATOM      9  O   UNL     1       2.450   7.732  19.436  0.00  0.00    +0.000 OA
ATOM     10  H   UNL     1       0.351   6.988  21.682  0.00  0.00    +0.000 HD
BRANCH   7  11
ATOM     11  C   UNL     1       0.786   9.015  21.235  0.00  0.00    +0.000 C 
BRANCH  11  13
ATOM     12  C   UNL     1      -0.707   9.997  19.244  0.00  0.00    +0.000 C 
ATOM     13  C   UNL     1      -0.038   9.541  20.137  0.00  0.00    +0.000 C 
ENDBRANCH  11  13
BRANCH  11  14
ATOM     14  C   UNL     1       0.125   9.329  22.589  0.00  0.00    +0.000 C 
BRANCH  14  15
ATOM     15  C   UNL     1      -0.390  10.745  22.647  0.00  0.00    +0.000 C 
ATOM     16  O   UNL     1      -1.490  10.969  23.133  0.00  0.00    +0.000 OA
BRANCH  15  17
ATOM     17  O   UNL     1       0.379  11.759  22.173  0.00  0.00    +0.000 OA
ATOM     18  C   UNL     1      -0.122  12.951  21.695  0.00  0.00    +0.000 C 
ENDBRANCH  15  17
ENDBRANCH  14  15
ENDBRANCH  11  14
ENDBRANCH   7  11
ENDBRANCH   1   8
BRANCH   5  19
ATOM     19  O   UNL     1       3.954   3.144  18.051  0.00  0.00    +0.000 OA
BRANCH  19  20
ATOM     20  C   UNL     1       5.017   3.848  17.586  0.00  0.00    +0.000 A 
ATOM     21  C   UNL     1       5.236   3.958  16.209  0.00  0.00    +0.000 A 
ATOM     22  C   UNL     1       6.350   4.673  15.741  0.00  0.00    +0.000 A 
ATOM     23  C   UNL     1       7.234   5.252  16.665  0.00  0.00    +0.000 A 
ATOM     24  C   UNL     1       6.988   5.114  18.041  0.00  0.00    +0.000 A 
ATOM     25  N   UNL     1       5.894   4.425  18.454  0.00  0.00    +0.000 NA
BRANCH  24  26
ATOM     26  C   UNL     1       7.905   5.694  19.081  0.00  0.00    +0.000 C 
ATOM     27  F   UNL     1       7.269   5.849  20.300  0.00  0.00    +0.000 F 
ATOM     28  F   UNL     1       8.993   4.858  19.249  0.00  0.00    +0.000 F 
ATOM     29  F   UNL     1       8.351   6.931  18.654  0.00  0.00    +0.000 F 
ENDBRANCH  24  26
BRANCH  22  30
ATOM     30  C   UNL     1       6.613   4.812  14.265  0.00  0.00    +0.000 C 
BRANCH  30  31
ATOM     31  N   UNL     1       7.875   5.512  14.035  0.00  0.00    +0.000 NA
ATOM     32  H   UNL     1       8.513   4.897  13.477  0.00  0.00    +0.000 HD
ATOM     33  H   UNL     1       8.328   5.693  14.960  0.00  0.00    +0.000 HD
ENDBRANCH  30  31
ENDBRANCH  22  30
ENDBRANCH  19  20
ENDBRANCH   5  19
TORSDOF 11
ENDMDL
