MODEL 1
REMARK VINA RESULT:      -6.3      0.000      0.000
REMARK  Name = 
REMARK  8 active torsions:
REMARK  status: ('A' for Active; 'I' for Inactive)
REMARK    1  A    between atoms: C_1  and  N_2
REMARK    2  A    between atoms: N_4  and  C_5
REMARK    3  A    between atoms: C_9  and  C_10
REMARK    4  A    between atoms: C_13  and  O_14
REMARK    5  A    between atoms: O_14  and  C_15
REMARK    6  A    between atoms: C_18  and  C_19
REMARK    7  A    between atoms: C_22  and  O_23
REMARK    8  A    between atoms: O_23  and  C_24
REMARK                            x       y       z     vdW  Elec       q    Type
REMARK                         _______ _______ _______ _____ _____    ______ ____
ROOT
ATOM      1  C   UNL     1      -2.621  14.643  24.828  0.00  0.00    +0.000 C 
ATOM      2  N   UNL     1      -3.237  14.871  23.534  0.00  0.00    +0.000 NA
ATOM      3  C   UNL     1      -2.965  14.090  22.542  0.00  0.00    +0.000 C 
ATOM      4  N   UNL     1      -3.567  14.295  21.329  0.00  0.00    +0.000 N 
ATOM      5  C   UNL     1      -4.063  15.570  20.877  0.00  0.00    +0.000 C 
ATOM      6  N   UNL     1      -2.085  13.033  22.565  0.00  0.00    +0.000 N 
ATOM      7  C   UNL     1      -1.684  12.206  21.570  0.00  0.00    +0.000 A 
ATOM      8  N   UNL     1      -2.275  12.061  20.407  0.00  0.00    +0.000 NA
ATOM      9  C   UNL     1      -1.578  11.173  19.594  0.00  0.00    +0.000 A 
ATOM     10  C   UNL     1      -0.417  10.648  20.158  0.00  0.00    +0.000 A 
ATOM     11  S   UNL     1      -0.270  11.251  21.772  0.00  0.00    +0.000 S 
ATOM     12  H   UNL     1      -3.303  13.647  20.591  0.00  0.00    +0.000 HD
ATOM     13  H   UNL     1      -1.573  12.945  23.428  0.00  0.00    +0.000 HD
ENDROOT
BRANCH   9  14
ATOM     14  C   UNL     1      -2.114  10.870  18.266  0.00  0.00    +0.000 A 
ATOM     15  C   UNL     1      -2.661   9.620  17.954  0.00  0.00    +0.000 A 
ATOM     16  C   UNL     1      -3.228   9.386  16.699  0.00  0.00    +0.000 A 
ATOM     17  C   UNL     1      -3.220  10.375  15.714  0.00  0.00    +0.000 A 
ATOM     18  C   UNL     1      -2.622  11.604  15.989  0.00  0.00    +0.000 A 
ATOM     19  C   UNL     1      -2.077  11.852  17.255  0.00  0.00    +0.000 A 
BRANCH  17  20
ATOM     20  O   UNL     1      -3.787  10.000  14.529  0.00  0.00    +0.000 OA
ATOM     21  C   UNL     1      -2.895   9.625  13.488  0.00  0.00    +0.000 C 
ENDBRANCH  17  20
ENDBRANCH   9  14
BRANCH  10  22
ATOM     22  C   UNL     1       0.596   9.705  19.652  0.00  0.00    +0.000 A 
ATOM     23  C   UNL     1       1.096   9.796  18.345  0.00  0.00    +0.000 A 
ATOM     24  C   UNL     1       2.004   8.849  17.856  0.00  0.00    +0.000 A 
ATOM     25  C   UNL     1       2.427   7.794  18.664  0.00  0.00    +0.000 A 
ATOM     26  C   UNL     1       1.929   7.683  19.960  0.00  0.00    +0.000 A 
ATOM     27  C   UNL     1       1.047   8.648  20.459  0.00  0.00    +0.000 A 
BRANCH  25  28
ATOM     28  O   UNL     1       3.297   6.914  18.082  0.00  0.00    +0.000 OA
ATOM     29  C   UNL     1       3.733   5.848  18.918  0.00  0.00    +0.000 C 
ENDBRANCH  25  28
ENDBRANCH  10  22
TORSDOF 4
ENDMDL
MODEL 2
REMARK VINA RESULT:      -6.2      4.414      7.884
REMARK  Name = 
REMARK  8 active torsions:
REMARK  status: ('A' for Active; 'I' for Inactive)
REMARK    1  A    between atoms: C_1  and  N_2
REMARK    2  A    between atoms: N_4  and  C_5
REMARK    3  A    between atoms: C_9  and  C_10
REMARK    4  A    between atoms: C_13  and  O_14
REMARK    5  A    between atoms: O_14  and  C_15
REMARK    6  A    between atoms: C_18  and  C_19
REMARK    7  A    between atoms: C_22  and  O_23
REMARK    8  A    between atoms: O_23  and  C_24
REMARK                            x       y       z     vdW  Elec       q    Type
REMARK                         _______ _______ _______ _____ _____    ______ ____
ROOT
ATOM      1  C   UNL     1       1.926   5.385  20.957  0.00  0.00    +0.000 C 
ATOM      2  N   UNL     1       2.198   6.323  19.883  0.00  0.00    +0.000 NA
ATOM      3  C   UNL     1       1.878   7.567  20.015  0.00  0.00    +0.000 C 
ATOM      4  N   UNL     1       2.157   8.452  19.008  0.00  0.00    +0.000 N 
ATOM      5  C   UNL     1       2.292   8.085  17.621  0.00  0.00    +0.000 C 
ATOM      6  N   UNL     1       1.243   8.126  21.099  0.00  0.00    +0.000 N 
ATOM      7  C   UNL     1       0.807   9.392  21.301  0.00  0.00    +0.000 A 
ATOM      8  N   UNL     1       1.154  10.446  20.599  0.00  0.00    +0.000 NA
ATOM      9  C   UNL     1       0.486  11.585  21.033  0.00  0.00    +0.000 A 
ATOM     10  C   UNL     1      -0.406  11.378  22.084  0.00  0.00    +0.000 A 
ATOM     11  S   UNL     1      -0.321   9.717  22.556  0.00  0.00    +0.000 S 
ATOM     12  H   UNL     1       1.873   9.414  19.175  0.00  0.00    +0.000 HD
ATOM     13  H   UNL     1       0.952   7.457  21.794  0.00  0.00    +0.000 HD
ENDROOT
BRANCH   9  14
ATOM     14  C   UNL     1       0.776  12.861  20.377  0.00  0.00    +0.000 A 
ATOM     15  C   UNL     1       1.958  13.570  20.624  0.00  0.00    +0.000 A 
ATOM     16  C   UNL     1       2.236  14.750  19.929  0.00  0.00    +0.000 A 
ATOM     17  C   UNL     1       1.324  15.271  19.010  0.00  0.00    +0.000 A 
ATOM     18  C   UNL     1       0.115  14.610  18.800  0.00  0.00    +0.000 A 
ATOM     19  C   UNL     1      -0.156  13.412  19.474  0.00  0.00    +0.000 A 
BRANCH  17  20
ATOM     20  O   UNL     1       1.717  16.440  18.423  0.00  0.00    +0.000 OA
ATOM     21  C   UNL     1       2.958  16.419  17.730  0.00  0.00    +0.000 C 
ENDBRANCH  17  20
ENDBRANCH   9  14
BRANCH  10  22
ATOM     22  C   UNL     1      -1.302  12.286  22.822  0.00  0.00    +0.000 A 
ATOM     23  C   UNL     1      -2.609  11.909  23.165  0.00  0.00    +0.000 A 
ATOM     24  C   UNL     1      -3.472  12.809  23.802  0.00  0.00    +0.000 A 
ATOM     25  C   UNL     1      -3.046  14.102  24.105  0.00  0.00    +0.000 A 
ATOM     26  C   UNL     1      -1.755  14.494  23.757  0.00  0.00    +0.000 A 
ATOM     27  C   UNL     1      -0.883  13.584  23.151  0.00  0.00    +0.000 A 
BRANCH  25  28
ATOM     28  O   UNL     1      -3.973  14.906  24.706  0.00  0.00    +0.000 OA
ATOM     29  C   UNL     1      -5.080  15.272  23.889  0.00  0.00    +0.000 C 
ENDBRANCH  25  28
ENDBRANCH  10  22
TORSDOF 4
ENDMDL
MODEL 3
REMARK VINA RESULT:      -6.1      3.217      4.871
REMARK  Name = 
REMARK  8 active torsions:
REMARK  status: ('A' for Active; 'I' for Inactive)
REMARK    1  A    between atoms: C_1  and  N_2
REMARK    2  A    between atoms: N_4  and  C_5
REMARK    3  A    between atoms: C_9  and  C_10
REMARK    4  A    between atoms: C_13  and  O_14
REMARK    5  A    between atoms: O_14  and  C_15
REMARK    6  A    between atoms: C_18  and  C_19
REMARK    7  A    between atoms: C_22  and  O_23
REMARK    8  A    between atoms: O_23  and  C_24
REMARK                            x       y       z     vdW  Elec       q    Type
REMARK                         _______ _______ _______ _____ _____    ______ ____
ROOT
ATOM      1  C   UNL     1      -6.388  12.776  19.695  0.00  0.00    +0.000 C 
ATOM      2  N   UNL     1      -5.430  13.763  20.158  0.00  0.00    +0.000 NA
ATOM      3  C   UNL     1      -4.163  13.545  20.032  0.00  0.00    +0.000 C 
ATOM      4  N   UNL     1      -3.265  14.490  20.449  0.00  0.00    +0.000 N 
ATOM      5  C   UNL     1      -3.533  15.465  21.475  0.00  0.00    +0.000 C 
ATOM      6  N   UNL     1      -3.589  12.407  19.514  0.00  0.00    +0.000 N 
ATOM      7  C   UNL     1      -2.286  12.057  19.404  0.00  0.00    +0.000 A 
ATOM      8  N   UNL     1      -1.260  12.869  19.519  0.00  0.00    +0.000 NA
ATOM      9  C   UNL     1      -0.056  12.181  19.405  0.00  0.00    +0.000 A 
ATOM     10  C   UNL     1      -0.181  10.806  19.216  0.00  0.00    +0.000 A 
ATOM     11  S   UNL     1      -1.863  10.417  19.114  0.00  0.00    +0.000 S 
ATOM     12  H   UNL     1      -2.284  14.250  20.326  0.00  0.00    +0.000 HD
ATOM     13  H   UNL     1      -4.249  11.676  19.299  0.00  0.00    +0.000 HD
ENDROOT
BRANCH   9  14
ATOM     14  C   UNL     1       1.194  12.939  19.479  0.00  0.00    +0.000 A 
ATOM     15  C   UNL     1       1.758  13.321  20.702  0.00  0.00    +0.000 A 
ATOM     16  C   UNL     1       2.988  13.983  20.741  0.00  0.00    +0.000 A 
ATOM     17  C   UNL     1       3.658  14.318  19.563  0.00  0.00    +0.000 A 
ATOM     18  C   UNL     1       3.078  14.000  18.336  0.00  0.00    +0.000 A 
ATOM     19  C   UNL     1       1.858  13.312  18.293  0.00  0.00    +0.000 A 
BRANCH  17  20
ATOM     20  O   UNL     1       4.836  14.982  19.751  0.00  0.00    +0.000 OA
ATOM     21  C   UNL     1       5.584  15.293  18.582  0.00  0.00    +0.000 C 
ENDBRANCH  17  20
ENDBRANCH   9  14
BRANCH  10  22
ATOM     22  C   UNL     1       0.812   9.729  19.061  0.00  0.00    +0.000 A 
ATOM     23  C   UNL     1       1.466   9.503  17.840  0.00  0.00    +0.000 A 
ATOM     24  C   UNL     1       2.354   8.432  17.689  0.00  0.00    +0.000 A 
ATOM     25  C   UNL     1       2.602   7.564  18.753  0.00  0.00    +0.000 A 
ATOM     26  C   UNL     1       1.949   7.768  19.966  0.00  0.00    +0.000 A 
ATOM     27  C   UNL     1       1.088   8.858  20.127  0.00  0.00    +0.000 A 
BRANCH  25  28
ATOM     28  O   UNL     1       3.467   6.538  18.492  0.00  0.00    +0.000 OA
ATOM     29  C   UNL     1       4.306   6.726  17.357  0.00  0.00    +0.000 C 
ENDBRANCH  25  28
ENDBRANCH  10  22
TORSDOF 4
ENDMDL
MODEL 4
REMARK VINA RESULT:      -6.0      4.465      7.904
REMARK  Name = 
REMARK  8 active torsions:
REMARK  status: ('A' for Active; 'I' for Inactive)
REMARK    1  A    between atoms: C_1  and  N_2
REMARK    2  A    between atoms: N_4  and  C_5
REMARK    3  A    between atoms: C_9  and  C_10
REMARK    4  A    between atoms: C_13  and  O_14
REMARK    5  A    between atoms: O_14  and  C_15
REMARK    6  A    between atoms: C_18  and  C_19
REMARK    7  A    between atoms: C_22  and  O_23
REMARK    8  A    between atoms: O_23  and  C_24
REMARK                            x       y       z     vdW  Elec       q    Type
REMARK                         _______ _______ _______ _____ _____    ______ ____
ROOT
ATOM      1  C   UNL     1       1.999   4.362  21.047  0.00  0.00    +0.000 C 
ATOM      2  N   UNL     1       2.587   5.253  20.063  0.00  0.00    +0.000 NA
ATOM      3  C   UNL     1       2.290   6.510  20.069  0.00  0.00    +0.000 C 
ATOM      4  N   UNL     1       2.865   7.350  19.153  0.00  0.00    +0.000 N 
ATOM      5  C   UNL     1       3.357   6.930  17.866  0.00  0.00    +0.000 C 
ATOM      6  N   UNL     1       1.406   7.125  20.925  0.00  0.00    +0.000 N 
ATOM      7  C   UNL     1       0.979   8.410  20.966  0.00  0.00    +0.000 A 
ATOM      8  N   UNL     1       1.543   9.427  20.357  0.00  0.00    +0.000 NA
ATOM      9  C   UNL     1       0.824  10.600  20.562  0.00  0.00    +0.000 A 
ATOM     10  C   UNL     1      -0.326  10.457  21.336  0.00  0.00    +0.000 A 
ATOM     11  S   UNL     1      -0.435   8.812  21.857  0.00  0.00    +0.000 S 
ATOM     12  H   UNL     1       2.582   8.324  19.211  0.00  0.00    +0.000 HD
ATOM     13  H   UNL     1       0.912   6.490  21.532  0.00  0.00    +0.000 HD
ENDROOT
BRANCH   9  14
ATOM     14  C   UNL     1       1.329  11.843  19.976  0.00  0.00    +0.000 A 
ATOM     15  C   UNL     1       1.485  13.010  20.733  0.00  0.00    +0.000 A 
ATOM     16  C   UNL     1       2.035  14.160  20.160  0.00  0.00    +0.000 A 
ATOM     17  C   UNL     1       2.398  14.185  18.813  0.00  0.00    +0.000 A 
ATOM     18  C   UNL     1       2.191  13.049  18.031  0.00  0.00    +0.000 A 
ATOM     19  C   UNL     1       1.665  11.886  18.607  0.00  0.00    +0.000 A 
BRANCH  17  20
ATOM     20  O   UNL     1       2.900  15.380  18.383  0.00  0.00    +0.000 OA
ATOM     21  C   UNL     1       4.109  15.330  17.636  0.00  0.00    +0.000 C 
ENDBRANCH  17  20
ENDBRANCH   9  14
BRANCH  10  22
ATOM     22  C   UNL     1      -1.354  11.415  21.776  0.00  0.00    +0.000 A 
ATOM     23  C   UNL     1      -1.725  11.527  23.125  0.00  0.00    +0.000 A 
ATOM     24  C   UNL     1      -2.753  12.392  23.517  0.00  0.00    +0.000 A 
ATOM     25  C   UNL     1      -3.432  13.158  22.570  0.00  0.00    +0.000 A 
ATOM     26  C   UNL     1      -3.085  13.046  21.226  0.00  0.00    +0.000 A 
ATOM     27  C   UNL     1      -2.035  12.208  20.838  0.00  0.00    +0.000 A 
BRANCH  25  28
ATOM     28  O   UNL     1      -4.434  13.951  23.057  0.00  0.00    +0.000 OA
ATOM     29  C   UNL     1      -4.065  15.300  23.323  0.00  0.00    +0.000 C 
ENDBRANCH  25  28
ENDBRANCH  10  22
TORSDOF 4
ENDMDL
MODEL 5
REMARK VINA RESULT:      -6.0      4.445      7.907
REMARK  Name = 
REMARK  8 active torsions:
REMARK  status: ('A' for Active; 'I' for Inactive)
REMARK    1  A    between atoms: C_1  and  N_2
REMARK    2  A    between atoms: N_4  and  C_5
REMARK    3  A    between atoms: C_9  and  C_10
REMARK    4  A    between atoms: C_13  and  O_14
REMARK    5  A    between atoms: O_14  and  C_15
REMARK    6  A    between atoms: C_18  and  C_19
REMARK    7  A    between atoms: C_22  and  O_23
REMARK    8  A    between atoms: O_23  and  C_24
REMARK                            x       y       z     vdW  Elec       q    Type
REMARK                         _______ _______ _______ _____ _____    ______ ____
ROOT
ATOM      1  C   UNL     1       1.931   4.343  21.016  0.00  0.00    +0.000 C 
ATOM      2  N   UNL     1       2.534   5.224  20.032  0.00  0.00    +0.000 NA
ATOM      3  C   UNL     1       2.255   6.485  20.035  0.00  0.00    +0.000 C 
ATOM      4  N   UNL     1       2.843   7.315  19.119  0.00  0.00    +0.000 N 
ATOM      5  C   UNL     1       3.332   6.886  17.834  0.00  0.00    +0.000 C 
ATOM      6  N   UNL     1       1.378   7.114  20.888  0.00  0.00    +0.000 N 
ATOM      7  C   UNL     1       0.969   8.405  20.927  0.00  0.00    +0.000 A 
ATOM      8  N   UNL     1       1.549   9.413  20.318  0.00  0.00    +0.000 NA
ATOM      9  C   UNL     1       0.847  10.596  20.519  0.00  0.00    +0.000 A 
ATOM     10  C   UNL     1      -0.307  10.470  21.291  0.00  0.00    +0.000 A 
ATOM     11  S   UNL     1      -0.440   8.828  21.814  0.00  0.00    +0.000 S 
ATOM     12  H   UNL     1       2.574   8.294  19.176  0.00  0.00    +0.000 HD
ATOM     13  H   UNL     1       0.874   6.487  21.495  0.00  0.00    +0.000 HD
ENDROOT
BRANCH   9  14
ATOM     14  C   UNL     1       1.371  11.831  19.932  0.00  0.00    +0.000 A 
ATOM     15  C   UNL     1       1.737  11.914  18.584  0.00  0.00    +0.000 A 
ATOM     16  C   UNL     1       2.167  13.127  18.039  0.00  0.00    +0.000 A 
ATOM     17  C   UNL     1       2.286  14.267  18.834  0.00  0.00    +0.000 A 
ATOM     18  C   UNL     1       1.985  14.184  20.193  0.00  0.00    +0.000 A 
ATOM     19  C   UNL     1       1.527  12.978  20.738  0.00  0.00    +0.000 A 
BRANCH  17  20
ATOM     20  O   UNL     1       2.739  15.374  18.174  0.00  0.00    +0.000 OA
ATOM     21  C   UNL     1       2.712  16.599  18.894  0.00  0.00    +0.000 C 
ENDBRANCH  17  20
ENDBRANCH   9  14
BRANCH  10  22
ATOM     22  C   UNL     1      -1.322  11.444  21.728  0.00  0.00    +0.000 A 
ATOM     23  C   UNL     1      -1.680  11.576  23.078  0.00  0.00    +0.000 A 
ATOM     24  C   UNL     1      -2.697  12.456  23.468  0.00  0.00    +0.000 A 
ATOM     25  C   UNL     1      -3.377  13.216  22.517  0.00  0.00    +0.000 A 
ATOM     26  C   UNL     1      -3.042  13.085  21.171  0.00  0.00    +0.000 A 
ATOM     27  C   UNL     1      -2.003  12.231  20.786  0.00  0.00    +0.000 A 
BRANCH  25  28
ATOM     28  O   UNL     1      -4.367  14.025  23.002  0.00  0.00    +0.000 OA
ATOM     29  C   UNL     1      -3.952  14.970  23.983  0.00  0.00    +0.000 C 
ENDBRANCH  25  28
ENDBRANCH  10  22
TORSDOF 4
ENDMDL
MODEL 6
REMARK VINA RESULT:      -6.0      4.259      6.364
REMARK  Name = 
REMARK  8 active torsions:
REMARK  status: ('A' for Active; 'I' for Inactive)
REMARK    1  A    between atoms: C_1  and  N_2
REMARK    2  A    between atoms: N_4  and  C_5
REMARK    3  A    between atoms: C_9  and  C_10
REMARK    4  A    between atoms: C_13  and  O_14
REMARK    5  A    between atoms: O_14  and  C_15
REMARK    6  A    between atoms: C_18  and  C_19
REMARK    7  A    between atoms: C_22  and  O_23
REMARK    8  A    between atoms: O_23  and  C_24
REMARK                            x       y       z     vdW  Elec       q    Type
REMARK                         _______ _______ _______ _____ _____    ______ ____
ROOT
ATOM      1  C   UNL     1       5.702  16.859  21.743  0.00  0.00    +0.000 C 
ATOM      2  N   UNL     1       4.537  17.056  22.586  0.00  0.00    +0.000 NA
ATOM      3  C   UNL     1       3.504  16.292  22.451  0.00  0.00    +0.000 C 
ATOM      4  N   UNL     1       2.417  16.468  23.264  0.00  0.00    +0.000 N 
ATOM      5  C   UNL     1       2.072  17.714  23.899  0.00  0.00    +0.000 C 
ATOM      6  N   UNL     1       3.362  15.285  21.525  0.00  0.00    +0.000 N 
ATOM      7  C   UNL     1       2.303  14.483  21.260  0.00  0.00    +0.000 A 
ATOM      8  N   UNL     1       1.259  14.308  22.036  0.00  0.00    +0.000 NA
ATOM      9  C   UNL     1       0.327  13.461  21.445  0.00  0.00    +0.000 A 
ATOM     10  C   UNL     1       0.675  12.999  20.177  0.00  0.00    +0.000 A 
ATOM     11  S   UNL     1       2.244  13.606  19.784  0.00  0.00    +0.000 S 
ATOM     12  H   UNL     1       1.637  15.836  23.099  0.00  0.00    +0.000 HD
ATOM     13  H   UNL     1       4.122  15.224  20.866  0.00  0.00    +0.000 HD
ENDROOT
BRANCH   9  14
ATOM     14  C   UNL     1      -0.891  13.132  22.188  0.00  0.00    +0.000 A 
ATOM     15  C   UNL     1      -1.160  11.833  22.633  0.00  0.00    +0.000 A 
ATOM     16  C   UNL     1      -2.297  11.566  23.400  0.00  0.00    +0.000 A 
ATOM     17  C   UNL     1      -3.212  12.576  23.698  0.00  0.00    +0.000 A 
ATOM     18  C   UNL     1      -2.990  13.863  23.208  0.00  0.00    +0.000 A 
ATOM     19  C   UNL     1      -1.837  14.140  22.463  0.00  0.00    +0.000 A 
BRANCH  17  20
ATOM     20  O   UNL     1      -4.288  12.168  24.435  0.00  0.00    +0.000 OA
ATOM     21  C   UNL     1      -5.523  12.820  24.171  0.00  0.00    +0.000 C 
ENDBRANCH  17  20
ENDBRANCH   9  14
BRANCH  10  22
ATOM     22  C   UNL     1      -0.010  12.113  19.219  0.00  0.00    +0.000 A 
ATOM     23  C   UNL     1      -1.211  12.491  18.599  0.00  0.00    +0.000 A 
ATOM     24  C   UNL     1      -1.886  11.610  17.746  0.00  0.00    +0.000 A 
ATOM     25  C   UNL     1      -1.377  10.335  17.501  0.00  0.00    +0.000 A 
ATOM     26  C   UNL     1      -0.193   9.941  18.121  0.00  0.00    +0.000 A 
ATOM     27  C   UNL     1       0.499  10.834  18.946  0.00  0.00    +0.000 A 
BRANCH  25  28
ATOM     28  O   UNL     1      -2.126   9.547  16.672  0.00  0.00    +0.000 OA
ATOM     29  C   UNL     1      -2.747  10.226  15.586  0.00  0.00    +0.000 C 
ENDBRANCH  25  28
ENDBRANCH  10  22
TORSDOF 4
ENDMDL
MODEL 7
REMARK VINA RESULT:      -6.0      3.811      6.519
REMARK  Name = 
REMARK  8 active torsions:
REMARK  status: ('A' for Active; 'I' for Inactive)
REMARK    1  A    between atoms: C_1  and  N_2
REMARK    2  A    between atoms: N_4  and  C_5
REMARK    3  A    between atoms: C_9  and  C_10
REMARK    4  A    between atoms: C_13  and  O_14
REMARK    5  A    between atoms: O_14  and  C_15
REMARK    6  A    between atoms: C_18  and  C_19
REMARK    7  A    between atoms: C_22  and  O_23
REMARK    8  A    between atoms: O_23  and  C_24
REMARK                            x       y       z     vdW  Elec       q    Type
REMARK                         _______ _______ _______ _____ _____    ______ ____
ROOT
ATOM      1  C   UNL     1       3.476  17.928  20.195  0.00  0.00    +0.000 C 
ATOM      2  N   UNL     1       4.041  16.675  20.661  0.00  0.00    +0.000 NA
ATOM      3  C   UNL     1       3.437  15.560  20.413  0.00  0.00    +0.000 C 
ATOM      4  N   UNL     1       3.986  14.380  20.835  0.00  0.00    +0.000 N 
ATOM      5  C   UNL     1       4.879  14.258  21.959  0.00  0.00    +0.000 C 
ATOM      6  N   UNL     1       2.237  15.423  19.755  0.00  0.00    +0.000 N 
ATOM      7  C   UNL     1       1.495  14.317  19.510  0.00  0.00    +0.000 A 
ATOM      8  N   UNL     1       1.911  13.076  19.609  0.00  0.00    +0.000 NA
ATOM      9  C   UNL     1       0.885  12.176  19.339  0.00  0.00    +0.000 A 
ATOM     10  C   UNL     1      -0.346  12.761  19.044  0.00  0.00    +0.000 A 
ATOM     11  S   UNL     1      -0.152  14.478  19.047  0.00  0.00    +0.000 S 
ATOM     12  H   UNL     1       3.455  13.542  20.612  0.00  0.00    +0.000 HD
ATOM     13  H   UNL     1       1.788  16.298  19.533  0.00  0.00    +0.000 HD
ENDROOT
BRANCH   9  14
ATOM     14  C   UNL     1       1.181  10.743  19.375  0.00  0.00    +0.000 A 
ATOM     15  C   UNL     1       1.741  10.073  18.281  0.00  0.00    +0.000 A 
ATOM     16  C   UNL     1       2.076   8.720  18.373  0.00  0.00    +0.000 A 
ATOM     17  C   UNL     1       1.819   7.997  19.537  0.00  0.00    +0.000 A 
ATOM     18  C   UNL     1       1.205   8.635  20.614  0.00  0.00    +0.000 A 
ATOM     19  C   UNL     1       0.892   9.998  20.536  0.00  0.00    +0.000 A 
BRANCH  17  20
ATOM     20  O   UNL     1       2.178   6.680  19.477  0.00  0.00    +0.000 OA
ATOM     21  C   UNL     1       2.263   6.102  18.181  0.00  0.00    +0.000 C 
ENDBRANCH  17  20
ENDBRANCH   9  14
BRANCH  10  22
ATOM     22  C   UNL     1      -1.664  12.191  18.717  0.00  0.00    +0.000 A 
ATOM     23  C   UNL     1      -1.872  11.444  17.548  0.00  0.00    +0.000 A 
ATOM     24  C   UNL     1      -3.147  10.970  17.215  0.00  0.00    +0.000 A 
ATOM     25  C   UNL     1      -4.237  11.236  18.043  0.00  0.00    +0.000 A 
ATOM     26  C   UNL     1      -4.048  11.989  19.200  0.00  0.00    +0.000 A 
ATOM     27  C   UNL     1      -2.769  12.433  19.549  0.00  0.00    +0.000 A 
BRANCH  25  28
ATOM     28  O   UNL     1      -5.440  10.747  17.614  0.00  0.00    +0.000 OA
ATOM     29  C   UNL     1      -6.466  10.711  18.599  0.00  0.00    +0.000 C 
ENDBRANCH  25  28
ENDBRANCH  10  22
TORSDOF 4
ENDMDL
MODEL 8
REMARK VINA RESULT:      -5.9      4.465      7.859
REMARK  Name = 
REMARK  8 active torsions:
REMARK  status: ('A' for Active; 'I' for Inactive)
REMARK    1  A    between atoms: C_1  and  N_2
REMARK    2  A    between atoms: N_4  and  C_5
REMARK    3  A    between atoms: C_9  and  C_10
REMARK    4  A    between atoms: C_13  and  O_14
REMARK    5  A    between atoms: O_14  and  C_15
REMARK    6  A    between atoms: C_18  and  C_19
REMARK    7  A    between atoms: C_22  and  O_23
REMARK    8  A    between atoms: O_23  and  C_24
REMARK                            x       y       z     vdW  Elec       q    Type
REMARK                         _______ _______ _______ _____ _____    ______ ____
ROOT
ATOM      1  C   UNL     1       1.978   4.384  20.947  0.00  0.00    +0.000 C 
ATOM      2  N   UNL     1       2.592   5.287  19.989  0.00  0.00    +0.000 NA
ATOM      3  C   UNL     1       2.298   6.545  20.006  0.00  0.00    +0.000 C 
ATOM      4  N   UNL     1       2.897   7.395  19.116  0.00  0.00    +0.000 N 
ATOM      5  C   UNL     1       3.419   6.991  17.835  0.00  0.00    +0.000 C 
ATOM      6  N   UNL     1       1.396   7.150  20.849  0.00  0.00    +0.000 N 
ATOM      7  C   UNL     1       0.971   8.435  20.898  0.00  0.00    +0.000 A 
ATOM      8  N   UNL     1       1.552   9.460  20.317  0.00  0.00    +0.000 NA
ATOM      9  C   UNL     1       0.832  10.632  20.521  0.00  0.00    +0.000 A 
ATOM     10  C   UNL     1      -0.337  10.481  21.265  0.00  0.00    +0.000 A 
ATOM     11  S   UNL     1      -0.462   8.829  21.760  0.00  0.00    +0.000 S 
ATOM     12  H   UNL     1       2.615   8.370  19.181  0.00  0.00    +0.000 HD
ATOM     13  H   UNL     1       0.886   6.508  21.435  0.00  0.00    +0.000 HD
ENDROOT
BRANCH   9  14
ATOM     14  C   UNL     1       1.354  11.881  19.965  0.00  0.00    +0.000 A 
ATOM     15  C   UNL     1       1.493  13.038  20.741  0.00  0.00    +0.000 A 
ATOM     16  C   UNL     1       2.060  14.193  20.197  0.00  0.00    +0.000 A 
ATOM     17  C   UNL     1       2.457  14.235  18.860  0.00  0.00    +0.000 A 
ATOM     18  C   UNL     1       2.266  13.111  18.058  0.00  0.00    +0.000 A 
ATOM     19  C   UNL     1       1.724  11.942  18.606  0.00  0.00    +0.000 A 
BRANCH  17  20
ATOM     20  O   UNL     1       2.972  15.435  18.459  0.00  0.00    +0.000 OA
ATOM     21  C   UNL     1       4.071  15.386  17.558  0.00  0.00    +0.000 C 
ENDBRANCH  17  20
ENDBRANCH   9  14
BRANCH  10  22
ATOM     22  C   UNL     1      -1.373  11.436  21.694  0.00  0.00    +0.000 A 
ATOM     23  C   UNL     1      -2.069  12.229  20.770  0.00  0.00    +0.000 A 
ATOM     24  C   UNL     1      -2.999  13.183  21.199  0.00  0.00    +0.000 A 
ATOM     25  C   UNL     1      -3.248  13.365  22.559  0.00  0.00    +0.000 A 
ATOM     26  C   UNL     1      -2.554  12.594  23.489  0.00  0.00    +0.000 A 
ATOM     27  C   UNL     1      -1.650  11.618  23.058  0.00  0.00    +0.000 A 
BRANCH  25  28
ATOM     28  O   UNL     1      -4.157  14.338  22.871  0.00  0.00    +0.000 OA
ATOM     29  C   UNL     1      -5.197  13.935  23.756  0.00  0.00    +0.000 C 
ENDBRANCH  25  28
ENDBRANCH  10  22
TORSDOF 4
ENDMDL
MODEL 9
REMARK VINA RESULT:      -5.9      1.167      1.690
REMARK  Name = 
REMARK  8 active torsions:
REMARK  status: ('A' for Active; 'I' for Inactive)
REMARK    1  A    between atoms: C_1  and  N_2
REMARK    2  A    between atoms: N_4  and  C_5
REMARK    3  A    between atoms: C_9  and  C_10
REMARK    4  A    between atoms: C_13  and  O_14
REMARK    5  A    between atoms: O_14  and  C_15
REMARK    6  A    between atoms: C_18  and  C_19
REMARK    7  A    between atoms: C_22  and  O_23
REMARK    8  A    between atoms: O_23  and  C_24
REMARK                            x       y       z     vdW  Elec       q    Type
REMARK                         _______ _______ _______ _____ _____    ______ ____
ROOT
ATOM      1  C   UNL     1      -2.989  15.692  25.291  0.00  0.00    +0.000 C 
ATOM      2  N   UNL     1      -3.493  15.947  23.954  0.00  0.00    +0.000 NA
ATOM      3  C   UNL     1      -3.274  15.097  23.006  0.00  0.00    +0.000 C 
ATOM      4  N   UNL     1      -3.772  15.331  21.753  0.00  0.00    +0.000 N 
ATOM      5  C   UNL     1      -4.064  16.641  21.229  0.00  0.00    +0.000 C 
ATOM      6  N   UNL     1      -2.549  13.934  23.119  0.00  0.00    +0.000 N 
ATOM      7  C   UNL     1      -2.208  13.021  22.179  0.00  0.00    +0.000 A 
ATOM      8  N   UNL     1      -2.745  12.908  20.986  0.00  0.00    +0.000 NA
ATOM      9  C   UNL     1      -2.130  11.903  20.248  0.00  0.00    +0.000 A 
ATOM     10  C   UNL     1      -1.085  11.251  20.900  0.00  0.00    +0.000 A 
ATOM     11  S   UNL     1      -0.950  11.894  22.499  0.00  0.00    +0.000 S 
ATOM     12  H   UNL     1      -3.557  14.624  21.054  0.00  0.00    +0.000 HD
ATOM     13  H   UNL     1      -2.103  13.813  24.015  0.00  0.00    +0.000 HD
ENDROOT
BRANCH   9  14
ATOM     14  C   UNL     1      -2.625  11.621  18.899  0.00  0.00    +0.000 A 
ATOM     15  C   UNL     1      -1.767  11.534  17.797  0.00  0.00    +0.000 A 
ATOM     16  C   UNL     1      -2.264  11.194  16.536  0.00  0.00    +0.000 A 
ATOM     17  C   UNL     1      -3.628  10.979  16.338  0.00  0.00    +0.000 A 
ATOM     18  C   UNL     1      -4.503  11.124  17.414  0.00  0.00    +0.000 A 
ATOM     19  C   UNL     1      -4.007  11.437  18.685  0.00  0.00    +0.000 A 
BRANCH  17  20
ATOM     20  O   UNL     1      -3.974  10.677  15.051  0.00  0.00    +0.000 OA
ATOM     21  C   UNL     1      -2.983  10.032  14.261  0.00  0.00    +0.000 C 
ENDBRANCH  17  20
ENDBRANCH   9  14
BRANCH  10  22
ATOM     22  C   UNL     1      -0.182  10.161  20.489  0.00  0.00    +0.000 A 
ATOM     23  C   UNL     1       0.022   9.033  21.297  0.00  0.00    +0.000 A 
ATOM     24  C   UNL     1       0.938   8.041  20.926  0.00  0.00    +0.000 A 
ATOM     25  C   UNL     1       1.667   8.159  19.743  0.00  0.00    +0.000 A 
ATOM     26  C   UNL     1       1.484   9.281  18.938  0.00  0.00    +0.000 A 
ATOM     27  C   UNL     1       0.545  10.255  19.292  0.00  0.00    +0.000 A 
BRANCH  25  28
ATOM     28  O   UNL     1       2.549   7.147  19.487  0.00  0.00    +0.000 OA
ATOM     29  C   UNL     1       3.073   7.118  18.164  0.00  0.00    +0.000 C 
ENDBRANCH  25  28
ENDBRANCH  10  22
TORSDOF 4
ENDMDL
