MODEL 1
REMARK VINA RESULT:      -8.0      0.000      0.000
REMARK  Name = 
REMARK  15 active torsions:
REMARK  status: ('A' for Active; 'I' for Inactive)
REMARK    1  A    between atoms: C_1  and  C_2
REMARK    2  A    between atoms: C_2  and  C_3
REMARK    3  A    between atoms: C_3  and  C_4
REMARK    4  A    between atoms: C_3  and  C_5
REMARK    5  A    between atoms: C_5  and  N_6
REMARK    6  A    between atoms: C_5  and  C_21
REMARK    7  A    between atoms: C_7  and  C_9
REMARK    8  A    between atoms: C_13  and  C_14
REMARK    9  A    between atoms: C_14  and  N_15
REMARK   10  A    between atoms: N_23  and  N_24
REMARK   11  A    between atoms: C_25  and  O_27
REMARK   12  A    between atoms: O_27  and  C_28
REMARK   13  A    between atoms: C_28  and  C_29
REMARK   14  A    between atoms: C_28  and  C_30
REMARK   15  A    between atoms: C_28  and  C_31
REMARK                            x       y       z     vdW  Elec       q    Type
REMARK                         _______ _______ _______ _____ _____    ______ ____
ROOT
ATOM      1  C   UNL     1       6.626   5.300  17.729  0.00  0.00    +0.000 C 
ENDROOT
BRANCH   1   2
ATOM      2  N   UNL     1       5.279   5.396  18.311  0.00  0.00    +0.000 N 
ATOM      3  C   UNL     1       4.781   4.372  19.103  0.00  0.00    +0.000 C 
ATOM      4  O   UNL     1       5.425   3.363  19.366  0.00  0.00    +0.000 OA
ATOM      5  H   UNL     1       4.723   6.191  18.055  0.00  0.00    +0.000 HD
BRANCH   3   6
ATOM      6  C   UNL     1       3.408   4.519  19.664  0.00  0.00    +0.000 A 
ATOM      7  C   UNL     1       2.460   3.499  19.563  0.00  0.00    +0.000 A 
ATOM      8  C   UNL     1       1.132   3.743  19.930  0.00  0.00    +0.000 A 
ATOM      9  C   UNL     1       0.741   5.008  20.366  0.00  0.00    +0.000 A 
ATOM     10  C   UNL     1       1.679   6.043  20.478  0.00  0.00    +0.000 A 
ATOM     11  C   UNL     1       3.023   5.773  20.167  0.00  0.00    +0.000 A 
BRANCH  10  12
ATOM     12  C   UNL     1       1.230   7.447  20.805  0.00  0.00    +0.000 C 
BRANCH  12  13
ATOM     13  N   UNL     1       1.485   8.406  19.746  0.00  0.00    +0.000 N 
ATOM     14  C   UNL     1       1.031   9.697  19.690  0.00  0.00    +0.000 A 
ATOM     15  C   UNL     1       1.319  10.120  18.413  0.00  0.00    +0.000 A 
ATOM     16  N   UNL     1       1.945   9.130  17.702  0.00  0.00    +0.000 NA
ATOM     17  C   UNL     1       2.031   8.111  18.528  0.00  0.00    +0.000 A 
ENDBRANCH  12  13
ENDBRANCH  10  12
ENDBRANCH   3   6
ENDBRANCH   1   2
BRANCH   1  18
ATOM     18  C   UNL     1       7.661   6.020  18.651  0.00  0.00    +0.000 C 
ATOM     19  O   UNL     1       8.297   5.433  19.527  0.00  0.00    +0.000 OA
ATOM     20  N   UNL     1       7.848   7.365  18.367  0.00  0.00    +0.000 N 
ATOM     21  H   UNL     1       7.341   7.859  17.632  0.00  0.00    +0.000 HD
BRANCH  20  22
ATOM     22  N   UNL     1       8.869   8.114  19.000  0.00  0.00    +0.000 N 
ATOM     23  C   UNL     1       8.872   9.481  18.825  0.00  0.00    +0.000 C 
ATOM     24  O   UNL     1       8.006  10.042  18.156  0.00  0.00    +0.000 OA
ATOM     25  H   UNL     1       9.568   7.630  19.555  0.00  0.00    +0.000 HD
BRANCH  23  26
ATOM     26  O   UNL     1       9.919  10.093  19.455  0.00  0.00    +0.000 OA
BRANCH  26  27
ATOM     27  C   UNL     1      10.236  11.482  19.117  0.00  0.00    +0.000 C 
ATOM     28  C   UNL     1      10.571  11.619  17.625  0.00  0.00    +0.000 C 
ATOM     29  C   UNL     1       8.998  12.353  19.427  0.00  0.00    +0.000 C 
ATOM     30  C   UNL     1      11.387  12.006  19.986  0.00  0.00    +0.000 C 
ENDBRANCH  26  27
ENDBRANCH  23  26
ENDBRANCH  20  22
ENDBRANCH   1  18
BRANCH   1  31
ATOM     31  C   UNL     1       6.642   5.660  16.213  0.00  0.00    +0.000 C 
ATOM     32  C   UNL     1       5.334   6.337  15.785  0.00  0.00    +0.000 C 
BRANCH  31  34
ATOM     33  C   UNL     1       5.855   4.129  14.268  0.00  0.00    +0.000 C 
ATOM     34  C   UNL     1       6.987   4.554  15.190  0.00  0.00    +0.000 C 
ENDBRANCH  31  34
ENDBRANCH   1  31
TORSDOF 10
ENDMDL
MODEL 2
REMARK VINA RESULT:      -7.7      5.186      9.348
REMARK  Name = 
REMARK  15 active torsions:
REMARK  status: ('A' for Active; 'I' for Inactive)
REMARK    1  A    between atoms: C_1  and  C_2
REMARK    2  A    between atoms: C_2  and  C_3
REMARK    3  A    between atoms: C_3  and  C_4
REMARK    4  A    between atoms: C_3  and  C_5
REMARK    5  A    between atoms: C_5  and  N_6
REMARK    6  A    between atoms: C_5  and  C_21
REMARK    7  A    between atoms: C_7  and  C_9
REMARK    8  A    between atoms: C_13  and  C_14
REMARK    9  A    between atoms: C_14  and  N_15
REMARK   10  A    between atoms: N_23  and  N_24
REMARK   11  A    between atoms: C_25  and  O_27
REMARK   12  A    between atoms: O_27  and  C_28
REMARK   13  A    between atoms: C_28  and  C_29
REMARK   14  A    between atoms: C_28  and  C_30
REMARK   15  A    between atoms: C_28  and  C_31
REMARK                            x       y       z     vdW  Elec       q    Type
REMARK                         _______ _______ _______ _____ _____    ______ ____
ROOT
ATOM      1  C   UNL     1       0.309  10.610  20.925  0.00  0.00    +0.000 C 
ENDROOT
BRANCH   1   2
ATOM      2  N   UNL     1      -0.813  10.356  20.008  0.00  0.00    +0.000 N 
ATOM      3  C   UNL     1      -0.882  11.009  18.786  0.00  0.00    +0.000 C 
ATOM      4  O   UNL     1      -0.028  11.801  18.406  0.00  0.00    +0.000 OA
ATOM      5  H   UNL     1      -1.545   9.753  20.333  0.00  0.00    +0.000 HD
BRANCH   3   6
ATOM      6  C   UNL     1      -2.043  10.718  17.897  0.00  0.00    +0.000 A 
ATOM      7  C   UNL     1      -1.896  10.000  16.708  0.00  0.00    +0.000 A 
ATOM      8  C   UNL     1      -2.966   9.910  15.812  0.00  0.00    +0.000 A 
ATOM      9  C   UNL     1      -4.171  10.559  16.083  0.00  0.00    +0.000 A 
ATOM     10  C   UNL     1      -4.338  11.279  17.273  0.00  0.00    +0.000 A 
ATOM     11  C   UNL     1      -3.280  11.313  18.197  0.00  0.00    +0.000 A 
BRANCH  10  12
ATOM     12  C   UNL     1      -5.584  12.103  17.497  0.00  0.00    +0.000 C 
BRANCH  12  13
ATOM     13  N   UNL     1      -6.229  11.855  18.773  0.00  0.00    +0.000 N 
ATOM     14  C   UNL     1      -6.337  12.736  19.816  0.00  0.00    +0.000 A 
ATOM     15  C   UNL     1      -6.802  11.984  20.870  0.00  0.00    +0.000 A 
ATOM     16  N   UNL     1      -6.992  10.681  20.491  0.00  0.00    +0.000 NA
ATOM     17  C   UNL     1      -6.639  10.632  19.226  0.00  0.00    +0.000 A 
ENDBRANCH  12  13
ENDBRANCH  10  12
ENDBRANCH   3   6
ENDBRANCH   1   2
BRANCH   1  18
ATOM     18  C   UNL     1       0.939   9.257  21.387  0.00  0.00    +0.000 C 
ATOM     19  O   UNL     1       0.824   8.823  22.533  0.00  0.00    +0.000 OA
ATOM     20  N   UNL     1       1.593   8.555  20.384  0.00  0.00    +0.000 N 
ATOM     21  H   UNL     1       1.680   8.895  19.426  0.00  0.00    +0.000 HD
BRANCH  20  22
ATOM     22  N   UNL     1       2.070   7.240  20.600  0.00  0.00    +0.000 N 
ATOM     23  C   UNL     1       2.609   6.563  19.529  0.00  0.00    +0.000 C 
ATOM     24  O   UNL     1       2.695   7.085  18.420  0.00  0.00    +0.000 OA
ATOM     25  H   UNL     1       1.997   6.832  21.527  0.00  0.00    +0.000 HD
BRANCH  23  26
ATOM     26  O   UNL     1       3.007   5.294  19.849  0.00  0.00    +0.000 OA
BRANCH  26  27
ATOM     27  C   UNL     1       2.208   4.161  19.379  0.00  0.00    +0.000 C 
ATOM     28  C   UNL     1       2.961   2.839  19.584  0.00  0.00    +0.000 C 
ATOM     29  C   UNL     1       0.898   4.116  20.197  0.00  0.00    +0.000 C 
ATOM     30  C   UNL     1       1.816   4.344  17.906  0.00  0.00    +0.000 C 
ENDBRANCH  26  27
ENDBRANCH  23  26
ENDBRANCH  20  22
ENDBRANCH   1  18
BRANCH   1  31
ATOM     31  C   UNL     1      -0.053  11.648  22.029  0.00  0.00    +0.000 C 
ATOM     32  C   UNL     1      -1.404  11.326  22.678  0.00  0.00    +0.000 C 
BRANCH  31  34
ATOM     33  C   UNL     1       1.300  13.673  21.124  0.00  0.00    +0.000 C 
ATOM     34  C   UNL     1      -0.018  13.152  21.674  0.00  0.00    +0.000 C 
ENDBRANCH  31  34
ENDBRANCH   1  31
TORSDOF 10
ENDMDL
MODEL 3
REMARK VINA RESULT:      -7.7      5.322      9.407
REMARK  Name = 
REMARK  15 active torsions:
REMARK  status: ('A' for Active; 'I' for Inactive)
REMARK    1  A    between atoms: C_1  and  C_2
REMARK    2  A    between atoms: C_2  and  C_3
REMARK    3  A    between atoms: C_3  and  C_4
REMARK    4  A    between atoms: C_3  and  C_5
REMARK    5  A    between atoms: C_5  and  N_6
REMARK    6  A    between atoms: C_5  and  C_21
REMARK    7  A    between atoms: C_7  and  C_9
REMARK    8  A    between atoms: C_13  and  C_14
REMARK    9  A    between atoms: C_14  and  N_15
REMARK   10  A    between atoms: N_23  and  N_24
REMARK   11  A    between atoms: C_25  and  O_27
REMARK   12  A    between atoms: O_27  and  C_28
REMARK   13  A    between atoms: C_28  and  C_29
REMARK   14  A    between atoms: C_28  and  C_30
REMARK   15  A    between atoms: C_28  and  C_31
REMARK                            x       y       z     vdW  Elec       q    Type
REMARK                         _______ _______ _______ _____ _____    ______ ____
ROOT
ATOM      1  C   UNL     1       0.032  10.526  20.799  0.00  0.00    +0.000 C 
ENDROOT
BRANCH   1   2
ATOM      2  N   UNL     1      -1.106  10.555  19.867  0.00  0.00    +0.000 N 
ATOM      3  C   UNL     1      -0.924  10.253  18.525  0.00  0.00    +0.000 C 
ATOM      4  O   UNL     1       0.165   9.939  18.057  0.00  0.00    +0.000 OA
ATOM      5  H   UNL     1      -1.989  10.864  20.229  0.00  0.00    +0.000 HD
BRANCH   3   6
ATOM      6  C   UNL     1      -2.111  10.301  17.626  0.00  0.00    +0.000 A 
ATOM      7  C   UNL     1      -2.071   9.787  16.328  0.00  0.00    +0.000 A 
ATOM      8  C   UNL     1      -3.137  10.019  15.453  0.00  0.00    +0.000 A 
ATOM      9  C   UNL     1      -4.228  10.788  15.858  0.00  0.00    +0.000 A 
ATOM     10  C   UNL     1      -4.287  11.308  17.157  0.00  0.00    +0.000 A 
ATOM     11  C   UNL     1      -3.242  11.019  18.049  0.00  0.00    +0.000 A 
BRANCH  10  12
ATOM     12  C   UNL     1      -5.392  12.262  17.546  0.00  0.00    +0.000 C 
BRANCH  12  13
ATOM     13  N   UNL     1      -6.071  11.902  18.777  0.00  0.00    +0.000 N 
ATOM     14  C   UNL     1      -6.018  12.580  19.965  0.00  0.00    +0.000 A 
ATOM     15  C   UNL     1      -6.611  11.742  20.880  0.00  0.00    +0.000 A 
ATOM     16  N   UNL     1      -7.034  10.586  20.278  0.00  0.00    +0.000 NA
ATOM     17  C   UNL     1      -6.696  10.709  19.014  0.00  0.00    +0.000 A 
ENDBRANCH  12  13
ENDBRANCH  10  12
ENDBRANCH   3   6
ENDBRANCH   1   2
BRANCH   1  18
ATOM     18  C   UNL     1       0.305   9.061  21.266  0.00  0.00    +0.000 C 
ATOM     19  O   UNL     1      -0.403   8.479  22.088  0.00  0.00    +0.000 OA
ATOM     20  N   UNL     1       1.378   8.446  20.636  0.00  0.00    +0.000 N 
ATOM     21  H   UNL     1       1.961   8.911  19.940  0.00  0.00    +0.000 HD
BRANCH  20  22
ATOM     22  N   UNL     1       1.651   7.070  20.826  0.00  0.00    +0.000 N 
ATOM     23  C   UNL     1       2.429   6.429  19.888  0.00  0.00    +0.000 C 
ATOM     24  O   UNL     1       2.893   7.032  18.922  0.00  0.00    +0.000 OA
ATOM     25  H   UNL     1       1.264   6.595  21.636  0.00  0.00    +0.000 HD
BRANCH  23  26
ATOM     26  O   UNL     1       2.598   5.100  20.158  0.00  0.00    +0.000 OA
BRANCH  26  27
ATOM     27  C   UNL     1       2.074   4.112  19.214  0.00  0.00    +0.000 C 
ATOM     28  C   UNL     1       1.572   4.792  17.933  0.00  0.00    +0.000 C 
ATOM     29  C   UNL     1       3.216   3.139  18.842  0.00  0.00    +0.000 C 
ATOM     30  C   UNL     1       0.961   3.276  19.861  0.00  0.00    +0.000 C 
ENDBRANCH  26  27
ENDBRANCH  23  26
ENDBRANCH  20  22
ENDBRANCH   1  18
BRANCH   1  31
ATOM     31  C   UNL     1      -0.077  11.623  21.899  0.00  0.00    +0.000 C 
ATOM     32  C   UNL     1      -1.413  11.535  22.646  0.00  0.00    +0.000 C 
BRANCH  31  34
ATOM     33  C   UNL     1      -1.009  13.834  20.901  0.00  0.00    +0.000 C 
ATOM     34  C   UNL     1       0.176  13.097  21.506  0.00  0.00    +0.000 C 
ENDBRANCH  31  34
ENDBRANCH   1  31
TORSDOF 10
ENDMDL
MODEL 4
REMARK VINA RESULT:      -7.7      1.303      1.967
REMARK  Name = 
REMARK  15 active torsions:
REMARK  status: ('A' for Active; 'I' for Inactive)
REMARK    1  A    between atoms: C_1  and  C_2
REMARK    2  A    between atoms: C_2  and  C_3
REMARK    3  A    between atoms: C_3  and  C_4
REMARK    4  A    between atoms: C_3  and  C_5
REMARK    5  A    between atoms: C_5  and  N_6
REMARK    6  A    between atoms: C_5  and  C_21
REMARK    7  A    between atoms: C_7  and  C_9
REMARK    8  A    between atoms: C_13  and  C_14
REMARK    9  A    between atoms: C_14  and  N_15
REMARK   10  A    between atoms: N_23  and  N_24
REMARK   11  A    between atoms: C_25  and  O_27
REMARK   12  A    between atoms: O_27  and  C_28
REMARK   13  A    between atoms: C_28  and  C_29
REMARK   14  A    between atoms: C_28  and  C_30
REMARK   15  A    between atoms: C_28  and  C_31
REMARK                            x       y       z     vdW  Elec       q    Type
REMARK                         _______ _______ _______ _____ _____    ______ ____
ROOT
ATOM      1  C   UNL     1       6.713   5.270  18.082  0.00  0.00    +0.000 C 
ENDROOT
BRANCH   1   2
ATOM      2  N   UNL     1       5.415   5.527  18.725  0.00  0.00    +0.000 N 
ATOM      3  C   UNL     1       4.669   4.480  19.245  0.00  0.00    +0.000 C 
ATOM      4  O   UNL     1       5.046   3.314  19.211  0.00  0.00    +0.000 OA
ATOM      5  H   UNL     1       5.072   6.470  18.708  0.00  0.00    +0.000 HD
BRANCH   3   6
ATOM      6  C   UNL     1       3.359   4.797  19.882  0.00  0.00    +0.000 A 
ATOM      7  C   UNL     1       2.453   3.795  20.238  0.00  0.00    +0.000 A 
ATOM      8  C   UNL     1       1.164   4.138  20.656  0.00  0.00    +0.000 A 
ATOM      9  C   UNL     1       0.765   5.474  20.691  0.00  0.00    +0.000 A 
ATOM     10  C   UNL     1       1.661   6.493  20.342  0.00  0.00    +0.000 A 
ATOM     11  C   UNL     1       2.973   6.144  19.982  0.00  0.00    +0.000 A 
BRANCH  10  12
ATOM     12  C   UNL     1       1.186   7.922  20.235  0.00  0.00    +0.000 C 
BRANCH  12  13
ATOM     13  N   UNL     1       0.695   8.472  21.485  0.00  0.00    +0.000 N 
ATOM     14  C   UNL     1      -0.616   8.603  21.858  0.00  0.00    +0.000 A 
ATOM     15  C   UNL     1      -0.587   9.382  22.992  0.00  0.00    +0.000 A 
ATOM     16  N   UNL     1       0.701   9.712  23.322  0.00  0.00    +0.000 NA
ATOM     17  C   UNL     1       1.451   9.152  22.399  0.00  0.00    +0.000 A 
ENDBRANCH  12  13
ENDBRANCH  10  12
ENDBRANCH   3   6
ENDBRANCH   1   2
BRANCH   1  18
ATOM     18  C   UNL     1       7.837   6.083  18.800  0.00  0.00    +0.000 C 
ATOM     19  O   UNL     1       8.635   5.570  19.585  0.00  0.00    +0.000 OA
ATOM     20  N   UNL     1       7.900   7.421  18.438  0.00  0.00    +0.000 N 
ATOM     21  H   UNL     1       7.257   7.854  17.775  0.00  0.00    +0.000 HD
BRANCH  20  22
ATOM     22  N   UNL     1       8.964   8.250  18.871  0.00  0.00    +0.000 N 
ATOM     23  C   UNL     1       8.932   9.581  18.519  0.00  0.00    +0.000 C 
ATOM     24  O   UNL     1       8.001  10.047  17.866  0.00  0.00    +0.000 OA
ATOM     25  H   UNL     1       9.717   7.844  19.418  0.00  0.00    +0.000 HD
BRANCH  23  26
ATOM     26  O   UNL     1      10.023  10.273  18.965  0.00  0.00    +0.000 OA
BRANCH  26  27
ATOM     27  C   UNL     1       9.819  11.434  19.833  0.00  0.00    +0.000 C 
ATOM     28  C   UNL     1       9.016  11.048  21.083  0.00  0.00    +0.000 C 
ATOM     29  C   UNL     1      11.204  11.959  20.277  0.00  0.00    +0.000 C 
ATOM     30  C   UNL     1       9.128  12.572  19.069  0.00  0.00    +0.000 C 
ENDBRANCH  26  27
ENDBRANCH  23  26
ENDBRANCH  20  22
ENDBRANCH   1  18
BRANCH   1  31
ATOM     31  C   UNL     1       6.633   5.371  16.529  0.00  0.00    +0.000 C 
ATOM     32  C   UNL     1       5.481   6.280  16.086  0.00  0.00    +0.000 C 
BRANCH  31  34
ATOM     33  C   UNL     1       6.453   4.240  14.197  0.00  0.00    +0.000 C 
ATOM     34  C   UNL     1       6.582   4.065  15.702  0.00  0.00    +0.000 C 
ENDBRANCH  31  34
ENDBRANCH   1  31
TORSDOF 10
ENDMDL
MODEL 5
REMARK VINA RESULT:      -7.6      4.724      7.902
REMARK  Name = 
REMARK  15 active torsions:
REMARK  status: ('A' for Active; 'I' for Inactive)
REMARK    1  A    between atoms: C_1  and  C_2
REMARK    2  A    between atoms: C_2  and  C_3
REMARK    3  A    between atoms: C_3  and  C_4
REMARK    4  A    between atoms: C_3  and  C_5
REMARK    5  A    between atoms: C_5  and  N_6
REMARK    6  A    between atoms: C_5  and  C_21
REMARK    7  A    between atoms: C_7  and  C_9
REMARK    8  A    between atoms: C_13  and  C_14
REMARK    9  A    between atoms: C_14  and  N_15
REMARK   10  A    between atoms: N_23  and  N_24
REMARK   11  A    between atoms: C_25  and  O_27
REMARK   12  A    between atoms: O_27  and  C_28
REMARK   13  A    between atoms: C_28  and  C_29
REMARK   14  A    between atoms: C_28  and  C_30
REMARK   15  A    between atoms: C_28  and  C_31
REMARK                            x       y       z     vdW  Elec       q    Type
REMARK                         _______ _______ _______ _____ _____    ______ ____
ROOT
ATOM      1  C   UNL     1       0.001  11.302  21.195  0.00  0.00    +0.000 C 
ENDROOT
BRANCH   1   2
ATOM      2  N   UNL     1       0.895  10.200  20.810  0.00  0.00    +0.000 N 
ATOM      3  C   UNL     1       0.883   9.705  19.514  0.00  0.00    +0.000 C 
ATOM      4  O   UNL     1       0.155  10.157  18.637  0.00  0.00    +0.000 OA
ATOM      5  H   UNL     1       1.454   9.786  21.533  0.00  0.00    +0.000 HD
BRANCH   3   6
ATOM      6  C   UNL     1       1.807   8.584  19.179  0.00  0.00    +0.000 A 
ATOM      7  C   UNL     1       2.481   8.528  17.957  0.00  0.00    +0.000 A 
ATOM      8  C   UNL     1       3.187   7.374  17.604  0.00  0.00    +0.000 A 
ATOM      9  C   UNL     1       3.198   6.266  18.450  0.00  0.00    +0.000 A 
ATOM     10  C   UNL     1       2.531   6.306  19.682  0.00  0.00    +0.000 A 
ATOM     11  C   UNL     1       1.876   7.490  20.057  0.00  0.00    +0.000 A 
BRANCH  10  12
ATOM     12  C   UNL     1       2.417   5.060  20.528  0.00  0.00    +0.000 C 
BRANCH  12  13
ATOM     13  N   UNL     1       2.206   3.847  19.760  0.00  0.00    +0.000 N 
ATOM     14  C   UNL     1       1.015   3.404  19.247  0.00  0.00    +0.000 A 
ATOM     15  C   UNL     1       1.267   2.121  18.821  0.00  0.00    +0.000 A 
ATOM     16  N   UNL     1       2.575   1.781  19.046  0.00  0.00    +0.000 NA
ATOM     17  C   UNL     1       3.116   2.838  19.612  0.00  0.00    +0.000 A 
ENDBRANCH  12  13
ENDBRANCH  10  12
ENDBRANCH   3   6
ENDBRANCH   1   2
BRANCH   1  18
ATOM     18  C   UNL     1       0.682  12.675  20.892  0.00  0.00    +0.000 C 
ATOM     19  O   UNL     1       1.175  13.384  21.770  0.00  0.00    +0.000 OA
ATOM     20  N   UNL     1       0.737  13.005  19.546  0.00  0.00    +0.000 N 
ATOM     21  H   UNL     1       0.348  12.418  18.807  0.00  0.00    +0.000 HD
BRANCH  20  22
ATOM     22  N   UNL     1       1.467  14.132  19.095  0.00  0.00    +0.000 N 
ATOM     23  C   UNL     1       2.598  13.911  18.341  0.00  0.00    +0.000 C 
ATOM     24  O   UNL     1       2.958  12.773  18.047  0.00  0.00    +0.000 OA
ATOM     25  H   UNL     1       1.145  15.062  19.343  0.00  0.00    +0.000 HD
BRANCH  23  26
ATOM     26  O   UNL     1       3.236  15.068  17.990  0.00  0.00    +0.000 OA
BRANCH  26  27
ATOM     27  C   UNL     1       4.523  15.384  18.611  0.00  0.00    +0.000 C 
ATOM     28  C   UNL     1       5.679  14.754  17.822  0.00  0.00    +0.000 C 
ATOM     29  C   UNL     1       4.701  16.919  18.608  0.00  0.00    +0.000 C 
ATOM     30  C   UNL     1       4.549  14.927  20.076  0.00  0.00    +0.000 C 
ENDBRANCH  26  27
ENDBRANCH  23  26
ENDBRANCH  20  22
ENDBRANCH   1  18
BRANCH   1  31
ATOM     31  C   UNL     1      -0.609  11.100  22.615  0.00  0.00    +0.000 C 
ATOM     32  C   UNL     1      -0.597   9.622  23.023  0.00  0.00    +0.000 C 
BRANCH  31  34
ATOM     33  C   UNL     1      -2.039  13.151  23.317  0.00  0.00    +0.000 C 
ATOM     34  C   UNL     1      -2.008  11.686  22.912  0.00  0.00    +0.000 C 
ENDBRANCH  31  34
ENDBRANCH   1  31
TORSDOF 10
ENDMDL
MODEL 6
REMARK VINA RESULT:      -7.5      3.958      6.245
REMARK  Name = 
REMARK  15 active torsions:
REMARK  status: ('A' for Active; 'I' for Inactive)
REMARK    1  A    between atoms: C_1  and  C_2
REMARK    2  A    between atoms: C_2  and  C_3
REMARK    3  A    between atoms: C_3  and  C_4
REMARK    4  A    between atoms: C_3  and  C_5
REMARK    5  A    between atoms: C_5  and  N_6
REMARK    6  A    between atoms: C_5  and  C_21
REMARK    7  A    between atoms: C_7  and  C_9
REMARK    8  A    between atoms: C_13  and  C_14
REMARK    9  A    between atoms: C_14  and  N_15
REMARK   10  A    between atoms: N_23  and  N_24
REMARK   11  A    between atoms: C_25  and  O_27
REMARK   12  A    between atoms: O_27  and  C_28
REMARK   13  A    between atoms: C_28  and  C_29
REMARK   14  A    between atoms: C_28  and  C_30
REMARK   15  A    between atoms: C_28  and  C_31
REMARK                            x       y       z     vdW  Elec       q    Type
REMARK                         _______ _______ _______ _____ _____    ______ ____
ROOT
ATOM      1  C   UNL     1       2.428   5.065  20.207  0.00  0.00    +0.000 C 
ENDROOT
BRANCH   1   2
ATOM      2  N   UNL     1       1.680   6.279  20.567  0.00  0.00    +0.000 N 
ATOM      3  C   UNL     1       2.035   7.508  20.031  0.00  0.00    +0.000 C 
ATOM      4  O   UNL     1       2.960   7.644  19.237  0.00  0.00    +0.000 OA
ATOM      5  H   UNL     1       0.958   6.187  21.258  0.00  0.00    +0.000 HD
BRANCH   3   6
ATOM      6  C   UNL     1       1.245   8.706  20.432  0.00  0.00    +0.000 A 
ATOM      7  C   UNL     1       0.693   8.828  21.710  0.00  0.00    +0.000 A 
ATOM      8  C   UNL     1      -0.195   9.871  21.988  0.00  0.00    +0.000 A 
ATOM      9  C   UNL     1      -0.559  10.774  20.990  0.00  0.00    +0.000 A 
ATOM     10  C   UNL     1      -0.012  10.671  19.704  0.00  0.00    +0.000 A 
ATOM     11  C   UNL     1       0.928   9.658  19.449  0.00  0.00    +0.000 A 
BRANCH  10  12
ATOM     12  C   UNL     1      -0.517  11.553  18.587  0.00  0.00    +0.000 C 
BRANCH  12  13
ATOM     13  N   UNL     1      -1.761  11.097  17.997  0.00  0.00    +0.000 N 
ATOM     14  C   UNL     1      -3.020  11.546  18.300  0.00  0.00    +0.000 A 
ATOM     15  C   UNL     1      -3.872  10.665  17.676  0.00  0.00    +0.000 A 
ATOM     16  N   UNL     1      -3.167   9.709  16.993  0.00  0.00    +0.000 NA
ATOM     17  C   UNL     1      -1.902   9.993  17.204  0.00  0.00    +0.000 A 
ENDBRANCH  12  13
ENDBRANCH  10  12
ENDBRANCH   3   6
ENDBRANCH   1   2
BRANCH   1  18
ATOM     18  C   UNL     1       2.669   5.021  18.665  0.00  0.00    +0.000 C 
ATOM     19  O   UNL     1       1.759   5.134  17.843  0.00  0.00    +0.000 OA
ATOM     20  N   UNL     1       4.001   4.901  18.293  0.00  0.00    +0.000 N 
ATOM     21  H   UNL     1       4.766   4.824  18.964  0.00  0.00    +0.000 HD
BRANCH  20  22
ATOM     22  N   UNL     1       4.398   5.014  16.939  0.00  0.00    +0.000 N 
ATOM     23  C   UNL     1       5.347   5.961  16.620  0.00  0.00    +0.000 C 
ATOM     24  O   UNL     1       5.852   6.675  17.483  0.00  0.00    +0.000 OA
ATOM     25  H   UNL     1       3.974   4.406  16.245  0.00  0.00    +0.000 HD
BRANCH  23  26
ATOM     26  O   UNL     1       5.628   6.000  15.283  0.00  0.00    +0.000 OA
BRANCH  26  27
ATOM     27  C   UNL     1       6.450   4.938  14.700  0.00  0.00    +0.000 C 
ATOM     28  C   UNL     1       7.128   4.107  15.797  0.00  0.00    +0.000 C 
ATOM     29  C   UNL     1       5.531   4.010  13.873  0.00  0.00    +0.000 C 
ATOM     30  C   UNL     1       7.490   5.522  13.734  0.00  0.00    +0.000 C 
ENDBRANCH  26  27
ENDBRANCH  23  26
ENDBRANCH  20  22
ENDBRANCH   1  18
BRANCH   1  31
ATOM     31  C   UNL     1       1.841   3.788  20.880  0.00  0.00    +0.000 C 
ATOM     32  C   UNL     1       2.929   2.737  21.131  0.00  0.00    +0.000 C 
BRANCH  31  34
ATOM     33  C   UNL     1       0.948   2.056  19.162  0.00  0.00    +0.000 C 
ATOM     34  C   UNL     1       0.625   3.095  20.224  0.00  0.00    +0.000 C 
ENDBRANCH  31  34
ENDBRANCH   1  31
TORSDOF 10
ENDMDL
MODEL 7
REMARK VINA RESULT:      -7.5      5.516     10.234
REMARK  Name = 
REMARK  15 active torsions:
REMARK  status: ('A' for Active; 'I' for Inactive)
REMARK    1  A    between atoms: C_1  and  C_2
REMARK    2  A    between atoms: C_2  and  C_3
REMARK    3  A    between atoms: C_3  and  C_4
REMARK    4  A    between atoms: C_3  and  C_5
REMARK    5  A    between atoms: C_5  and  N_6
REMARK    6  A    between atoms: C_5  and  C_21
REMARK    7  A    between atoms: C_7  and  C_9
REMARK    8  A    between atoms: C_13  and  C_14
REMARK    9  A    between atoms: C_14  and  N_15
REMARK   10  A    between atoms: N_23  and  N_24
REMARK   11  A    between atoms: C_25  and  O_27
REMARK   12  A    between atoms: O_27  and  C_28
REMARK   13  A    between atoms: C_28  and  C_29
REMARK   14  A    between atoms: C_28  and  C_30
REMARK   15  A    between atoms: C_28  and  C_31
REMARK                            x       y       z     vdW  Elec       q    Type
REMARK                         _______ _______ _______ _____ _____    ______ ____
ROOT
ATOM      1  C   UNL     1       0.380  12.514  19.117  0.00  0.00    +0.000 C 
ENDROOT
BRANCH   1   2
ATOM      2  N   UNL     1       0.987  11.229  18.739  0.00  0.00    +0.000 N 
ATOM      3  C   UNL     1       1.153  10.225  19.683  0.00  0.00    +0.000 C 
ATOM      4  O   UNL     1       0.798  10.345  20.850  0.00  0.00    +0.000 OA
ATOM      5  H   UNL     1       1.332  11.141  17.801  0.00  0.00    +0.000 HD
BRANCH   3   6
ATOM      6  C   UNL     1       1.778   8.944  19.246  0.00  0.00    +0.000 A 
ATOM      7  C   UNL     1       2.206   8.747  17.931  0.00  0.00    +0.000 A 
ATOM      8  C   UNL     1       2.611   7.475  17.514  0.00  0.00    +0.000 A 
ATOM      9  C   UNL     1       2.561   6.394  18.394  0.00  0.00    +0.000 A 
ATOM     10  C   UNL     1       2.139   6.575  19.717  0.00  0.00    +0.000 A 
ATOM     11  C   UNL     1       1.793   7.867  20.146  0.00  0.00    +0.000 A 
BRANCH  10  12
ATOM     12  C   UNL     1       1.942   5.382  20.623  0.00  0.00    +0.000 C 
BRANCH  12  13
ATOM     13  N   UNL     1       2.046   4.105  19.943  0.00  0.00    +0.000 N 
ATOM     14  C   UNL     1       1.007   3.317  19.525  0.00  0.00    +0.000 A 
ATOM     15  C   UNL     1       1.588   2.124  19.164  0.00  0.00    +0.000 A 
ATOM     16  N   UNL     1       2.946   2.172  19.336  0.00  0.00    +0.000 NA
ATOM     17  C   UNL     1       3.194   3.375  19.806  0.00  0.00    +0.000 A 
ENDBRANCH  12  13
ENDBRANCH  10  12
ENDBRANCH   3   6
ENDBRANCH   1   2
BRANCH   1  18
ATOM     18  C   UNL     1      -1.173  12.437  18.966  0.00  0.00    +0.000 C 
ATOM     19  O   UNL     1      -1.948  12.722  19.880  0.00  0.00    +0.000 OA
ATOM     20  N   UNL     1      -1.611  12.077  17.700  0.00  0.00    +0.000 N 
ATOM     21  H   UNL     1      -0.980  11.856  16.929  0.00  0.00    +0.000 HD
BRANCH  20  22
ATOM     22  N   UNL     1      -2.984  12.124  17.356  0.00  0.00    +0.000 N 
ATOM     23  C   UNL     1      -3.727  10.973  17.497  0.00  0.00    +0.000 C 
ATOM     24  O   UNL     1      -3.225   9.937  17.927  0.00  0.00    +0.000 OA
ATOM     25  H   UNL     1      -3.379  12.994  17.013  0.00  0.00    +0.000 HD
BRANCH  23  26
ATOM     26  O   UNL     1      -5.027  11.130  17.106  0.00  0.00    +0.000 OA
BRANCH  26  27
ATOM     27  C   UNL     1      -6.015  11.572  18.092  0.00  0.00    +0.000 C 
ATOM     28  C   UNL     1      -7.044  12.513  17.451  0.00  0.00    +0.000 C 
ATOM     29  C   UNL     1      -6.753  10.326  18.633  0.00  0.00    +0.000 C 
ATOM     30  C   UNL     1      -5.328  12.246  19.288  0.00  0.00    +0.000 C 
ENDBRANCH  26  27
ENDBRANCH  23  26
ENDBRANCH  20  22
ENDBRANCH   1  18
BRANCH   1  31
ATOM     31  C   UNL     1       1.107  13.727  18.463  0.00  0.00    +0.000 C 
ATOM     32  C   UNL     1       2.546  13.371  18.072  0.00  0.00    +0.000 C 
BRANCH  31  34
ATOM     33  C   UNL     1       1.645  16.268  18.425  0.00  0.00    +0.000 C 
ATOM     34  C   UNL     1       1.115  15.079  19.211  0.00  0.00    +0.000 C 
ENDBRANCH  31  34
ENDBRANCH   1  31
TORSDOF 10
ENDMDL
MODEL 8
REMARK VINA RESULT:      -7.4      5.161      9.763
REMARK  Name = 
REMARK  15 active torsions:
REMARK  status: ('A' for Active; 'I' for Inactive)
REMARK    1  A    between atoms: C_1  and  C_2
REMARK    2  A    between atoms: C_2  and  C_3
REMARK    3  A    between atoms: C_3  and  C_4
REMARK    4  A    between atoms: C_3  and  C_5
REMARK    5  A    between atoms: C_5  and  N_6
REMARK    6  A    between atoms: C_5  and  C_21
REMARK    7  A    between atoms: C_7  and  C_9
REMARK    8  A    between atoms: C_13  and  C_14
REMARK    9  A    between atoms: C_14  and  N_15
REMARK   10  A    between atoms: N_23  and  N_24
REMARK   11  A    between atoms: C_25  and  O_27
REMARK   12  A    between atoms: O_27  and  C_28
REMARK   13  A    between atoms: C_28  and  C_29
REMARK   14  A    between atoms: C_28  and  C_30
REMARK   15  A    between atoms: C_28  and  C_31
REMARK                            x       y       z     vdW  Elec       q    Type
REMARK                         _______ _______ _______ _____ _____    ______ ____
ROOT
ATOM      1  C   UNL     1       0.565  11.375  19.456  0.00  0.00    +0.000 C 
ENDROOT
BRANCH   1   2
ATOM      2  N   UNL     1       0.935   9.974  19.206  0.00  0.00    +0.000 N 
ATOM      3  C   UNL     1       1.267   9.135  20.259  0.00  0.00    +0.000 C 
ATOM      4  O   UNL     1       1.257   9.502  21.429  0.00  0.00    +0.000 OA
ATOM      5  H   UNL     1       1.000   9.679  18.249  0.00  0.00    +0.000 HD
BRANCH   3   6
ATOM      6  C   UNL     1       1.637   7.725  19.947  0.00  0.00    +0.000 A 
ATOM      7  C   UNL     1       1.348   6.678  20.825  0.00  0.00    +0.000 A 
ATOM      8  C   UNL     1       1.875   5.405  20.588  0.00  0.00    +0.000 A 
ATOM      9  C   UNL     1       2.715   5.180  19.498  0.00  0.00    +0.000 A 
ATOM     10  C   UNL     1       3.013   6.217  18.605  0.00  0.00    +0.000 A 
ATOM     11  C   UNL     1       2.430   7.478  18.814  0.00  0.00    +0.000 A 
BRANCH  10  12
ATOM     12  C   UNL     1       4.038   6.013  17.515  0.00  0.00    +0.000 C 
BRANCH  12  13
ATOM     13  N   UNL     1       5.409   6.005  17.992  0.00  0.00    +0.000 N 
ATOM     14  C   UNL     1       6.407   6.864  17.617  0.00  0.00    +0.000 A 
ATOM     15  C   UNL     1       7.558   6.321  18.138  0.00  0.00    +0.000 A 
ATOM     16  N   UNL     1       7.283   5.170  18.829  0.00  0.00    +0.000 NA
ATOM     17  C   UNL     1       5.984   5.004  18.723  0.00  0.00    +0.000 A 
ENDBRANCH  12  13
ENDBRANCH  10  12
ENDBRANCH   3   6
ENDBRANCH   1   2
BRANCH   1  18
ATOM     18  C   UNL     1      -0.961  11.582  19.195  0.00  0.00    +0.000 C 
ATOM     19  O   UNL     1      -1.769  11.807  20.097  0.00  0.00    +0.000 OA
ATOM     20  N   UNL     1      -1.326  11.549  17.857  0.00  0.00    +0.000 N 
ATOM     21  H   UNL     1      -0.663  11.381  17.098  0.00  0.00    +0.000 HD
BRANCH  20  22
ATOM     22  N   UNL     1      -2.638  11.883  17.444  0.00  0.00    +0.000 N 
ATOM     23  C   UNL     1      -3.584  10.883  17.422  0.00  0.00    +0.000 C 
ATOM     24  O   UNL     1      -3.311   9.736  17.768  0.00  0.00    +0.000 OA
ATOM     25  H   UNL     1      -2.843  12.840  17.172  0.00  0.00    +0.000 HD
BRANCH  23  26
ATOM     26  O   UNL     1      -4.803  11.316  16.979  0.00  0.00    +0.000 OA
BRANCH  26  27
ATOM     27  C   UNL     1      -5.795  11.765  17.957  0.00  0.00    +0.000 C 
ATOM     28  C   UNL     1      -6.808  12.719  17.310  0.00  0.00    +0.000 C 
ATOM     29  C   UNL     1      -6.552  10.525  18.486  0.00  0.00    +0.000 C 
ATOM     30  C   UNL     1      -5.112  12.427  19.161  0.00  0.00    +0.000 C 
ENDBRANCH  26  27
ENDBRANCH  23  26
ENDBRANCH  20  22
ENDBRANCH   1  18
BRANCH   1  31
ATOM     31  C   UNL     1       1.551  12.376  18.783  0.00  0.00    +0.000 C 
ATOM     32  C   UNL     1       2.530  11.654  17.849  0.00  0.00    +0.000 C 
BRANCH  31  34
ATOM     33  C   UNL     1       1.598  13.915  20.876  0.00  0.00    +0.000 C 
ATOM     34  C   UNL     1       2.349  13.349  19.681  0.00  0.00    +0.000 C 
ENDBRANCH  31  34
ENDBRANCH   1  31
TORSDOF 10
ENDMDL
MODEL 9
REMARK VINA RESULT:      -7.4      5.235      8.977
REMARK  Name = 
REMARK  15 active torsions:
REMARK  status: ('A' for Active; 'I' for Inactive)
REMARK    1  A    between atoms: C_1  and  C_2
REMARK    2  A    between atoms: C_2  and  C_3
REMARK    3  A    between atoms: C_3  and  C_4
REMARK    4  A    between atoms: C_3  and  C_5
REMARK    5  A    between atoms: C_5  and  N_6
REMARK    6  A    between atoms: C_5  and  C_21
REMARK    7  A    between atoms: C_7  and  C_9
REMARK    8  A    between atoms: C_13  and  C_14
REMARK    9  A    between atoms: C_14  and  N_15
REMARK   10  A    between atoms: N_23  and  N_24
REMARK   11  A    between atoms: C_25  and  O_27
REMARK   12  A    between atoms: O_27  and  C_28
REMARK   13  A    between atoms: C_28  and  C_29
REMARK   14  A    between atoms: C_28  and  C_30
REMARK   15  A    between atoms: C_28  and  C_31
REMARK                            x       y       z     vdW  Elec       q    Type
REMARK                         _______ _______ _______ _____ _____    ______ ____
ROOT
ATOM      1  C   UNL     1       0.665   9.803  19.596  0.00  0.00    +0.000 C 
ENDROOT
BRANCH   1   2
ATOM      2  N   UNL     1      -0.696   9.925  19.050  0.00  0.00    +0.000 N 
ATOM      3  C   UNL     1      -1.190  11.162  18.664  0.00  0.00    +0.000 C 
ATOM      4  O   UNL     1      -0.532  12.194  18.741  0.00  0.00    +0.000 OA
ATOM      5  H   UNL     1      -1.262   9.097  19.036  0.00  0.00    +0.000 HD
BRANCH   3   6
ATOM      6  C   UNL     1      -2.577  11.229  18.122  0.00  0.00    +0.000 A 
ATOM      7  C   UNL     1      -2.863  10.901  16.795  0.00  0.00    +0.000 A 
ATOM      8  C   UNL     1      -4.136  11.156  16.274  0.00  0.00    +0.000 A 
ATOM      9  C   UNL     1      -5.113  11.764  17.061  0.00  0.00    +0.000 A 
ATOM     10  C   UNL     1      -4.845  12.095  18.396  0.00  0.00    +0.000 A 
ATOM     11  C   UNL     1      -3.585  11.779  18.930  0.00  0.00    +0.000 A 
BRANCH  10  12
ATOM     12  C   UNL     1      -5.848  12.886  19.201  0.00  0.00    +0.000 C 
BRANCH  12  13
ATOM     13  N   UNL     1      -6.524  12.108  20.223  0.00  0.00    +0.000 N 
ATOM     14  C   UNL     1      -7.320  11.012  20.019  0.00  0.00    +0.000 A 
ATOM     15  C   UNL     1      -7.916  10.775  21.236  0.00  0.00    +0.000 A 
ATOM     16  N   UNL     1      -7.493  11.683  22.170  0.00  0.00    +0.000 NA
ATOM     17  C   UNL     1      -6.657  12.473  21.534  0.00  0.00    +0.000 A 
ENDBRANCH  12  13
ENDBRANCH  10  12
ENDBRANCH   3   6
ENDBRANCH   1   2
BRANCH   1  18
ATOM     18  C   UNL     1       1.605   9.131  18.545  0.00  0.00    +0.000 C 
ATOM     19  O   UNL     1       1.852   9.636  17.450  0.00  0.00    +0.000 OA
ATOM     20  N   UNL     1       2.186   7.944  18.968  0.00  0.00    +0.000 N 
ATOM     21  H   UNL     1       2.004   7.524  19.881  0.00  0.00    +0.000 HD
BRANCH  20  22
ATOM     22  N   UNL     1       3.187   7.301  18.201  0.00  0.00    +0.000 N 
ATOM     23  C   UNL     1       2.982   5.989  17.838  0.00  0.00    +0.000 C 
ATOM     24  O   UNL     1       1.953   5.393  18.149  0.00  0.00    +0.000 OA
ATOM     25  H   UNL     1       4.024   7.817  17.947  0.00  0.00    +0.000 HD
BRANCH  23  26
ATOM     26  O   UNL     1       4.027   5.466  17.128  0.00  0.00    +0.000 OA
BRANCH  26  27
ATOM     27  C   UNL     1       4.927   4.517  17.786  0.00  0.00    +0.000 C 
ATOM     28  C   UNL     1       4.982   4.776  19.298  0.00  0.00    +0.000 C 
ATOM     29  C   UNL     1       4.387   3.089  17.548  0.00  0.00    +0.000 C 
ATOM     30  C   UNL     1       6.330   4.579  17.169  0.00  0.00    +0.000 C 
ENDBRANCH  26  27
ENDBRANCH  23  26
ENDBRANCH  20  22
ENDBRANCH   1  18
BRANCH   1  31
ATOM     31  C   UNL     1       0.672   9.223  21.042  0.00  0.00    +0.000 C 
ATOM     32  C   UNL     1      -0.455   8.203  21.241  0.00  0.00    +0.000 C 
BRANCH  31  34
ATOM     33  C   UNL     1      -0.428  11.258  22.224  0.00  0.00    +0.000 C 
ATOM     34  C   UNL     1       0.669  10.205  22.236  0.00  0.00    +0.000 C 
ENDBRANCH  31  34
ENDBRANCH   1  31
TORSDOF 10
ENDMDL
