MODEL 1
REMARK VINA RESULT:      -8.6      0.000      0.000
REMARK  Name = 
REMARK  8 active torsions:
REMARK  status: ('A' for Active; 'I' for Inactive)
REMARK    1  A    between atoms: C_1  and  O_2
REMARK    2  A    between atoms: O_2  and  C_3
REMARK    3  A    between atoms: C_5  and  C_6
REMARK    4  A    between atoms: C_6  and  N_7
REMARK    5  A    between atoms: C_11  and  C_12
REMARK    6  A    between atoms: C_14  and  C_15
REMARK    7  A    between atoms: C_21  and  C_22
REMARK    8  A    between atoms: C_29  and  O_30
REMARK                            x       y       z     vdW  Elec       q    Type
REMARK                         _______ _______ _______ _____ _____    ______ ____
ROOT
ATOM      1  N   UNL     1       0.636  10.237  19.763  0.00  0.00    +0.000 NA
ATOM      2  C   UNL     1      -0.352   9.834  20.763  0.00  0.00    +0.000 C 
ATOM      3  C   UNL     1       0.176   8.814  21.767  0.00  0.00    +0.000 C 
ATOM      4  C   UNL     1       0.801   7.616  21.069  0.00  0.00    +0.000 C 
ATOM      5  C   UNL     1       1.911   8.059  20.117  0.00  0.00    +0.000 C 
ATOM      6  C   UNL     1       1.415   9.157  19.153  0.00  0.00    +0.000 C 
ENDROOT
BRANCH   5   7
ATOM      7  C   UNL     1       2.452   6.855  19.326  0.00  0.00    +0.000 A 
ATOM      8  C   UNL     1       1.928   5.492  19.681  0.00  0.00    +0.000 A 
ATOM      9  C   UNL     1       2.431   4.449  18.984  0.00  0.00    +0.000 A 
ATOM     10  N   UNL     1       3.382   4.680  17.997  0.00  0.00    +0.000 N 
ATOM     11  N   UNL     1       4.023   3.792  17.199  0.00  0.00    +0.000 NA
ATOM     12  C   UNL     1       4.837   4.514  16.435  0.00  0.00    +0.000 A 
ATOM     13  C   UNL     1       5.725   3.860  15.447  0.00  0.00    +0.000 C 
ATOM     14  C   UNL     1       4.732   5.888  16.707  0.00  0.00    +0.000 A 
ATOM     15  C   UNL     1       3.805   5.982  17.722  0.00  0.00    +0.000 A 
ATOM     16  N   UNL     1       3.335   7.063  18.394  0.00  0.00    +0.000 NA
BRANCH   9  17
ATOM     17  C   UNL     1       2.001   3.050  19.226  0.00  0.00    +0.000 C 
ATOM     18  F   UNL     1       1.077   2.859  20.195  0.00  0.00    +0.000 F 
ATOM     19  F   UNL     1       1.478   2.503  18.093  0.00  0.00    +0.000 F 
ATOM     20  F   UNL     1       3.066   2.268  19.557  0.00  0.00    +0.000 F 
ENDBRANCH   9  17
ENDBRANCH   5   7
BRANCH   1  21
ATOM     21  C   UNL     1       0.087  11.157  18.743  0.00  0.00    +0.000 C 
BRANCH  21  24
ATOM     22  C   UNL     1      -3.718  11.781  18.686  0.00  0.00    +0.000 A 
ATOM     23  C   UNL     1      -2.350  11.855  19.016  0.00  0.00    +0.000 A 
ATOM     24  C   UNL     1      -1.393  11.035  18.395  0.00  0.00    +0.000 A 
ATOM     25  C   UNL     1      -1.844  10.137  17.423  0.00  0.00    +0.000 A 
ATOM     26  C   UNL     1      -3.195  10.048  17.079  0.00  0.00    +0.000 A 
ATOM     27  C   UNL     1      -4.130  10.866  17.702  0.00  0.00    +0.000 A 
BRANCH  22  29
ATOM     28  C   UNL     1      -4.219  12.784  20.785  0.00  0.00    +0.000 C 
ATOM     29  O   UNL     1      -4.503  12.652  19.397  0.00  0.00    +0.000 OA
ENDBRANCH  22  29
BRANCH  27  30
ATOM     30  O   UNL     1      -5.431  10.748  17.320  0.00  0.00    +0.000 OA
ATOM     31  H   UNL     1      -5.766  11.623  17.068  0.00  0.00    +0.000 HD
ENDBRANCH  27  30
ENDBRANCH  21  24
ENDBRANCH   1  21
TORSDOF 6
ENDMDL
MODEL 2
REMARK VINA RESULT:      -8.5      0.841      1.158
REMARK  Name = 
REMARK  8 active torsions:
REMARK  status: ('A' for Active; 'I' for Inactive)
REMARK    1  A    between atoms: C_1  and  O_2
REMARK    2  A    between atoms: O_2  and  C_3
REMARK    3  A    between atoms: C_5  and  C_6
REMARK    4  A    between atoms: C_6  and  N_7
REMARK    5  A    between atoms: C_11  and  C_12
REMARK    6  A    between atoms: C_14  and  C_15
REMARK    7  A    between atoms: C_21  and  C_22
REMARK    8  A    between atoms: C_29  and  O_30
REMARK                            x       y       z     vdW  Elec       q    Type
REMARK                         _______ _______ _______ _____ _____    ______ ____
ROOT
ATOM      1  N   UNL     1       0.292  10.627  20.532  0.00  0.00    +0.000 NA
ATOM      2  C   UNL     1      -0.724  10.261  21.518  0.00  0.00    +0.000 C 
ATOM      3  C   UNL     1      -0.253   9.212  22.520  0.00  0.00    +0.000 C 
ATOM      4  C   UNL     1       0.327   7.992  21.820  0.00  0.00    +0.000 C 
ATOM      5  C   UNL     1       1.466   8.392  20.884  0.00  0.00    +0.000 C 
ATOM      6  C   UNL     1       1.030   9.517  19.922  0.00  0.00    +0.000 C 
ENDROOT
BRANCH   5   7
ATOM      7  C   UNL     1       1.962   7.171  20.090  0.00  0.00    +0.000 A 
ATOM      8  C   UNL     1       1.474   5.815  20.514  0.00  0.00    +0.000 A 
ATOM      9  C   UNL     1       1.937   4.757  19.813  0.00  0.00    +0.000 A 
ATOM     10  N   UNL     1       2.819   4.967  18.758  0.00  0.00    +0.000 N 
ATOM     11  N   UNL     1       3.412   4.063  17.942  0.00  0.00    +0.000 NA
ATOM     12  C   UNL     1       4.167   4.769  17.108  0.00  0.00    +0.000 A 
ATOM     13  C   UNL     1       4.992   4.095  16.079  0.00  0.00    +0.000 C 
ATOM     14  C   UNL     1       4.069   6.149  17.350  0.00  0.00    +0.000 A 
ATOM     15  C   UNL     1       3.212   6.264  18.422  0.00  0.00    +0.000 A 
ATOM     16  N   UNL     1       2.779   7.359  19.096  0.00  0.00    +0.000 NA
BRANCH   9  17
ATOM     17  C   UNL     1       1.536   3.362  20.119  0.00  0.00    +0.000 C 
ATOM     18  F   UNL     1       2.520   2.433  20.107  0.00  0.00    +0.000 F 
ATOM     19  F   UNL     1       0.959   3.284  21.350  0.00  0.00    +0.000 F 
ATOM     20  F   UNL     1       0.592   2.927  19.239  0.00  0.00    +0.000 F 
ENDBRANCH   9  17
ENDBRANCH   5   7
BRANCH   1  21
ATOM     21  C   UNL     1      -0.205  11.577  19.513  0.00  0.00    +0.000 C 
BRANCH  21  24
ATOM     22  C   UNL     1      -3.995  11.981  18.923  0.00  0.00    +0.000 A 
ATOM     23  C   UNL     1      -2.691  12.137  19.435  0.00  0.00    +0.000 A 
ATOM     24  C   UNL     1      -1.614  11.367  18.967  0.00  0.00    +0.000 A 
ATOM     25  C   UNL     1      -1.876  10.433  17.959  0.00  0.00    +0.000 A 
ATOM     26  C   UNL     1      -3.160  10.263  17.435  0.00  0.00    +0.000 A 
ATOM     27  C   UNL     1      -4.215  11.033  17.909  0.00  0.00    +0.000 A 
BRANCH  22  29
ATOM     28  C   UNL     1      -5.205  12.590  20.878  0.00  0.00    +0.000 C 
ATOM     29  O   UNL     1      -4.917  12.813  19.502  0.00  0.00    +0.000 OA
ENDBRANCH  22  29
BRANCH  27  30
ATOM     30  O   UNL     1      -5.443  10.836  17.355  0.00  0.00    +0.000 OA
ATOM     31  H   UNL     1      -5.781  11.685  17.029  0.00  0.00    +0.000 HD
ENDBRANCH  27  30
ENDBRANCH  21  24
ENDBRANCH   1  21
TORSDOF 6
ENDMDL
MODEL 3
REMARK VINA RESULT:      -8.3      4.875      9.243
REMARK  Name = 
REMARK  8 active torsions:
REMARK  status: ('A' for Active; 'I' for Inactive)
REMARK    1  A    between atoms: C_1  and  O_2
REMARK    2  A    between atoms: O_2  and  C_3
REMARK    3  A    between atoms: C_5  and  C_6
REMARK    4  A    between atoms: C_6  and  N_7
REMARK    5  A    between atoms: C_11  and  C_12
REMARK    6  A    between atoms: C_14  and  C_15
REMARK    7  A    between atoms: C_21  and  C_22
REMARK    8  A    between atoms: C_29  and  O_30
REMARK                            x       y       z     vdW  Elec       q    Type
REMARK                         _______ _______ _______ _____ _____    ______ ____
ROOT
ATOM      1  N   UNL     1       2.025   7.539  20.041  0.00  0.00    +0.000 NA
ATOM      2  C   UNL     1       2.442   7.257  18.668  0.00  0.00    +0.000 C 
ATOM      3  C   UNL     1       2.585   8.506  17.804  0.00  0.00    +0.000 C 
ATOM      4  C   UNL     1       1.330   9.365  17.853  0.00  0.00    +0.000 C 
ATOM      5  C   UNL     1       0.984   9.742  19.292  0.00  0.00    +0.000 C 
ATOM      6  C   UNL     1       0.924   8.494  20.198  0.00  0.00    +0.000 C 
ENDROOT
BRANCH   5   7
ATOM      7  C   UNL     1      -0.352  10.503  19.341  0.00  0.00    +0.000 A 
ATOM      8  C   UNL     1      -1.351  10.236  18.251  0.00  0.00    +0.000 A 
ATOM      9  C   UNL     1      -2.509  10.929  18.306  0.00  0.00    +0.000 A 
ATOM     10  N   UNL     1      -2.718  11.832  19.342  0.00  0.00    +0.000 N 
ATOM     11  N   UNL     1      -3.784  12.635  19.579  0.00  0.00    +0.000 NA
ATOM     12  C   UNL     1      -3.490  13.310  20.685  0.00  0.00    +0.000 A 
ATOM     13  C   UNL     1      -4.431  14.314  21.232  0.00  0.00    +0.000 C 
ATOM     14  C   UNL     1      -2.234  12.951  21.202  0.00  0.00    +0.000 A 
ATOM     15  C   UNL     1      -1.741  12.011  20.323  0.00  0.00    +0.000 A 
ATOM     16  N   UNL     1      -0.560  11.343  20.312  0.00  0.00    +0.000 NA
BRANCH   9  17
ATOM     17  C   UNL     1      -3.586  10.762  17.299  0.00  0.00    +0.000 C 
ATOM     18  F   UNL     1      -3.999  11.882  16.662  0.00  0.00    +0.000 F 
ATOM     19  F   UNL     1      -3.203   9.892  16.323  0.00  0.00    +0.000 F 
ATOM     20  F   UNL     1      -4.697  10.216  17.866  0.00  0.00    +0.000 F 
ENDBRANCH   9  17
ENDBRANCH   5   7
BRANCH   1  21
ATOM     21  C   UNL     1       1.803   6.315  20.842  0.00  0.00    +0.000 C 
BRANCH  21  24
ATOM     22  C   UNL     1       3.825   3.393  19.344  0.00  0.00    +0.000 A 
ATOM     23  C   UNL     1       3.480   4.640  19.902  0.00  0.00    +0.000 A 
ATOM     24  C   UNL     1       2.149   4.973  20.207  0.00  0.00    +0.000 A 
ATOM     25  C   UNL     1       1.166   4.014  19.942  0.00  0.00    +0.000 A 
ATOM     26  C   UNL     1       1.485   2.771  19.391  0.00  0.00    +0.000 A 
ATOM     27  C   UNL     1       2.806   2.457  19.095  0.00  0.00    +0.000 A 
BRANCH  22  29
ATOM     28  C   UNL     1       5.853   4.382  18.589  0.00  0.00    +0.000 C 
ATOM     29  O   UNL     1       5.168   3.248  19.109  0.00  0.00    +0.000 OA
ENDBRANCH  22  29
BRANCH  27  30
ATOM     30  O   UNL     1       3.064   1.228  18.571  0.00  0.00    +0.000 OA
ATOM     31  H   UNL     1       2.387   0.605  18.882  0.00  0.00    +0.000 HD
ENDBRANCH  27  30
ENDBRANCH  21  24
ENDBRANCH   1  21
TORSDOF 6
ENDMDL
MODEL 4
REMARK VINA RESULT:      -8.2      5.007      8.592
REMARK  Name = 
REMARK  8 active torsions:
REMARK  status: ('A' for Active; 'I' for Inactive)
REMARK    1  A    between atoms: C_1  and  O_2
REMARK    2  A    between atoms: O_2  and  C_3
REMARK    3  A    between atoms: C_5  and  C_6
REMARK    4  A    between atoms: C_6  and  N_7
REMARK    5  A    between atoms: C_11  and  C_12
REMARK    6  A    between atoms: C_14  and  C_15
REMARK    7  A    between atoms: C_21  and  C_22
REMARK    8  A    between atoms: C_29  and  O_30
REMARK                            x       y       z     vdW  Elec       q    Type
REMARK                         _______ _______ _______ _____ _____    ______ ____
ROOT
ATOM      1  N   UNL     1       3.710   3.911  19.224  0.00  0.00    +0.000 NA
ATOM      2  C   UNL     1       3.238   3.139  20.373  0.00  0.00    +0.000 C 
ATOM      3  C   UNL     1       1.760   3.352  20.687  0.00  0.00    +0.000 C 
ATOM      4  C   UNL     1       1.425   4.830  20.818  0.00  0.00    +0.000 C 
ATOM      5  C   UNL     1       1.823   5.593  19.555  0.00  0.00    +0.000 C 
ATOM      6  C   UNL     1       3.293   5.315  19.174  0.00  0.00    +0.000 C 
ENDROOT
BRANCH   5   7
ATOM      7  C   UNL     1       1.595   7.102  19.744  0.00  0.00    +0.000 A 
ATOM      8  C   UNL     1       0.992   7.562  21.042  0.00  0.00    +0.000 A 
ATOM      9  C   UNL     1       0.785   8.889  21.178  0.00  0.00    +0.000 A 
ATOM     10  N   UNL     1       1.132   9.747  20.140  0.00  0.00    +0.000 N 
ATOM     11  N   UNL     1       0.999  11.093  20.057  0.00  0.00    +0.000 NA
ATOM     12  C   UNL     1       1.469  11.430  18.862  0.00  0.00    +0.000 A 
ATOM     13  C   UNL     1       1.455  12.842  18.413  0.00  0.00    +0.000 C 
ATOM     14  C   UNL     1       1.935  10.315  18.146  0.00  0.00    +0.000 A 
ATOM     15  C   UNL     1       1.700   9.237  18.971  0.00  0.00    +0.000 A 
ATOM     16  N   UNL     1       1.925   7.912  18.782  0.00  0.00    +0.000 NA
BRANCH   9  17
ATOM     17  C   UNL     1       0.202   9.482  22.407  0.00  0.00    +0.000 C 
ATOM     18  F   UNL     1       1.010   9.545  23.491  0.00  0.00    +0.000 F 
ATOM     19  F   UNL     1      -0.218  10.757  22.176  0.00  0.00    +0.000 F 
ATOM     20  F   UNL     1      -0.905   8.793  22.797  0.00  0.00    +0.000 F 
ENDBRANCH   9  17
ENDBRANCH   5   7
BRANCH   1  21
ATOM     21  C   UNL     1       5.163   3.765  18.985  0.00  0.00    +0.000 C 
BRANCH  21  24
ATOM     22  C   UNL     1       7.069   5.859  16.367  0.00  0.00    +0.000 A 
ATOM     23  C   UNL     1       6.518   5.408  17.584  0.00  0.00    +0.000 A 
ATOM     24  C   UNL     1       5.720   4.254  17.652  0.00  0.00    +0.000 A 
ATOM     25  C   UNL     1       5.491   3.555  16.463  0.00  0.00    +0.000 A 
ATOM     26  C   UNL     1       6.028   3.982  15.247  0.00  0.00    +0.000 A 
ATOM     27  C   UNL     1       6.816   5.126  15.195  0.00  0.00    +0.000 A 
BRANCH  22  29
ATOM     28  C   UNL     1       7.745   7.680  17.742  0.00  0.00    +0.000 C 
ATOM     29  O   UNL     1       7.815   7.003  16.492  0.00  0.00    +0.000 OA
ENDBRANCH  22  29
BRANCH  27  30
ATOM     30  O   UNL     1       7.325   5.491  13.987  0.00  0.00    +0.000 OA
ATOM     31  H   UNL     1       6.618   5.889  13.455  0.00  0.00    +0.000 HD
ENDBRANCH  27  30
ENDBRANCH  21  24
ENDBRANCH   1  21
TORSDOF 6
ENDMDL
MODEL 5
REMARK VINA RESULT:      -8.2      4.179      5.795
REMARK  Name = 
REMARK  8 active torsions:
REMARK  status: ('A' for Active; 'I' for Inactive)
REMARK    1  A    between atoms: C_1  and  O_2
REMARK    2  A    between atoms: O_2  and  C_3
REMARK    3  A    between atoms: C_5  and  C_6
REMARK    4  A    between atoms: C_6  and  N_7
REMARK    5  A    between atoms: C_11  and  C_12
REMARK    6  A    between atoms: C_14  and  C_15
REMARK    7  A    between atoms: C_21  and  C_22
REMARK    8  A    between atoms: C_29  and  O_30
REMARK                            x       y       z     vdW  Elec       q    Type
REMARK                         _______ _______ _______ _____ _____    ______ ____
ROOT
ATOM      1  N   UNL     1       2.239   4.000  20.258  0.00  0.00    +0.000 NA
ATOM      2  C   UNL     1       1.114   3.418  19.527  0.00  0.00    +0.000 C 
ATOM      3  C   UNL     1       1.530   2.368  18.500  0.00  0.00    +0.000 C 
ATOM      4  C   UNL     1       2.605   2.899  17.564  0.00  0.00    +0.000 C 
ATOM      5  C   UNL     1       3.818   3.392  18.351  0.00  0.00    +0.000 C 
ATOM      6  C   UNL     1       3.401   4.388  19.454  0.00  0.00    +0.000 C 
ENDROOT
BRANCH   5   7
ATOM      7  C   UNL     1       4.845   4.039  17.406  0.00  0.00    +0.000 A 
ATOM      8  C   UNL     1       5.649   5.195  17.930  0.00  0.00    +0.000 A 
ATOM      9  C   UNL     1       6.531   5.757  17.076  0.00  0.00    +0.000 A 
ATOM     10  N   UNL     1       6.654   5.251  15.787  0.00  0.00    +0.000 N 
ATOM     11  N   UNL     1       7.454   5.666  14.775  0.00  0.00    +0.000 NA
ATOM     12  C   UNL     1       7.189   4.861  13.751  0.00  0.00    +0.000 A 
ATOM     13  C   UNL     1       7.871   5.043  12.449  0.00  0.00    +0.000 C 
ATOM     14  C   UNL     1       6.224   3.894  14.079  0.00  0.00    +0.000 A 
ATOM     15  C   UNL     1       5.877   4.163  15.385  0.00  0.00    +0.000 A 
ATOM     16  N   UNL     1       4.974   3.565  16.202  0.00  0.00    +0.000 NA
BRANCH   9  17
ATOM     17  C   UNL     1       7.393   6.902  17.461  0.00  0.00    +0.000 C 
ATOM     18  F   UNL     1       8.199   6.720  18.533  0.00  0.00    +0.000 F 
ATOM     19  F   UNL     1       8.210   7.259  16.431  0.00  0.00    +0.000 F 
ATOM     20  F   UNL     1       6.639   8.003  17.734  0.00  0.00    +0.000 F 
ENDBRANCH   9  17
ENDBRANCH   5   7
BRANCH   1  21
ATOM     21  C   UNL     1       1.832   5.078  21.185  0.00  0.00    +0.000 C 
BRANCH  21  24
ATOM     22  C   UNL     1       0.748   8.760  20.810  0.00  0.00    +0.000 A 
ATOM     23  C   UNL     1       0.904   7.449  21.305  0.00  0.00    +0.000 A 
ATOM     24  C   UNL     1       1.649   6.480  20.613  0.00  0.00    +0.000 A 
ATOM     25  C   UNL     1       2.244   6.862  19.407  0.00  0.00    +0.000 A 
ATOM     26  C   UNL     1       2.105   8.155  18.899  0.00  0.00    +0.000 A 
ATOM     27  C   UNL     1       1.364   9.103  19.594  0.00  0.00    +0.000 A 
BRANCH  22  29
ATOM     28  C   UNL     1       0.263   9.522  23.011  0.00  0.00    +0.000 C 
ATOM     29  O   UNL     1      -0.015   9.565  21.616  0.00  0.00    +0.000 OA
ENDBRANCH  22  29
BRANCH  27  30
ATOM     30  O   UNL     1       1.271  10.351  19.061  0.00  0.00    +0.000 OA
ATOM     31  H   UNL     1       1.102  10.275  18.109  0.00  0.00    +0.000 HD
ENDBRANCH  27  30
ENDBRANCH  21  24
ENDBRANCH   1  21
TORSDOF 6
ENDMDL
MODEL 6
REMARK VINA RESULT:      -8.1      0.951      1.940
REMARK  Name = 
REMARK  8 active torsions:
REMARK  status: ('A' for Active; 'I' for Inactive)
REMARK    1  A    between atoms: C_1  and  O_2
REMARK    2  A    between atoms: O_2  and  C_3
REMARK    3  A    between atoms: C_5  and  C_6
REMARK    4  A    between atoms: C_6  and  N_7
REMARK    5  A    between atoms: C_11  and  C_12
REMARK    6  A    between atoms: C_14  and  C_15
REMARK    7  A    between atoms: C_21  and  C_22
REMARK    8  A    between atoms: C_29  and  O_30
REMARK                            x       y       z     vdW  Elec       q    Type
REMARK                         _______ _______ _______ _____ _____    ______ ____
ROOT
ATOM      1  N   UNL     1       0.353  10.625  20.250  0.00  0.00    +0.000 NA
ATOM      2  C   UNL     1      -0.715  10.279  21.187  0.00  0.00    +0.000 C 
ATOM      3  C   UNL     1      -0.300   9.248  22.232  0.00  0.00    +0.000 C 
ATOM      4  C   UNL     1       0.313   8.014  21.587  0.00  0.00    +0.000 C 
ATOM      5  C   UNL     1       1.501   8.395  20.705  0.00  0.00    +0.000 C 
ATOM      6  C   UNL     1       1.120   9.503  19.701  0.00  0.00    +0.000 C 
ENDROOT
BRANCH   5   7
ATOM      7  C   UNL     1       2.036   7.159  19.962  0.00  0.00    +0.000 A 
ATOM      8  C   UNL     1       1.613   5.805  20.460  0.00  0.00    +0.000 A 
ATOM      9  C   UNL     1       2.109   4.735  19.802  0.00  0.00    +0.000 A 
ATOM     10  N   UNL     1       2.963   4.930  18.722  0.00  0.00    +0.000 N 
ATOM     11  N   UNL     1       3.581   4.012  17.940  0.00  0.00    +0.000 NA
ATOM     12  C   UNL     1       4.291   4.707  17.058  0.00  0.00    +0.000 A 
ATOM     13  C   UNL     1       5.128   4.019  16.048  0.00  0.00    +0.000 C 
ATOM     14  C   UNL     1       4.139   6.093  17.236  0.00  0.00    +0.000 A 
ATOM     15  C   UNL     1       3.295   6.224  18.317  0.00  0.00    +0.000 A 
ATOM     16  N   UNL     1       2.827   7.332  18.945  0.00  0.00    +0.000 NA
BRANCH   9  17
ATOM     17  C   UNL     1       1.773   3.341  20.182  0.00  0.00    +0.000 C 
ATOM     18  F   UNL     1       2.807   2.544  20.538  0.00  0.00    +0.000 F 
ATOM     19  F   UNL     1       0.904   3.322  21.231  0.00  0.00    +0.000 F 
ATOM     20  F   UNL     1       1.135   2.703  19.162  0.00  0.00    +0.000 F 
ENDBRANCH   9  17
ENDBRANCH   5   7
BRANCH   1  21
ATOM     21  C   UNL     1      -0.086  11.556  19.188  0.00  0.00    +0.000 C 
BRANCH  21  24
ATOM     22  C   UNL     1      -3.522  11.158  17.483  0.00  0.00    +0.000 A 
ATOM     23  C   UNL     1      -2.139  11.097  17.747  0.00  0.00    +0.000 A 
ATOM     24  C   UNL     1      -1.581  11.664  18.906  0.00  0.00    +0.000 A 
ATOM     25  C   UNL     1      -2.452  12.292  19.802  0.00  0.00    +0.000 A 
ATOM     26  C   UNL     1      -3.825  12.362  19.561  0.00  0.00    +0.000 A 
ATOM     27  C   UNL     1      -4.363  11.797  18.411  0.00  0.00    +0.000 A 
BRANCH  22  29
ATOM     28  C   UNL     1      -2.862   9.858  15.603  0.00  0.00    +0.000 C 
ATOM     29  O   UNL     1      -3.884  10.557  16.305  0.00  0.00    +0.000 OA
ENDBRANCH  22  29
BRANCH  27  30
ATOM     30  O   UNL     1      -5.709  11.883  18.231  0.00  0.00    +0.000 OA
ATOM     31  H   UNL     1      -5.916  12.726  17.797  0.00  0.00    +0.000 HD
ENDBRANCH  27  30
ENDBRANCH  21  24
ENDBRANCH   1  21
TORSDOF 6
ENDMDL
MODEL 7
REMARK VINA RESULT:      -8.1      4.972      8.527
REMARK  Name = 
REMARK  8 active torsions:
REMARK  status: ('A' for Active; 'I' for Inactive)
REMARK    1  A    between atoms: C_1  and  O_2
REMARK    2  A    between atoms: O_2  and  C_3
REMARK    3  A    between atoms: C_5  and  C_6
REMARK    4  A    between atoms: C_6  and  N_7
REMARK    5  A    between atoms: C_11  and  C_12
REMARK    6  A    between atoms: C_14  and  C_15
REMARK    7  A    between atoms: C_21  and  C_22
REMARK    8  A    between atoms: C_29  and  O_30
REMARK                            x       y       z     vdW  Elec       q    Type
REMARK                         _______ _______ _______ _____ _____    ______ ____
ROOT
ATOM      1  N   UNL     1       3.105   3.138  18.967  0.00  0.00    +0.000 NA
ATOM      2  C   UNL     1       3.468   2.646  20.296  0.00  0.00    +0.000 C 
ATOM      3  C   UNL     1       2.471   3.034  21.384  0.00  0.00    +0.000 C 
ATOM      4  C   UNL     1       2.199   4.531  21.385  0.00  0.00    +0.000 C 
ATOM      5  C   UNL     1       1.709   4.996  20.015  0.00  0.00    +0.000 C 
ATOM      6  C   UNL     1       2.663   4.533  18.893  0.00  0.00    +0.000 C 
ENDROOT
BRANCH   5   7
ATOM      7  C   UNL     1       1.556   6.526  19.991  0.00  0.00    +0.000 A 
ATOM      8  C   UNL     1       0.837   7.177  21.138  0.00  0.00    +0.000 A 
ATOM      9  C   UNL     1       0.700   8.519  21.086  0.00  0.00    +0.000 A 
ATOM     10  N   UNL     1       1.220   9.219  20.003  0.00  0.00    +0.000 N 
ATOM     11  N   UNL     1       1.182  10.548  19.742  0.00  0.00    +0.000 NA
ATOM     12  C   UNL     1       1.809  10.707  18.582  0.00  0.00    +0.000 A 
ATOM     13  C   UNL     1       1.937  12.049  17.967  0.00  0.00    +0.000 C 
ATOM     14  C   UNL     1       2.284   9.488  18.069  0.00  0.00    +0.000 A 
ATOM     15  C   UNL     1       1.886   8.537  18.984  0.00  0.00    +0.000 A 
ATOM     16  N   UNL     1       2.048   7.190  18.986  0.00  0.00    +0.000 NA
BRANCH   9  17
ATOM     17  C   UNL     1       0.017   9.292  22.152  0.00  0.00    +0.000 C 
ATOM     18  F   UNL     1      -0.594  10.439  21.773  0.00  0.00    +0.000 F 
ATOM     19  F   UNL     1      -0.942   8.537  22.757  0.00  0.00    +0.000 F 
ATOM     20  F   UNL     1       0.893   9.636  23.137  0.00  0.00    +0.000 F 
ENDBRANCH   9  17
ENDBRANCH   5   7
BRANCH   1  21
ATOM     21  C   UNL     1       4.123   2.833  17.938  0.00  0.00    +0.000 C 
BRANCH  21  24
ATOM     22  C   UNL     1       6.256   5.301  15.882  0.00  0.00    +0.000 A 
ATOM     23  C   UNL     1       5.359   4.273  16.236  0.00  0.00    +0.000 A 
ATOM     24  C   UNL     1       5.123   3.927  17.577  0.00  0.00    +0.000 A 
ATOM     25  C   UNL     1       5.808   4.646  18.562  0.00  0.00    +0.000 A 
ATOM     26  C   UNL     1       6.699   5.670  18.233  0.00  0.00    +0.000 A 
ATOM     27  C   UNL     1       6.923   6.001  16.903  0.00  0.00    +0.000 A 
BRANCH  22  29
ATOM     28  C   UNL     1       6.614   4.343  13.734  0.00  0.00    +0.000 C 
ATOM     29  O   UNL     1       6.363   5.496  14.529  0.00  0.00    +0.000 OA
ENDBRANCH  22  29
BRANCH  27  30
ATOM     30  O   UNL     1       7.791   7.015  16.639  0.00  0.00    +0.000 OA
ATOM     31  H   UNL     1       7.584   7.388  15.767  0.00  0.00    +0.000 HD
ENDBRANCH  27  30
ENDBRANCH  21  24
ENDBRANCH   1  21
TORSDOF 6
ENDMDL
MODEL 8
REMARK VINA RESULT:      -8.0      3.805      5.311
REMARK  Name = 
REMARK  8 active torsions:
REMARK  status: ('A' for Active; 'I' for Inactive)
REMARK    1  A    between atoms: C_1  and  O_2
REMARK    2  A    between atoms: O_2  and  C_3
REMARK    3  A    between atoms: C_5  and  C_6
REMARK    4  A    between atoms: C_6  and  N_7
REMARK    5  A    between atoms: C_11  and  C_12
REMARK    6  A    between atoms: C_14  and  C_15
REMARK    7  A    between atoms: C_21  and  C_22
REMARK    8  A    between atoms: C_29  and  O_30
REMARK                            x       y       z     vdW  Elec       q    Type
REMARK                         _______ _______ _______ _____ _____    ______ ____
ROOT
ATOM      1  N   UNL     1       2.092   4.952  20.554  0.00  0.00    +0.000 NA
ATOM      2  C   UNL     1       0.982   4.244  19.919  0.00  0.00    +0.000 C 
ATOM      3  C   UNL     1       1.417   3.030  19.102  0.00  0.00    +0.000 C 
ATOM      4  C   UNL     1       2.507   3.391  18.104  0.00  0.00    +0.000 C 
ATOM      5  C   UNL     1       3.705   4.023  18.812  0.00  0.00    +0.000 C 
ATOM      6  C   UNL     1       3.267   5.197  19.712  0.00  0.00    +0.000 C 
ENDROOT
BRANCH   5   7
ATOM      7  C   UNL     1       4.747   4.496  17.784  0.00  0.00    +0.000 A 
ATOM      8  C   UNL     1       5.633   5.648  18.164  0.00  0.00    +0.000 A 
ATOM      9  C   UNL     1       6.528   6.057  17.239  0.00  0.00    +0.000 A 
ATOM     10  N   UNL     1       6.588   5.408  16.011  0.00  0.00    +0.000 N 
ATOM     11  N   UNL     1       7.387   5.659  14.945  0.00  0.00    +0.000 NA
ATOM     12  C   UNL     1       7.047   4.768  14.020  0.00  0.00    +0.000 A 
ATOM     13  C   UNL     1       7.707   4.764  12.694  0.00  0.00    +0.000 C 
ATOM     14  C   UNL     1       6.033   3.906  14.468  0.00  0.00    +0.000 A 
ATOM     15  C   UNL     1       5.735   4.336  15.743  0.00  0.00    +0.000 A 
ATOM     16  N   UNL     1       4.817   3.889  16.636  0.00  0.00    +0.000 NA
BRANCH   9  17
ATOM     17  C   UNL     1       7.468   7.179  17.481  0.00  0.00    +0.000 C 
ATOM     18  F   UNL     1       6.916   8.381  17.768  0.00  0.00    +0.000 F 
ATOM     19  F   UNL     1       8.306   6.892  18.516  0.00  0.00    +0.000 F 
ATOM     20  F   UNL     1       8.271   7.378  16.399  0.00  0.00    +0.000 F 
ENDBRANCH   9  17
ENDBRANCH   5   7
BRANCH   1  21
ATOM     21  C   UNL     1       1.668   6.176  21.267  0.00  0.00    +0.000 C 
BRANCH  21  24
ATOM     22  C   UNL     1       0.346   9.626  20.162  0.00  0.00    +0.000 A 
ATOM     23  C   UNL     1       0.555   8.438  20.892  0.00  0.00    +0.000 A 
ATOM     24  C   UNL     1       1.432   7.437  20.443  0.00  0.00    +0.000 A 
ATOM     25  C   UNL     1       2.106   7.661  19.238  0.00  0.00    +0.000 A 
ATOM     26  C   UNL     1       1.917   8.831  18.500  0.00  0.00    +0.000 A 
ATOM     27  C   UNL     1       1.045   9.812  18.957  0.00  0.00    +0.000 A 
BRANCH  22  29
ATOM     28  C   UNL     1      -0.190  11.004  22.026  0.00  0.00    +0.000 C 
ATOM     29  O   UNL     1      -0.547  10.484  20.750  0.00  0.00    +0.000 OA
ENDBRANCH  22  29
BRANCH  27  30
ATOM     30  O   UNL     1       0.907  10.938  18.205  0.00  0.00    +0.000 OA
ATOM     31  H   UNL     1       1.786  11.315  18.039  0.00  0.00    +0.000 HD
ENDBRANCH  27  30
ENDBRANCH  21  24
ENDBRANCH   1  21
TORSDOF 6
ENDMDL
MODEL 9
REMARK VINA RESULT:      -8.0      1.948      3.319
REMARK  Name = 
REMARK  8 active torsions:
REMARK  status: ('A' for Active; 'I' for Inactive)
REMARK    1  A    between atoms: C_1  and  O_2
REMARK    2  A    between atoms: O_2  and  C_3
REMARK    3  A    between atoms: C_5  and  C_6
REMARK    4  A    between atoms: C_6  and  N_7
REMARK    5  A    between atoms: C_11  and  C_12
REMARK    6  A    between atoms: C_14  and  C_15
REMARK    7  A    between atoms: C_21  and  C_22
REMARK    8  A    between atoms: C_29  and  O_30
REMARK                            x       y       z     vdW  Elec       q    Type
REMARK                         _______ _______ _______ _____ _____    ______ ____
ROOT
ATOM      1  N   UNL     1       0.197  11.037  20.369  0.00  0.00    +0.000 NA
ATOM      2  C   UNL     1      -0.826  10.852  21.396  0.00  0.00    +0.000 C 
ATOM      3  C   UNL     1      -0.393   9.929  22.532  0.00  0.00    +0.000 C 
ATOM      4  C   UNL     1       0.132   8.602  22.004  0.00  0.00    +0.000 C 
ATOM      5  C   UNL     1       1.280   8.824  21.021  0.00  0.00    +0.000 C 
ATOM      6  C   UNL     1       0.885   9.825  19.915  0.00  0.00    +0.000 C 
ENDROOT
BRANCH   5   7
ATOM      7  C   UNL     1       1.720   7.486  20.400  0.00  0.00    +0.000 A 
ATOM      8  C   UNL     1       2.693   7.532  19.256  0.00  0.00    +0.000 A 
ATOM      9  C   UNL     1       3.051   6.347  18.716  0.00  0.00    +0.000 A 
ATOM     10  N   UNL     1       2.519   5.171  19.233  0.00  0.00    +0.000 N 
ATOM     11  N   UNL     1       2.725   3.890  18.839  0.00  0.00    +0.000 NA
ATOM     12  C   UNL     1       1.982   3.140  19.646  0.00  0.00    +0.000 A 
ATOM     13  C   UNL     1       1.940   1.668  19.486  0.00  0.00    +0.000 C 
ATOM     14  C   UNL     1       1.289   3.913  20.592  0.00  0.00    +0.000 A 
ATOM     15  C   UNL     1       1.630   5.217  20.308  0.00  0.00    +0.000 A 
ATOM     16  N   UNL     1       1.236   6.381  20.884  0.00  0.00    +0.000 NA
BRANCH   9  17
ATOM     17  C   UNL     1       4.005   6.243  17.585  0.00  0.00    +0.000 C 
ATOM     18  F   UNL     1       4.050   7.292  16.732  0.00  0.00    +0.000 F 
ATOM     19  F   UNL     1       5.278   6.073  18.041  0.00  0.00    +0.000 F 
ATOM     20  F   UNL     1       3.735   5.146  16.824  0.00  0.00    +0.000 F 
ENDBRANCH   9  17
ENDBRANCH   5   7
BRANCH   1  21
ATOM     21  C   UNL     1      -0.266  11.860  19.230  0.00  0.00    +0.000 C 
BRANCH  21  24
ATOM     22  C   UNL     1      -3.202  10.497  17.134  0.00  0.00    +0.000 A 
ATOM     23  C   UNL     1      -1.904  10.757  17.617  0.00  0.00    +0.000 A 
ATOM     24  C   UNL     1      -1.677  11.620  18.703  0.00  0.00    +0.000 A 
ATOM     25  C   UNL     1      -2.793  12.214  19.301  0.00  0.00    +0.000 A 
ATOM     26  C   UNL     1      -4.088  11.969  18.841  0.00  0.00    +0.000 A 
ATOM     27  C   UNL     1      -4.297  11.114  17.765  0.00  0.00    +0.000 A 
BRANCH  22  29
ATOM     28  C   UNL     1      -2.949  10.193  14.788  0.00  0.00    +0.000 C 
ATOM     29  O   UNL     1      -3.230   9.637  16.067  0.00  0.00    +0.000 OA
ENDBRANCH  22  29
BRANCH  27  30
ATOM     30  O   UNL     1      -5.580  10.900  17.365  0.00  0.00    +0.000 OA
ATOM     31  H   UNL     1      -5.781  11.493  16.623  0.00  0.00    +0.000 HD
ENDBRANCH  27  30
ENDBRANCH  21  24
ENDBRANCH   1  21
TORSDOF 6
ENDMDL
