MODEL 1
REMARK VINA RESULT:      -7.1      0.000      0.000
REMARK  Name = 
REMARK  8 active torsions:
REMARK  status: ('A' for Active; 'I' for Inactive)
REMARK    1  A    between atoms: O_1  and  C_2
REMARK    2  A    between atoms: C_2  and  C_3
REMARK    3  A    between atoms: C_3  and  N_4
REMARK    4  A    between atoms: C_5  and  S_6
REMARK    5  A    between atoms: S_6  and  C_7
REMARK    6  A    between atoms: C_7  and  C_8
REMARK    7  A    between atoms: C_8  and  O_9
REMARK    8  A    between atoms: O_9  and  C_10
REMARK                            x       y       z     vdW  Elec       q    Type
REMARK                         _______ _______ _______ _____ _____    ______ ____
ROOT
ATOM      1  N   UNL     1       3.980   5.249  18.465  0.00  0.00    +0.000 N 
ATOM      2  C   UNL     1       5.125   4.745  19.044  0.00  0.00    +0.000 A 
ATOM      3  N   UNL     1       4.958   3.508  19.455  0.00  0.00    +0.000 NA
ATOM      4  C   UNL     1       3.653   3.199  19.153  0.00  0.00    +0.000 A 
ATOM      5  C   UNL     1       2.942   2.006  19.373  0.00  0.00    +0.000 A 
ATOM      6  C   UNL     1       1.600   1.933  18.978  0.00  0.00    +0.000 A 
ATOM      7  C   UNL     1       0.970   3.027  18.387  0.00  0.00    +0.000 A 
ATOM      8  C   UNL     1       1.661   4.223  18.157  0.00  0.00    +0.000 A 
ATOM      9  C   UNL     1       3.009   4.269  18.550  0.00  0.00    +0.000 A 
ENDROOT
BRANCH   1  10
ATOM     10  C   UNL     1       3.774   6.541  17.849  0.00  0.00    +0.000 C 
BRANCH  10  11
ATOM     11  C   UNL     1       2.816   7.424  18.640  0.00  0.00    +0.000 C 
BRANCH  11  12
ATOM     12  O   UNL     1       1.951   8.106  17.735  0.00  0.00    +0.000 OA
ATOM     13  H   UNL     1       1.561   7.435  17.147  0.00  0.00    +0.000 HD
ENDBRANCH  11  12
ENDBRANCH  10  11
ENDBRANCH   1  10
BRANCH   2  14
ATOM     14  S   UNL     1       6.603   5.647  19.193  0.00  0.00    +0.000 S 
BRANCH  14  15
ATOM     15  C   UNL     1       7.556   5.044  17.748  0.00  0.00    +0.000 C 
BRANCH  15  16
ATOM     16  C   UNL     1       6.720   5.051  16.461  0.00  0.00    +0.000 C 
BRANCH  16  17
ATOM     17  O   UNL     1       7.520   5.442  15.340  0.00  0.00    +0.000 OA
BRANCH  17  18
ATOM     18  C   UNL     1       7.195   4.893  14.127  0.00  0.00    +0.000 A 
ATOM     19  C   UNL     1       7.816   5.176  12.912  0.00  0.00    +0.000 A 
ATOM     20  C   UNL     1       7.381   4.558  11.733  0.00  0.00    +0.000 A 
ATOM     21  C   UNL     1       6.326   3.647  11.767  0.00  0.00    +0.000 A 
ATOM     22  C   UNL     1       5.711   3.349  12.982  0.00  0.00    +0.000 A 
ATOM     23  C   UNL     1       6.145   3.972  14.156  0.00  0.00    +0.000 A 
ENDBRANCH  17  18
ENDBRANCH  16  17
ENDBRANCH  15  16
ENDBRANCH  14  15
ENDBRANCH   2  14
TORSDOF 8
ENDMDL
MODEL 2
REMARK VINA RESULT:      -7.1      1.320      1.858
REMARK  Name = 
REMARK  8 active torsions:
REMARK  status: ('A' for Active; 'I' for Inactive)
REMARK    1  A    between atoms: O_1  and  C_2
REMARK    2  A    between atoms: C_2  and  C_3
REMARK    3  A    between atoms: C_3  and  N_4
REMARK    4  A    between atoms: C_5  and  S_6
REMARK    5  A    between atoms: S_6  and  C_7
REMARK    6  A    between atoms: C_7  and  C_8
REMARK    7  A    between atoms: C_8  and  O_9
REMARK    8  A    between atoms: O_9  and  C_10
REMARK                            x       y       z     vdW  Elec       q    Type
REMARK                         _______ _______ _______ _____ _____    ______ ____
ROOT
ATOM      1  N   UNL     1       2.856   6.157  18.591  0.00  0.00    +0.000 N 
ATOM      2  C   UNL     1       3.716   5.705  17.614  0.00  0.00    +0.000 A 
ATOM      3  N   UNL     1       3.716   4.393  17.536  0.00  0.00    +0.000 NA
ATOM      4  C   UNL     1       2.842   3.972  18.510  0.00  0.00    +0.000 A 
ATOM      5  C   UNL     1       2.462   2.666  18.868  0.00  0.00    +0.000 A 
ATOM      6  C   UNL     1       1.546   2.489  19.914  0.00  0.00    +0.000 A 
ATOM      7  C   UNL     1       1.028   3.584  20.601  0.00  0.00    +0.000 A 
ATOM      8  C   UNL     1       1.392   4.892  20.258  0.00  0.00    +0.000 A 
ATOM      9  C   UNL     1       2.301   5.047  19.199  0.00  0.00    +0.000 A 
ENDROOT
BRANCH   1  10
ATOM     10  C   UNL     1       2.536   7.521  18.950  0.00  0.00    +0.000 C 
BRANCH  10  11
ATOM     11  C   UNL     1       1.600   8.188  17.948  0.00  0.00    +0.000 C 
BRANCH  11  12
ATOM     12  O   UNL     1       2.191   9.402  17.490  0.00  0.00    +0.000 OA
ATOM     13  H   UNL     1       3.098   9.192  17.205  0.00  0.00    +0.000 HD
ENDBRANCH  11  12
ENDBRANCH  10  11
ENDBRANCH   1  10
BRANCH   2  14
ATOM     14  S   UNL     1       4.666   6.756  16.609  0.00  0.00    +0.000 S 
BRANCH  14  15
ATOM     15  C   UNL     1       6.345   6.523  17.306  0.00  0.00    +0.000 C 
BRANCH  15  16
ATOM     16  C   UNL     1       7.046   5.287  16.725  0.00  0.00    +0.000 C 
BRANCH  16  17
ATOM     17  O   UNL     1       7.622   5.586  15.450  0.00  0.00    +0.000 OA
BRANCH  17  18
ATOM     18  C   UNL     1       7.109   4.919  14.368  0.00  0.00    +0.000 A 
ATOM     19  C   UNL     1       6.016   4.054  14.387  0.00  0.00    +0.000 A 
ATOM     20  C   UNL     1       5.594   3.419  13.212  0.00  0.00    +0.000 A 
ATOM     21  C   UNL     1       6.260   3.655  12.010  0.00  0.00    +0.000 A 
ATOM     22  C   UNL     1       7.344   4.531  11.982  0.00  0.00    +0.000 A 
ATOM     23  C   UNL     1       7.765   5.159  13.158  0.00  0.00    +0.000 A 
ENDBRANCH  17  18
ENDBRANCH  16  17
ENDBRANCH  15  16
ENDBRANCH  14  15
ENDBRANCH   2  14
TORSDOF 8
ENDMDL
MODEL 3
REMARK VINA RESULT:      -6.9      1.042      1.139
REMARK  Name = 
REMARK  8 active torsions:
REMARK  status: ('A' for Active; 'I' for Inactive)
REMARK    1  A    between atoms: O_1  and  C_2
REMARK    2  A    between atoms: C_2  and  C_3
REMARK    3  A    between atoms: C_3  and  N_4
REMARK    4  A    between atoms: C_5  and  S_6
REMARK    5  A    between atoms: S_6  and  C_7
REMARK    6  A    between atoms: C_7  and  C_8
REMARK    7  A    between atoms: C_8  and  O_9
REMARK    8  A    between atoms: O_9  and  C_10
REMARK                            x       y       z     vdW  Elec       q    Type
REMARK                         _______ _______ _______ _____ _____    ______ ____
ROOT
ATOM      1  N   UNL     1       3.120   5.766  18.752  0.00  0.00    +0.000 N 
ATOM      2  C   UNL     1       4.201   5.377  17.990  0.00  0.00    +0.000 A 
ATOM      3  N   UNL     1       4.197   4.082  17.768  0.00  0.00    +0.000 NA
ATOM      4  C   UNL     1       3.088   3.604  18.423  0.00  0.00    +0.000 A 
ATOM      5  C   UNL     1       2.602   2.288  18.518  0.00  0.00    +0.000 A 
ATOM      6  C   UNL     1       1.437   2.047  19.259  0.00  0.00    +0.000 A 
ATOM      7  C   UNL     1       0.774   3.089  19.905  0.00  0.00    +0.000 A 
ATOM      8  C   UNL     1       1.240   4.406  19.820  0.00  0.00    +0.000 A 
ATOM      9  C   UNL     1       2.402   4.627  19.062  0.00  0.00    +0.000 A 
ENDROOT
BRANCH   1  10
ATOM     10  C   UNL     1       2.741   7.099  19.165  0.00  0.00    +0.000 C 
BRANCH  10  11
ATOM     11  C   UNL     1       1.846   7.798  18.147  0.00  0.00    +0.000 C 
BRANCH  11  12
ATOM     12  O   UNL     1       2.614   8.759  17.428  0.00  0.00    +0.000 OA
ATOM     13  H   UNL     1       3.280   9.115  18.043  0.00  0.00    +0.000 HD
ENDBRANCH  11  12
ENDBRANCH  10  11
ENDBRANCH   1  10
BRANCH   2  14
ATOM     14  S   UNL     1       5.405   6.480  17.396  0.00  0.00    +0.000 S 
BRANCH  14  15
ATOM     15  C   UNL     1       6.957   5.605  17.824  0.00  0.00    +0.000 C 
BRANCH  15  16
ATOM     16  C   UNL     1       7.559   4.873  16.617  0.00  0.00    +0.000 C 
BRANCH  16  17
ATOM     17  O   UNL     1       7.395   5.645  15.424  0.00  0.00    +0.000 OA
BRANCH  17  18
ATOM     18  C   UNL     1       7.041   4.963  14.289  0.00  0.00    +0.000 A 
ATOM     19  C   UNL     1       7.747   4.957  13.088  0.00  0.00    +0.000 A 
ATOM     20  C   UNL     1       7.272   4.227  11.991  0.00  0.00    +0.000 A 
ATOM     21  C   UNL     1       6.091   3.493  12.094  0.00  0.00    +0.000 A 
ATOM     22  C   UNL     1       5.389   3.484  13.299  0.00  0.00    +0.000 A 
ATOM     23  C   UNL     1       5.864   4.217  14.390  0.00  0.00    +0.000 A 
ENDBRANCH  17  18
ENDBRANCH  16  17
ENDBRANCH  15  16
ENDBRANCH  14  15
ENDBRANCH   2  14
TORSDOF 8
ENDMDL
MODEL 4
REMARK VINA RESULT:      -6.8      4.148      6.126
REMARK  Name = 
REMARK  8 active torsions:
REMARK  status: ('A' for Active; 'I' for Inactive)
REMARK    1  A    between atoms: O_1  and  C_2
REMARK    2  A    between atoms: C_2  and  C_3
REMARK    3  A    between atoms: C_3  and  N_4
REMARK    4  A    between atoms: C_5  and  S_6
REMARK    5  A    between atoms: S_6  and  C_7
REMARK    6  A    between atoms: C_7  and  C_8
REMARK    7  A    between atoms: C_8  and  O_9
REMARK    8  A    between atoms: O_9  and  C_10
REMARK                            x       y       z     vdW  Elec       q    Type
REMARK                         _______ _______ _______ _____ _____    ______ ____
ROOT
ATOM      1  N   UNL     1       5.146   4.453  17.237  0.00  0.00    +0.000 N 
ATOM      2  C   UNL     1       5.790   5.267  18.143  0.00  0.00    +0.000 A 
ATOM      3  N   UNL     1       5.023   5.551  19.172  0.00  0.00    +0.000 NA
ATOM      4  C   UNL     1       3.830   4.917  18.921  0.00  0.00    +0.000 A 
ATOM      5  C   UNL     1       2.655   4.883  19.692  0.00  0.00    +0.000 A 
ATOM      6  C   UNL     1       1.551   4.163  19.216  0.00  0.00    +0.000 A 
ATOM      7  C   UNL     1       1.608   3.499  17.992  0.00  0.00    +0.000 A 
ATOM      8  C   UNL     1       2.769   3.519  17.210  0.00  0.00    +0.000 A 
ATOM      9  C   UNL     1       3.867   4.236  17.713  0.00  0.00    +0.000 A 
ENDROOT
BRANCH   1  10
ATOM     10  C   UNL     1       5.662   3.882  16.012  0.00  0.00    +0.000 C 
BRANCH  10  11
ATOM     11  C   UNL     1       5.481   4.804  14.812  0.00  0.00    +0.000 C 
BRANCH  11  12
ATOM     12  O   UNL     1       6.740   5.376  14.467  0.00  0.00    +0.000 OA
ATOM     13  H   UNL     1       7.397   4.658  14.479  0.00  0.00    +0.000 HD
ENDBRANCH  11  12
ENDBRANCH  10  11
ENDBRANCH   1  10
BRANCH   2  14
ATOM     14  S   UNL     1       7.421   5.831  17.938  0.00  0.00    +0.000 S 
BRANCH  14  15
ATOM     15  C   UNL     1       7.175   7.642  17.789  0.00  0.00    +0.000 C 
BRANCH  15  16
ATOM     16  C   UNL     1       8.473   8.424  18.028  0.00  0.00    +0.000 C 
BRANCH  16  17
ATOM     17  O   UNL     1       8.198   9.816  18.214  0.00  0.00    +0.000 OA
BRANCH  17  18
ATOM     18  C   UNL     1       9.180  10.566  18.807  0.00  0.00    +0.000 A 
ATOM     19  C   UNL     1       9.305  10.811  20.173  0.00  0.00    +0.000 A 
ATOM     20  C   UNL     1      10.349  11.610  20.656  0.00  0.00    +0.000 A 
ATOM     21  C   UNL     1      11.278  12.160  19.774  0.00  0.00    +0.000 A 
ATOM     22  C   UNL     1      11.166  11.905  18.408  0.00  0.00    +0.000 A 
ATOM     23  C   UNL     1      10.120  11.111  17.929  0.00  0.00    +0.000 A 
ENDBRANCH  17  18
ENDBRANCH  16  17
ENDBRANCH  15  16
ENDBRANCH  14  15
ENDBRANCH   2  14
TORSDOF 8
ENDMDL
MODEL 5
REMARK VINA RESULT:      -6.8      0.687      1.230
REMARK  Name = 
REMARK  8 active torsions:
REMARK  status: ('A' for Active; 'I' for Inactive)
REMARK    1  A    between atoms: O_1  and  C_2
REMARK    2  A    between atoms: C_2  and  C_3
REMARK    3  A    between atoms: C_3  and  N_4
REMARK    4  A    between atoms: C_5  and  S_6
REMARK    5  A    between atoms: S_6  and  C_7
REMARK    6  A    between atoms: C_7  and  C_8
REMARK    7  A    between atoms: C_8  and  O_9
REMARK    8  A    between atoms: O_9  and  C_10
REMARK                            x       y       z     vdW  Elec       q    Type
REMARK                         _______ _______ _______ _____ _____    ______ ____
ROOT
ATOM      1  N   UNL     1       4.112   5.275  18.657  0.00  0.00    +0.000 N 
ATOM      2  C   UNL     1       5.274   4.706  19.132  0.00  0.00    +0.000 A 
ATOM      3  N   UNL     1       5.130   3.418  19.351  0.00  0.00    +0.000 NA
ATOM      4  C   UNL     1       3.824   3.139  19.027  0.00  0.00    +0.000 A 
ATOM      5  C   UNL     1       3.132   1.916  19.074  0.00  0.00    +0.000 A 
ATOM      6  C   UNL     1       1.783   1.884  18.694  0.00  0.00    +0.000 A 
ATOM      7  C   UNL     1       1.129   3.046  18.289  0.00  0.00    +0.000 A 
ATOM      8  C   UNL     1       1.801   4.273  18.234  0.00  0.00    +0.000 A 
ATOM      9  C   UNL     1       3.155   4.279  18.607  0.00  0.00    +0.000 A 
ENDROOT
BRANCH   1  10
ATOM     10  C   UNL     1       3.879   6.643  18.250  0.00  0.00    +0.000 C 
BRANCH  10  11
ATOM     11  C   UNL     1       2.540   7.183  18.743  0.00  0.00    +0.000 C 
BRANCH  11  12
ATOM     12  O   UNL     1       2.551   7.232  20.167  0.00  0.00    +0.000 OA
ATOM     13  H   UNL     1       1.740   6.790  20.478  0.00  0.00    +0.000 HD
ENDBRANCH  11  12
ENDBRANCH  10  11
ENDBRANCH   1  10
BRANCH   2  14
ATOM     14  S   UNL     1       6.743   5.596  19.393  0.00  0.00    +0.000 S 
BRANCH  14  15
ATOM     15  C   UNL     1       7.111   6.213  17.706  0.00  0.00    +0.000 C 
BRANCH  15  16
ATOM     16  C   UNL     1       7.045   5.096  16.655  0.00  0.00    +0.000 C 
BRANCH  16  17
ATOM     17  O   UNL     1       7.366   5.604  15.357  0.00  0.00    +0.000 OA
BRANCH  17  18
ATOM     18  C   UNL     1       6.905   4.889  14.282  0.00  0.00    +0.000 A 
ATOM     19  C   UNL     1       5.763   4.090  14.265  0.00  0.00    +0.000 A 
ATOM     20  C   UNL     1       5.402   3.395  13.104  0.00  0.00    +0.000 A 
ATOM     21  C   UNL     1       6.180   3.504  11.951  0.00  0.00    +0.000 A 
ATOM     22  C   UNL     1       7.315   4.313  11.959  0.00  0.00    +0.000 A 
ATOM     23  C   UNL     1       7.674   5.002  13.122  0.00  0.00    +0.000 A 
ENDBRANCH  17  18
ENDBRANCH  16  17
ENDBRANCH  15  16
ENDBRANCH  14  15
ENDBRANCH   2  14
TORSDOF 8
ENDMDL
MODEL 6
REMARK VINA RESULT:      -6.8      1.333      1.741
REMARK  Name = 
REMARK  8 active torsions:
REMARK  status: ('A' for Active; 'I' for Inactive)
REMARK    1  A    between atoms: O_1  and  C_2
REMARK    2  A    between atoms: C_2  and  C_3
REMARK    3  A    between atoms: C_3  and  N_4
REMARK    4  A    between atoms: C_5  and  S_6
REMARK    5  A    between atoms: S_6  and  C_7
REMARK    6  A    between atoms: C_7  and  C_8
REMARK    7  A    between atoms: C_8  and  O_9
REMARK    8  A    between atoms: O_9  and  C_10
REMARK                            x       y       z     vdW  Elec       q    Type
REMARK                         _______ _______ _______ _____ _____    ______ ____
ROOT
ATOM      1  N   UNL     1       3.121   5.856  18.972  0.00  0.00    +0.000 N 
ATOM      2  C   UNL     1       4.381   5.482  18.559  0.00  0.00    +0.000 A 
ATOM      3  N   UNL     1       4.704   4.288  19.005  0.00  0.00    +0.000 NA
ATOM      4  C   UNL     1       3.626   3.876  19.752  0.00  0.00    +0.000 A 
ATOM      5  C   UNL     1       3.433   2.676  20.458  0.00  0.00    +0.000 A 
ATOM      6  C   UNL     1       2.235   2.487  21.160  0.00  0.00    +0.000 A 
ATOM      7  C   UNL     1       1.252   3.474  21.171  0.00  0.00    +0.000 A 
ATOM      8  C   UNL     1       1.424   4.675  20.472  0.00  0.00    +0.000 A 
ATOM      9  C   UNL     1       2.627   4.839  19.766  0.00  0.00    +0.000 A 
ENDROOT
BRANCH   1  10
ATOM     10  C   UNL     1       2.388   7.061  18.652  0.00  0.00    +0.000 C 
BRANCH  10  11
ATOM     11  C   UNL     1       2.002   7.861  19.892  0.00  0.00    +0.000 C 
BRANCH  11  12
ATOM     12  O   UNL     1       1.290   9.030  19.493  0.00  0.00    +0.000 OA
ATOM     13  H   UNL     1       0.461   8.735  19.076  0.00  0.00    +0.000 HD
ENDBRANCH  11  12
ENDBRANCH  10  11
ENDBRANCH   1  10
BRANCH   2  14
ATOM     14  S   UNL     1       5.400   6.475  17.562  0.00  0.00    +0.000 S 
BRANCH  14  15
ATOM     15  C   UNL     1       7.045   5.715  17.834  0.00  0.00    +0.000 C 
BRANCH  15  16
ATOM     16  C   UNL     1       7.465   4.811  16.668  0.00  0.00    +0.000 C 
BRANCH  16  17
ATOM     17  O   UNL     1       7.440   5.534  15.433  0.00  0.00    +0.000 OA
BRANCH  17  18
ATOM     18  C   UNL     1       6.945   4.873  14.340  0.00  0.00    +0.000 A 
ATOM     19  C   UNL     1       5.769   4.127  14.302  0.00  0.00    +0.000 A 
ATOM     20  C   UNL     1       5.375   3.483  13.122  0.00  0.00    +0.000 A 
ATOM     21  C   UNL     1       6.155   3.591  11.971  0.00  0.00    +0.000 A 
ATOM     22  C   UNL     1       7.325   4.348  11.999  0.00  0.00    +0.000 A 
ATOM     23  C   UNL     1       7.717   4.985  13.181  0.00  0.00    +0.000 A 
ENDBRANCH  17  18
ENDBRANCH  16  17
ENDBRANCH  15  16
ENDBRANCH  14  15
ENDBRANCH   2  14
TORSDOF 8
ENDMDL
MODEL 7
REMARK VINA RESULT:      -6.7      2.851      4.902
REMARK  Name = 
REMARK  8 active torsions:
REMARK  status: ('A' for Active; 'I' for Inactive)
REMARK    1  A    between atoms: O_1  and  C_2
REMARK    2  A    between atoms: C_2  and  C_3
REMARK    3  A    between atoms: C_3  and  N_4
REMARK    4  A    between atoms: C_5  and  S_6
REMARK    5  A    between atoms: S_6  and  C_7
REMARK    6  A    between atoms: C_7  and  C_8
REMARK    7  A    between atoms: C_8  and  O_9
REMARK    8  A    between atoms: O_9  and  C_10
REMARK                            x       y       z     vdW  Elec       q    Type
REMARK                         _______ _______ _______ _____ _____    ______ ____
ROOT
ATOM      1  N   UNL     1       2.602   5.454  19.883  0.00  0.00    +0.000 N 
ATOM      2  C   UNL     1       3.146   5.249  18.634  0.00  0.00    +0.000 A 
ATOM      3  N   UNL     1       3.042   6.320  17.878  0.00  0.00    +0.000 NA
ATOM      4  C   UNL     1       2.391   7.249  18.652  0.00  0.00    +0.000 A 
ATOM      5  C   UNL     1       2.019   8.569  18.343  0.00  0.00    +0.000 A 
ATOM      6  C   UNL     1       1.347   9.330  19.310  0.00  0.00    +0.000 A 
ATOM      7  C   UNL     1       1.039   8.787  20.556  0.00  0.00    +0.000 A 
ATOM      8  C   UNL     1       1.403   7.476  20.884  0.00  0.00    +0.000 A 
ATOM      9  C   UNL     1       2.086   6.736  19.904  0.00  0.00    +0.000 A 
ENDROOT
BRANCH   1  10
ATOM     10  C   UNL     1       2.565   4.548  21.010  0.00  0.00    +0.000 C 
BRANCH  10  11
ATOM     11  C   UNL     1       1.400   3.567  20.938  0.00  0.00    +0.000 C 
BRANCH  11  12
ATOM     12  O   UNL     1       1.461   2.683  22.055  0.00  0.00    +0.000 OA
ATOM     13  H   UNL     1       0.556   2.365  22.220  0.00  0.00    +0.000 HD
ENDBRANCH  11  12
ENDBRANCH  10  11
ENDBRANCH   1  10
BRANCH   2  14
ATOM     14  S   UNL     1       3.884   3.756  18.140  0.00  0.00    +0.000 S 
BRANCH  14  15
ATOM     15  C   UNL     1       4.351   4.125  16.406  0.00  0.00    +0.000 C 
BRANCH  15  16
ATOM     16  C   UNL     1       5.714   3.526  16.035  0.00  0.00    +0.000 C 
BRANCH  16  17
ATOM     17  O   UNL     1       6.652   4.560  15.722  0.00  0.00    +0.000 OA
BRANCH  17  18
ATOM     18  C   UNL     1       7.135   5.294  16.773  0.00  0.00    +0.000 A 
ATOM     19  C   UNL     1       7.589   4.780  17.987  0.00  0.00    +0.000 A 
ATOM     20  C   UNL     1       8.047   5.640  18.993  0.00  0.00    +0.000 A 
ATOM     21  C   UNL     1       8.061   7.019  18.785  0.00  0.00    +0.000 A 
ATOM     22  C   UNL     1       7.622   7.537  17.568  0.00  0.00    +0.000 A 
ATOM     23  C   UNL     1       7.161   6.676  16.568  0.00  0.00    +0.000 A 
ENDBRANCH  17  18
ENDBRANCH  16  17
ENDBRANCH  15  16
ENDBRANCH  14  15
ENDBRANCH   2  14
TORSDOF 8
ENDMDL
MODEL 8
REMARK VINA RESULT:      -6.7      4.591      7.241
REMARK  Name = 
REMARK  8 active torsions:
REMARK  status: ('A' for Active; 'I' for Inactive)
REMARK    1  A    between atoms: O_1  and  C_2
REMARK    2  A    between atoms: C_2  and  C_3
REMARK    3  A    between atoms: C_3  and  N_4
REMARK    4  A    between atoms: C_5  and  S_6
REMARK    5  A    between atoms: S_6  and  C_7
REMARK    6  A    between atoms: C_7  and  C_8
REMARK    7  A    between atoms: C_8  and  O_9
REMARK    8  A    between atoms: O_9  and  C_10
REMARK                            x       y       z     vdW  Elec       q    Type
REMARK                         _______ _______ _______ _____ _____    ______ ____
ROOT
ATOM      1  N   UNL     1       5.659   4.976  15.881  0.00  0.00    +0.000 N 
ATOM      2  C   UNL     1       6.805   5.645  16.251  0.00  0.00    +0.000 A 
ATOM      3  N   UNL     1       7.688   5.672  15.278  0.00  0.00    +0.000 NA
ATOM      4  C   UNL     1       7.108   4.980  14.242  0.00  0.00    +0.000 A 
ATOM      5  C   UNL     1       7.610   4.702  12.959  0.00  0.00    +0.000 A 
ATOM      6  C   UNL     1       6.822   3.961  12.068  0.00  0.00    +0.000 A 
ATOM      7  C   UNL     1       5.565   3.494  12.446  0.00  0.00    +0.000 A 
ATOM      8  C   UNL     1       5.046   3.762  13.718  0.00  0.00    +0.000 A 
ATOM      9  C   UNL     1       5.848   4.517  14.591  0.00  0.00    +0.000 A 
ENDROOT
BRANCH   1  10
ATOM     10  C   UNL     1       4.446   4.775  16.642  0.00  0.00    +0.000 C 
BRANCH  10  11
ATOM     11  C   UNL     1       4.415   3.428  17.355  0.00  0.00    +0.000 C 
BRANCH  11  12
ATOM     12  O   UNL     1       3.060   3.032  17.551  0.00  0.00    +0.000 OA
ATOM     13  H   UNL     1       2.645   3.697  18.127  0.00  0.00    +0.000 HD
ENDBRANCH  11  12
ENDBRANCH  10  11
ENDBRANCH   1  10
BRANCH   2  14
ATOM     14  S   UNL     1       7.033   6.368  17.815  0.00  0.00    +0.000 S 
BRANCH  14  15
ATOM     15  C   UNL     1       7.422   8.103  17.372  0.00  0.00    +0.000 C 
BRANCH  15  16
ATOM     16  C   UNL     1       8.405   8.746  18.361  0.00  0.00    +0.000 C 
BRANCH  16  17
ATOM     17  O   UNL     1       8.505  10.155  18.130  0.00  0.00    +0.000 OA
BRANCH  17  18
ATOM     18  C   UNL     1       9.527  10.813  18.763  0.00  0.00    +0.000 A 
ATOM     19  C   UNL     1       9.586  11.110  20.124  0.00  0.00    +0.000 A 
ATOM     20  C   UNL     1      10.682  11.804  20.650  0.00  0.00    +0.000 A 
ATOM     21  C   UNL     1      11.729  12.197  19.817  0.00  0.00    +0.000 A 
ATOM     22  C   UNL     1      11.682  11.890  18.458  0.00  0.00    +0.000 A 
ATOM     23  C   UNL     1      10.583  11.201  17.936  0.00  0.00    +0.000 A 
ENDBRANCH  17  18
ENDBRANCH  16  17
ENDBRANCH  15  16
ENDBRANCH  14  15
ENDBRANCH   2  14
TORSDOF 8
ENDMDL
MODEL 9
REMARK VINA RESULT:      -6.6      4.205      6.086
REMARK  Name = 
REMARK  8 active torsions:
REMARK  status: ('A' for Active; 'I' for Inactive)
REMARK    1  A    between atoms: O_1  and  C_2
REMARK    2  A    between atoms: C_2  and  C_3
REMARK    3  A    between atoms: C_3  and  N_4
REMARK    4  A    between atoms: C_5  and  S_6
REMARK    5  A    between atoms: S_6  and  C_7
REMARK    6  A    between atoms: C_7  and  C_8
REMARK    7  A    between atoms: C_8  and  O_9
REMARK    8  A    between atoms: O_9  and  C_10
REMARK                            x       y       z     vdW  Elec       q    Type
REMARK                         _______ _______ _______ _____ _____    ______ ____
ROOT
ATOM      1  N   UNL     1       5.001   5.140  17.467  0.00  0.00    +0.000 N 
ATOM      2  C   UNL     1       5.809   5.526  18.514  0.00  0.00    +0.000 A 
ATOM      3  N   UNL     1       5.223   5.339  19.675  0.00  0.00    +0.000 NA
ATOM      4  C   UNL     1       3.981   4.832  19.377  0.00  0.00    +0.000 A 
ATOM      5  C   UNL     1       2.938   4.451  20.240  0.00  0.00    +0.000 A 
ATOM      6  C   UNL     1       1.746   3.961  19.689  0.00  0.00    +0.000 A 
ATOM      7  C   UNL     1       1.586   3.863  18.308  0.00  0.00    +0.000 A 
ATOM      8  C   UNL     1       2.613   4.235  17.433  0.00  0.00    +0.000 A 
ATOM      9  C   UNL     1       3.803   4.711  18.006  0.00  0.00    +0.000 A 
ENDROOT
BRANCH   1  10
ATOM     10  C   UNL     1       5.298   5.139  16.051  0.00  0.00    +0.000 C 
BRANCH  10  11
ATOM     11  C   UNL     1       6.280   4.042  15.657  0.00  0.00    +0.000 C 
BRANCH  11  12
ATOM     12  O   UNL     1       7.430   4.634  15.058  0.00  0.00    +0.000 OA
ATOM     13  H   UNL     1       7.582   5.486  15.506  0.00  0.00    +0.000 HD
ENDBRANCH  11  12
ENDBRANCH  10  11
ENDBRANCH   1  10
BRANCH   2  14
ATOM     14  S   UNL     1       7.410   6.169  18.306  0.00  0.00    +0.000 S 
BRANCH  14  15
ATOM     15  C   UNL     1       7.060   7.816  17.581  0.00  0.00    +0.000 C 
BRANCH  15  16
ATOM     16  C   UNL     1       8.297   8.725  17.585  0.00  0.00    +0.000 C 
BRANCH  16  17
ATOM     17  O   UNL     1       8.581   9.186  18.909  0.00  0.00    +0.000 OA
BRANCH  17  18
ATOM     18  C   UNL     1       9.203  10.402  19.020  0.00  0.00    +0.000 A 
ATOM     19  C   UNL     1       9.384  11.321  17.988  0.00  0.00    +0.000 A 
ATOM     20  C   UNL     1      10.053  12.529  18.225  0.00  0.00    +0.000 A 
ATOM     21  C   UNL     1      10.536  12.825  19.499  0.00  0.00    +0.000 A 
ATOM     22  C   UNL     1      10.346  11.915  20.538  0.00  0.00    +0.000 A 
ATOM     23  C   UNL     1       9.682  10.708  20.296  0.00  0.00    +0.000 A 
ENDBRANCH  17  18
ENDBRANCH  16  17
ENDBRANCH  15  16
ENDBRANCH  14  15
ENDBRANCH   2  14
TORSDOF 8
ENDMDL
