MODEL 1
REMARK VINA RESULT:      -7.2      0.000      0.000
REMARK  Name = 
REMARK  5 active torsions:
REMARK  status: ('A' for Active; 'I' for Inactive)
REMARK    1  A    between atoms: C_1  and  C_2
REMARK    2  A    between atoms: C_4  and  C_5
REMARK    3  A    between atoms: C_6  and  C_7
REMARK    4  A    between atoms: C_9  and  N_10
REMARK    5  A    between atoms: N_10  and  C_11
REMARK                            x       y       z     vdW  Elec       q    Type
REMARK                         _______ _______ _______ _____ _____    ______ ____
ROOT
ATOM      1  C   UNL     1       5.425   4.215  14.127  0.00  0.00    +0.000 C 
ATOM      2  C   UNL     1       5.814   4.631  15.514  0.00  0.00    +0.000 A 
ATOM      3  C   UNL     1       6.518   5.803  15.741  0.00  0.00    +0.000 A 
ATOM      4  C   UNL     1       6.946   6.097  17.039  0.00  0.00    +0.000 A 
ATOM      5  C   UNL     1       7.625   7.410  17.316  0.00  0.00    +0.000 C 
ATOM      6  C   UNL     1       6.658   5.182  18.069  0.00  0.00    +0.000 A 
ATOM      7  C   UNL     1       5.827   4.092  17.785  0.00  0.00    +0.000 A 
ATOM      8  N   UNL     1       5.438   3.811  16.521  0.00  0.00    +0.000 NA
ENDROOT
BRANCH   6   9
ATOM      9  C   UNL     1       7.187   5.368  19.388  0.00  0.00    +0.000 C 
ATOM     10  N   UNL     1       7.671   5.479  20.437  0.00  0.00    +0.000 NA
ENDBRANCH   6   9
BRANCH   7  11
ATOM     11  N   UNL     1       5.319   3.289  18.827  0.00  0.00    +0.000 N 
ATOM     12  H   UNL     1       5.690   2.344  18.727  0.00  0.00    +0.000 HD
BRANCH  11  13
ATOM     13  C   UNL     1       3.863   3.341  18.985  0.00  0.00    +0.000 C 
ATOM     14  C   UNL     1       3.255   1.948  18.768  0.00  0.00    +0.000 C 
ATOM     15  C   UNL     1       1.781   2.117  19.109  0.00  0.00    +0.000 C 
ATOM     16  S   UNL     1       1.772   3.156  20.561  0.00  0.00    +0.000 S 
ATOM     17  O   UNL     1       1.666   2.308  21.733  0.00  0.00    +0.000 OA
ATOM     18  O   UNL     1       0.877   4.265  20.328  0.00  0.00    +0.000 OA
ATOM     19  C   UNL     1       3.453   3.723  20.414  0.00  0.00    +0.000 C 
ENDBRANCH  11  13
ENDBRANCH   7  11
TORSDOF 3
ENDMDL
MODEL 2
REMARK VINA RESULT:      -7.0      3.680      6.032
REMARK  Name = 
REMARK  5 active torsions:
REMARK  status: ('A' for Active; 'I' for Inactive)
REMARK    1  A    between atoms: C_1  and  C_2
REMARK    2  A    between atoms: C_4  and  C_5
REMARK    3  A    between atoms: C_6  and  C_7
REMARK    4  A    between atoms: C_9  and  N_10
REMARK    5  A    between atoms: N_10  and  C_11
REMARK                            x       y       z     vdW  Elec       q    Type
REMARK                         _______ _______ _______ _____ _____    ______ ____
ROOT
ATOM      1  C   UNL     1       1.870   7.599  20.420  0.00  0.00    +0.000 C 
ATOM      2  C   UNL     1       2.066   6.167  20.023  0.00  0.00    +0.000 A 
ATOM      3  C   UNL     1       1.687   5.131  20.864  0.00  0.00    +0.000 A 
ATOM      4  C   UNL     1       1.982   3.815  20.495  0.00  0.00    +0.000 A 
ATOM      5  C   UNL     1       1.493   2.679  21.349  0.00  0.00    +0.000 C 
ATOM      6  C   UNL     1       2.667   3.591  19.286  0.00  0.00    +0.000 A 
ATOM      7  C   UNL     1       2.891   4.675  18.430  0.00  0.00    +0.000 A 
ATOM      8  N   UNL     1       2.619   5.944  18.810  0.00  0.00    +0.000 NA
ENDROOT
BRANCH   6   9
ATOM      9  C   UNL     1       3.111   2.276  18.926  0.00  0.00    +0.000 C 
ATOM     10  N   UNL     1       3.526   1.221  18.677  0.00  0.00    +0.000 NA
ENDBRANCH   6   9
BRANCH   7  11
ATOM     11  N   UNL     1       3.354   4.464  17.115  0.00  0.00    +0.000 N 
ATOM     12  H   UNL     1       2.787   3.739  16.676  0.00  0.00    +0.000 HD
BRANCH  11  13
ATOM     13  C   UNL     1       4.797   4.237  17.003  0.00  0.00    +0.000 C 
ATOM     14  C   UNL     1       5.244   4.374  15.540  0.00  0.00    +0.000 C 
ATOM     15  C   UNL     1       6.762   4.268  15.593  0.00  0.00    +0.000 C 
ATOM     16  S   UNL     1       7.229   5.226  17.025  0.00  0.00    +0.000 S 
ATOM     17  O   UNL     1       7.609   6.555  16.587  0.00  0.00    +0.000 OA
ATOM     18  O   UNL     1       8.084   4.417  17.861  0.00  0.00    +0.000 OA
ATOM     19  C   UNL     1       5.607   5.304  17.754  0.00  0.00    +0.000 C 
ENDBRANCH  11  13
ENDBRANCH   7  11
TORSDOF 3
ENDMDL
MODEL 3
REMARK VINA RESULT:      -6.9      3.814      6.043
REMARK  Name = 
REMARK  5 active torsions:
REMARK  status: ('A' for Active; 'I' for Inactive)
REMARK    1  A    between atoms: C_1  and  C_2
REMARK    2  A    between atoms: C_4  and  C_5
REMARK    3  A    between atoms: C_6  and  C_7
REMARK    4  A    between atoms: C_9  and  N_10
REMARK    5  A    between atoms: N_10  and  C_11
REMARK                            x       y       z     vdW  Elec       q    Type
REMARK                         _______ _______ _______ _____ _____    ______ ____
ROOT
ATOM      1  C   UNL     1       1.848   7.684  20.266  0.00  0.00    +0.000 C 
ATOM      2  C   UNL     1       2.105   6.242  19.950  0.00  0.00    +0.000 A 
ATOM      3  C   UNL     1       1.821   5.243  20.870  0.00  0.00    +0.000 A 
ATOM      4  C   UNL     1       2.172   3.924  20.570  0.00  0.00    +0.000 A 
ATOM      5  C   UNL     1       1.783   2.821  21.515  0.00  0.00    +0.000 C 
ATOM      6  C   UNL     1       2.817   3.658  19.348  0.00  0.00    +0.000 A 
ATOM      7  C   UNL     1       2.944   4.695  18.417  0.00  0.00    +0.000 A 
ATOM      8  N   UNL     1       2.618   5.970  18.730  0.00  0.00    +0.000 NA
ENDROOT
BRANCH   6   9
ATOM      9  C   UNL     1       3.316   2.348  19.050  0.00  0.00    +0.000 C 
ATOM     10  N   UNL     1       3.758   1.316  18.755  0.00  0.00    +0.000 NA
ENDBRANCH   6   9
BRANCH   7  11
ATOM     11  N   UNL     1       3.361   4.425  17.097  0.00  0.00    +0.000 N 
ATOM     12  H   UNL     1       3.366   3.416  16.951  0.00  0.00    +0.000 HD
BRANCH  11  13
ATOM     13  C   UNL     1       4.607   5.088  16.702  0.00  0.00    +0.000 C 
ATOM     14  C   UNL     1       5.247   5.780  17.913  0.00  0.00    +0.000 C 
ATOM     15  C   UNL     1       6.588   6.287  17.400  0.00  0.00    +0.000 C 
ATOM     16  S   UNL     1       7.210   4.959  16.382  0.00  0.00    +0.000 S 
ATOM     17  O   UNL     1       8.123   4.159  17.176  0.00  0.00    +0.000 OA
ATOM     18  O   UNL     1       7.577   5.498  15.094  0.00  0.00    +0.000 OA
ATOM     19  C   UNL     1       5.667   4.083  16.228  0.00  0.00    +0.000 C 
ENDBRANCH  11  13
ENDBRANCH   7  11
TORSDOF 3
ENDMDL
MODEL 4
REMARK VINA RESULT:      -6.9      1.159      1.733
REMARK  Name = 
REMARK  5 active torsions:
REMARK  status: ('A' for Active; 'I' for Inactive)
REMARK    1  A    between atoms: C_1  and  C_2
REMARK    2  A    between atoms: C_4  and  C_5
REMARK    3  A    between atoms: C_6  and  C_7
REMARK    4  A    between atoms: C_9  and  N_10
REMARK    5  A    between atoms: N_10  and  C_11
REMARK                            x       y       z     vdW  Elec       q    Type
REMARK                         _______ _______ _______ _____ _____    ______ ____
ROOT
ATOM      1  C   UNL     1       5.310   4.527  14.384  0.00  0.00    +0.000 C 
ATOM      2  C   UNL     1       5.802   4.880  15.755  0.00  0.00    +0.000 A 
ATOM      3  C   UNL     1       6.519   6.046  15.982  0.00  0.00    +0.000 A 
ATOM      4  C   UNL     1       7.043   6.282  17.257  0.00  0.00    +0.000 A 
ATOM      5  C   UNL     1       7.738   7.585  17.542  0.00  0.00    +0.000 C 
ATOM      6  C   UNL     1       6.837   5.318  18.261  0.00  0.00    +0.000 A 
ATOM      7  C   UNL     1       5.989   4.238  17.991  0.00  0.00    +0.000 A 
ATOM      8  N   UNL     1       5.506   4.013  16.748  0.00  0.00    +0.000 NA
ENDROOT
BRANCH   6   9
ATOM      9  C   UNL     1       7.464   5.447  19.544  0.00  0.00    +0.000 C 
ATOM     10  N   UNL     1       7.930   5.499  20.605  0.00  0.00    +0.000 NA
ENDBRANCH   6   9
BRANCH   7  11
ATOM     11  N   UNL     1       5.563   3.385  19.030  0.00  0.00    +0.000 N 
ATOM     12  H   UNL     1       5.827   2.427  18.800  0.00  0.00    +0.000 HD
BRANCH  11  13
ATOM     13  C   UNL     1       4.156   3.538  19.410  0.00  0.00    +0.000 C 
ATOM     14  C   UNL     1       3.754   5.019  19.366  0.00  0.00    +0.000 C 
ATOM     15  C   UNL     1       2.253   5.016  19.628  0.00  0.00    +0.000 C 
ATOM     16  S   UNL     1       1.636   3.634  18.680  0.00  0.00    +0.000 S 
ATOM     17  O   UNL     1       1.138   4.131  17.412  0.00  0.00    +0.000 OA
ATOM     18  O   UNL     1       0.838   2.800  19.548  0.00  0.00    +0.000 OA
ATOM     19  C   UNL     1       3.213   2.853  18.411  0.00  0.00    +0.000 C 
ENDBRANCH  11  13
ENDBRANCH   7  11
TORSDOF 3
ENDMDL
MODEL 5
REMARK VINA RESULT:      -6.9      0.911      1.096
REMARK  Name = 
REMARK  5 active torsions:
REMARK  status: ('A' for Active; 'I' for Inactive)
REMARK    1  A    between atoms: C_1  and  C_2
REMARK    2  A    between atoms: C_4  and  C_5
REMARK    3  A    between atoms: C_6  and  C_7
REMARK    4  A    between atoms: C_9  and  N_10
REMARK    5  A    between atoms: N_10  and  C_11
REMARK                            x       y       z     vdW  Elec       q    Type
REMARK                         _______ _______ _______ _____ _____    ______ ____
ROOT
ATOM      1  C   UNL     1       5.584   4.479  14.229  0.00  0.00    +0.000 C 
ATOM      2  C   UNL     1       5.982   4.861  15.622  0.00  0.00    +0.000 A 
ATOM      3  C   UNL     1       6.690   6.027  15.872  0.00  0.00    +0.000 A 
ATOM      4  C   UNL     1       7.127   6.290  17.174  0.00  0.00    +0.000 A 
ATOM      5  C   UNL     1       7.811   7.594  17.476  0.00  0.00    +0.000 C 
ATOM      6  C   UNL     1       6.842   5.352  18.184  0.00  0.00    +0.000 A 
ATOM      7  C   UNL     1       6.006   4.272  17.880  0.00  0.00    +0.000 A 
ATOM      8  N   UNL     1       5.609   4.020  16.612  0.00  0.00    +0.000 NA
ENDROOT
BRANCH   6   9
ATOM      9  C   UNL     1       7.379   5.507  19.503  0.00  0.00    +0.000 C 
ATOM     10  N   UNL     1       7.852   5.573  20.562  0.00  0.00    +0.000 NA
ENDBRANCH   6   9
BRANCH   7  11
ATOM     11  N   UNL     1       5.502   3.446  18.906  0.00  0.00    +0.000 N 
ATOM     12  H   UNL     1       6.114   2.637  19.012  0.00  0.00    +0.000 HD
BRANCH  11  13
ATOM     13  C   UNL     1       4.083   3.104  18.774  0.00  0.00    +0.000 C 
ATOM     14  C   UNL     1       3.618   2.289  19.989  0.00  0.00    +0.000 C 
ATOM     15  C   UNL     1       2.115   2.138  19.795  0.00  0.00    +0.000 C 
ATOM     16  S   UNL     1       1.574   3.737  19.216  0.00  0.00    +0.000 S 
ATOM     17  O   UNL     1       1.077   4.494  20.349  0.00  0.00    +0.000 OA
ATOM     18  O   UNL     1       0.798   3.553  18.013  0.00  0.00    +0.000 OA
ATOM     19  C   UNL     1       3.187   4.351  18.780  0.00  0.00    +0.000 C 
ENDBRANCH  11  13
ENDBRANCH   7  11
TORSDOF 3
ENDMDL
MODEL 6
REMARK VINA RESULT:      -6.9      4.506      6.114
REMARK  Name = 
REMARK  5 active torsions:
REMARK  status: ('A' for Active; 'I' for Inactive)
REMARK    1  A    between atoms: C_1  and  C_2
REMARK    2  A    between atoms: C_4  and  C_5
REMARK    3  A    between atoms: C_6  and  C_7
REMARK    4  A    between atoms: C_9  and  N_10
REMARK    5  A    between atoms: N_10  and  C_11
REMARK                            x       y       z     vdW  Elec       q    Type
REMARK                         _______ _______ _______ _____ _____    ______ ____
ROOT
ATOM      1  C   UNL     1       2.268   3.228  20.506  0.00  0.00    +0.000 C 
ATOM      2  C   UNL     1       2.343   4.642  20.012  0.00  0.00    +0.000 A 
ATOM      3  C   UNL     1       1.780   5.684  20.734  0.00  0.00    +0.000 A 
ATOM      4  C   UNL     1       1.787   6.970  20.184  0.00  0.00    +0.000 A 
ATOM      5  C   UNL     1       1.268   8.125  20.996  0.00  0.00    +0.000 C 
ATOM      6  C   UNL     1       2.351   7.156  18.909  0.00  0.00    +0.000 A 
ATOM      7  C   UNL     1       3.019   6.084  18.307  0.00  0.00    +0.000 A 
ATOM      8  N   UNL     1       2.987   4.842  18.841  0.00  0.00    +0.000 NA
ENDROOT
BRANCH   6   9
ATOM      9  C   UNL     1       2.264   8.424  18.245  0.00  0.00    +0.000 C 
ATOM     10  N   UNL     1       2.123   9.444  17.710  0.00  0.00    +0.000 NA
ENDBRANCH   6   9
BRANCH   7  11
ATOM     11  N   UNL     1       3.801   6.286  17.151  0.00  0.00    +0.000 N 
ATOM     12  H   UNL     1       3.185   6.338  16.339  0.00  0.00    +0.000 HD
BRANCH  11  13
ATOM     13  C   UNL     1       4.912   5.343  16.992  0.00  0.00    +0.000 C 
ATOM     14  C   UNL     1       4.711   4.495  15.728  0.00  0.00    +0.000 C 
ATOM     15  C   UNL     1       5.993   3.681  15.605  0.00  0.00    +0.000 C 
ATOM     16  S   UNL     1       7.295   4.831  16.016  0.00  0.00    +0.000 S 
ATOM     17  O   UNL     1       7.841   5.369  14.785  0.00  0.00    +0.000 OA
ATOM     18  O   UNL     1       8.129   4.238  17.035  0.00  0.00    +0.000 OA
ATOM     19  C   UNL     1       6.248   6.062  16.765  0.00  0.00    +0.000 C 
ENDBRANCH  11  13
ENDBRANCH   7  11
TORSDOF 3
ENDMDL
MODEL 7
REMARK VINA RESULT:      -6.8      3.933      6.024
REMARK  Name = 
REMARK  5 active torsions:
REMARK  status: ('A' for Active; 'I' for Inactive)
REMARK    1  A    between atoms: C_1  and  C_2
REMARK    2  A    between atoms: C_4  and  C_5
REMARK    3  A    between atoms: C_6  and  C_7
REMARK    4  A    between atoms: C_9  and  N_10
REMARK    5  A    between atoms: N_10  and  C_11
REMARK                            x       y       z     vdW  Elec       q    Type
REMARK                         _______ _______ _______ _____ _____    ______ ____
ROOT
ATOM      1  C   UNL     1       1.690   7.920  20.117  0.00  0.00    +0.000 C 
ATOM      2  C   UNL     1       2.284   6.549  19.995  0.00  0.00    +0.000 A 
ATOM      3  C   UNL     1       1.568   5.421  20.366  0.00  0.00    +0.000 A 
ATOM      4  C   UNL     1       2.199   4.174  20.329  0.00  0.00    +0.000 A 
ATOM      5  C   UNL     1       1.407   2.933  20.635  0.00  0.00    +0.000 C 
ATOM      6  C   UNL     1       3.548   4.112  19.931  0.00  0.00    +0.000 A 
ATOM      7  C   UNL     1       4.158   5.272  19.442  0.00  0.00    +0.000 A 
ATOM      8  N   UNL     1       3.540   6.474  19.503  0.00  0.00    +0.000 NA
ENDROOT
BRANCH   6   9
ATOM      9  C   UNL     1       4.279   2.881  20.003  0.00  0.00    +0.000 C 
ATOM     10  N   UNL     1       4.810   1.850  20.062  0.00  0.00    +0.000 NA
ENDBRANCH   6   9
BRANCH   7  11
ATOM     11  N   UNL     1       5.418   5.208  18.812  0.00  0.00    +0.000 N 
ATOM     12  H   UNL     1       5.965   6.026  19.081  0.00  0.00    +0.000 HD
BRANCH  11  13
ATOM     13  C   UNL     1       5.367   4.979  17.365  0.00  0.00    +0.000 C 
ATOM     14  C   UNL     1       5.196   6.312  16.623  0.00  0.00    +0.000 C 
ATOM     15  C   UNL     1       5.312   5.946  15.149  0.00  0.00    +0.000 C 
ATOM     16  S   UNL     1       6.648   4.763  15.084  0.00  0.00    +0.000 S 
ATOM     17  O   UNL     1       7.867   5.464  14.726  0.00  0.00    +0.000 OA
ATOM     18  O   UNL     1       6.194   3.593  14.371  0.00  0.00    +0.000 OA
ATOM     19  C   UNL     1       6.685   4.404  16.828  0.00  0.00    +0.000 C 
ENDBRANCH  11  13
ENDBRANCH   7  11
TORSDOF 3
ENDMDL
MODEL 8
REMARK VINA RESULT:      -6.8      3.977      6.289
REMARK  Name = 
REMARK  5 active torsions:
REMARK  status: ('A' for Active; 'I' for Inactive)
REMARK    1  A    between atoms: C_1  and  C_2
REMARK    2  A    between atoms: C_4  and  C_5
REMARK    3  A    between atoms: C_6  and  C_7
REMARK    4  A    between atoms: C_9  and  N_10
REMARK    5  A    between atoms: N_10  and  C_11
REMARK                            x       y       z     vdW  Elec       q    Type
REMARK                         _______ _______ _______ _____ _____    ______ ____
ROOT
ATOM      1  C   UNL     1       1.630   7.624  20.780  0.00  0.00    +0.000 C 
ATOM      2  C   UNL     1       1.898   6.246  20.255  0.00  0.00    +0.000 A 
ATOM      3  C   UNL     1       1.422   5.122  20.912  0.00  0.00    +0.000 A 
ATOM      4  C   UNL     1       1.783   3.856  20.440  0.00  0.00    +0.000 A 
ATOM      5  C   UNL     1       1.197   2.630  21.084  0.00  0.00    +0.000 C 
ATOM      6  C   UNL     1       2.632   3.770  19.320  0.00  0.00    +0.000 A 
ATOM      7  C   UNL     1       2.956   4.944  18.632  0.00  0.00    +0.000 A 
ATOM      8  N   UNL     1       2.616   6.162  19.112  0.00  0.00    +0.000 NA
ENDROOT
BRANCH   6   9
ATOM      9  C   UNL     1       3.139   2.504  18.878  0.00  0.00    +0.000 C 
ATOM     10  N   UNL     1       3.584   1.514  18.468  0.00  0.00    +0.000 NA
ENDBRANCH   6   9
BRANCH   7  11
ATOM     11  N   UNL     1       3.598   4.885  17.378  0.00  0.00    +0.000 N 
ATOM     12  H   UNL     1       3.440   3.964  16.968  0.00  0.00    +0.000 HD
BRANCH  11  13
ATOM     13  C   UNL     1       5.005   5.295  17.391  0.00  0.00    +0.000 C 
ATOM     14  C   UNL     1       5.916   4.061  17.456  0.00  0.00    +0.000 C 
ATOM     15  C   UNL     1       7.326   4.618  17.310  0.00  0.00    +0.000 C 
ATOM     16  S   UNL     1       7.184   5.869  16.044  0.00  0.00    +0.000 S 
ATOM     17  O   UNL     1       7.575   5.287  14.775  0.00  0.00    +0.000 OA
ATOM     18  O   UNL     1       7.763   7.095  16.542  0.00  0.00    +0.000 OA
ATOM     19  C   UNL     1       5.409   6.004  16.091  0.00  0.00    +0.000 C 
ENDBRANCH  11  13
ENDBRANCH   7  11
TORSDOF 3
ENDMDL
MODEL 9
REMARK VINA RESULT:      -6.8      4.115      5.956
REMARK  Name = 
REMARK  5 active torsions:
REMARK  status: ('A' for Active; 'I' for Inactive)
REMARK    1  A    between atoms: C_1  and  C_2
REMARK    2  A    between atoms: C_4  and  C_5
REMARK    3  A    between atoms: C_6  and  C_7
REMARK    4  A    between atoms: C_9  and  N_10
REMARK    5  A    between atoms: N_10  and  C_11
REMARK                            x       y       z     vdW  Elec       q    Type
REMARK                         _______ _______ _______ _____ _____    ______ ____
ROOT
ATOM      1  C   UNL     1       1.637   2.876  21.041  0.00  0.00    +0.000 C 
ATOM      2  C   UNL     1       1.917   4.181  20.361  0.00  0.00    +0.000 A 
ATOM      3  C   UNL     1       1.654   5.389  20.989  0.00  0.00    +0.000 A 
ATOM      4  C   UNL     1       1.837   6.579  20.277  0.00  0.00    +0.000 A 
ATOM      5  C   UNL     1       1.648   7.897  20.976  0.00  0.00    +0.000 C 
ATOM      6  C   UNL     1       2.268   6.505  18.939  0.00  0.00    +0.000 A 
ATOM      7  C   UNL     1       2.643   5.260  18.422  0.00  0.00    +0.000 A 
ATOM      8  N   UNL     1       2.441   4.117  19.116  0.00  0.00    +0.000 NA
ENDROOT
BRANCH   6   9
ATOM      9  C   UNL     1       2.343   7.683  18.126  0.00  0.00    +0.000 C 
ATOM     10  N   UNL     1       2.342   8.658  17.496  0.00  0.00    +0.000 NA
ENDBRANCH   6   9
BRANCH   7  11
ATOM     11  N   UNL     1       3.302   5.171  17.179  0.00  0.00    +0.000 N 
ATOM     12  H   UNL     1       2.749   4.587  16.552  0.00  0.00    +0.000 HD
BRANCH  11  13
ATOM     13  C   UNL     1       4.713   4.781  17.262  0.00  0.00    +0.000 C 
ATOM     14  C   UNL     1       5.296   4.594  15.854  0.00  0.00    +0.000 C 
ATOM     15  C   UNL     1       6.781   4.347  16.085  0.00  0.00    +0.000 C 
ATOM     16  S   UNL     1       7.235   5.504  17.366  0.00  0.00    +0.000 S 
ATOM     17  O   UNL     1       7.806   6.682  16.742  0.00  0.00    +0.000 OA
ATOM     18  O   UNL     1       7.912   4.784  18.418  0.00  0.00    +0.000 OA
ATOM     19  C   UNL     1       5.577   5.882  17.894  0.00  0.00    +0.000 C 
ENDBRANCH  11  13
ENDBRANCH   7  11
TORSDOF 3
ENDMDL
