MODEL 1
REMARK VINA RESULT:      -8.8      0.000      0.000
REMARK  Name = 
REMARK  8 active torsions:
REMARK  status: ('A' for Active; 'I' for Inactive)
REMARK    1  A    between atoms: C_1  and  N_2
REMARK    2  A    between atoms: N_2  and  C_3
REMARK    3  A    between atoms: N_2  and  C_4
REMARK    4  A    between atoms: C_7  and  C_8
REMARK    5  A    between atoms: C_8  and  N_9
REMARK    6  A    between atoms: N_21  and  C_22
REMARK    7  A    between atoms: C_22  and  C_23
REMARK    8  A    between atoms: C_23  and  O_25
REMARK                            x       y       z     vdW  Elec       q    Type
REMARK                         _______ _______ _______ _____ _____    ______ ____
ROOT
ATOM      1  N   UNL     1       3.416   6.009  18.628  0.00  0.00    +0.000 N 
ATOM      2  C   UNL     1       2.863   4.699  18.507  0.00  0.00    +0.000 A 
ATOM      3  C   UNL     1       1.635   4.182  18.865  0.00  0.00    +0.000 A 
ATOM      4  C   UNL     1       1.384   2.819  18.604  0.00  0.00    +0.000 A 
ATOM      5  C   UNL     1       2.354   1.995  18.002  0.00  0.00    +0.000 A 
ATOM      6  C   UNL     1       3.580   2.522  17.613  0.00  0.00    +0.000 A 
ATOM      7  C   UNL     1       3.793   3.863  17.868  0.00  0.00    +0.000 A 
ATOM      8  N   UNL     1       4.886   4.656  17.512  0.00  0.00    +0.000 N 
ATOM      9  C   UNL     1       5.528   4.550  16.310  0.00  0.00    +0.000 A 
ATOM     10  O   UNL     1       5.208   3.821  15.375  0.00  0.00    +0.000 OA
ATOM     11  C   UNL     1       6.618   5.601  16.121  0.00  0.00    +0.000 A 
ATOM     12  O   UNL     1       7.381   5.527  15.167  0.00  0.00    +0.000 OA
ATOM     13  N   UNL     1       6.655   6.595  17.101  0.00  0.00    +0.000 N 
ATOM     14  N   UNL     1       5.557   6.874  17.900  0.00  0.00    +0.000 NA
ATOM     15  C   UNL     1       4.683   5.909  18.036  0.00  0.00    +0.000 A 
ENDROOT
BRANCH   1  16
ATOM     16  C   UNL     1       2.601   7.085  18.035  0.00  0.00    +0.000 C 
BRANCH  16  20
ATOM     17  C   UNL     1       0.505   9.695  20.809  0.00  0.00    +0.000 A 
ATOM     18  C   UNL     1       0.704  10.059  19.467  0.00  0.00    +0.000 A 
ATOM     19  C   UNL     1       1.434   9.255  18.570  0.00  0.00    +0.000 A 
ATOM     20  C   UNL     1       1.979   8.047  19.000  0.00  0.00    +0.000 A 
ATOM     21  C   UNL     1       1.776   7.654  20.326  0.00  0.00    +0.000 A 
ATOM     22  C   UNL     1       1.057   8.466  21.206  0.00  0.00    +0.000 A 
BRANCH  17  24
ATOM     23  C   UNL     1      -0.507  10.024  23.044  0.00  0.00    +0.000 C 
ATOM     24  N   UNL     1      -0.216  10.491  21.695  0.00  0.00    +0.000 N 
ATOM     25  C   UNL     1      -0.970  11.636  21.196  0.00  0.00    +0.000 C 
ENDBRANCH  17  24
ENDBRANCH  16  20
ENDBRANCH   1  16
BRANCH  13  26
ATOM     26  C   UNL     1       7.759   7.558  17.068  0.00  0.00    +0.000 C 
BRANCH  26  27
ATOM     27  C   UNL     1       8.302   7.867  18.455  0.00  0.00    +0.000 C 
ATOM     28  O   UNL     1       8.751   8.951  18.788  0.00  0.00    +0.000 OA
BRANCH  27  29
ATOM     29  O   UNL     1       8.396   6.770  19.251  0.00  0.00    +0.000 OA
ATOM     30  H   UNL     1       8.750   6.019  18.716  0.00  0.00    +0.000 HD
ENDBRANCH  27  29
ENDBRANCH  26  27
ENDBRANCH  13  26
TORSDOF 6
ENDMDL
MODEL 2
REMARK VINA RESULT:      -8.7      0.943      1.196
REMARK  Name = 
REMARK  8 active torsions:
REMARK  status: ('A' for Active; 'I' for Inactive)
REMARK    1  A    between atoms: C_1  and  N_2
REMARK    2  A    between atoms: N_2  and  C_3
REMARK    3  A    between atoms: N_2  and  C_4
REMARK    4  A    between atoms: C_7  and  C_8
REMARK    5  A    between atoms: C_8  and  N_9
REMARK    6  A    between atoms: N_21  and  C_22
REMARK    7  A    between atoms: C_22  and  C_23
REMARK    8  A    between atoms: C_23  and  O_25
REMARK                            x       y       z     vdW  Elec       q    Type
REMARK                         _______ _______ _______ _____ _____    ______ ____
ROOT
ATOM      1  N   UNL     1       3.371   5.647  19.145  0.00  0.00    +0.000 N 
ATOM      2  C   UNL     1       2.690   4.420  18.883  0.00  0.00    +0.000 A 
ATOM      3  C   UNL     1       1.358   4.071  18.966  0.00  0.00    +0.000 A 
ATOM      4  C   UNL     1       0.994   2.750  18.630  0.00  0.00    +0.000 A 
ATOM      5  C   UNL     1       1.953   1.802  18.225  0.00  0.00    +0.000 A 
ATOM      6  C   UNL     1       3.291   2.163  18.112  0.00  0.00    +0.000 A 
ATOM      7  C   UNL     1       3.617   3.466  18.434  0.00  0.00    +0.000 A 
ATOM      8  N   UNL     1       4.854   4.106  18.331  0.00  0.00    +0.000 N 
ATOM      9  C   UNL     1       5.714   3.909  17.286  0.00  0.00    +0.000 A 
ATOM     10  O   UNL     1       5.505   3.224  16.291  0.00  0.00    +0.000 OA
ATOM     11  C   UNL     1       6.946   4.808  17.351  0.00  0.00    +0.000 A 
ATOM     12  O   UNL     1       7.876   4.629  16.576  0.00  0.00    +0.000 OA
ATOM     13  N   UNL     1       6.905   5.795  18.338  0.00  0.00    +0.000 N 
ATOM     14  N   UNL     1       5.710   6.220  18.897  0.00  0.00    +0.000 NA
ATOM     15  C   UNL     1       4.710   5.378  18.827  0.00  0.00    +0.000 A 
ENDROOT
BRANCH   1  16
ATOM     16  C   UNL     1       2.844   6.817  18.418  0.00  0.00    +0.000 C 
BRANCH  16  20
ATOM     17  C   UNL     1       0.413   9.549  20.769  0.00  0.00    +0.000 A 
ATOM     18  C   UNL     1       0.736   9.822  19.430  0.00  0.00    +0.000 A 
ATOM     19  C   UNL     1       1.572   8.979  18.672  0.00  0.00    +0.000 A 
ATOM     20  C   UNL     1       2.104   7.825  19.242  0.00  0.00    +0.000 A 
ATOM     21  C   UNL     1       1.780   7.522  20.568  0.00  0.00    +0.000 A 
ATOM     22  C   UNL     1       0.955   8.372  21.309  0.00  0.00    +0.000 A 
BRANCH  17  24
ATOM     23  C   UNL     1      -0.840  11.672  20.991  0.00  0.00    +0.000 C 
ATOM     24  N   UNL     1      -0.413  10.383  21.518  0.00  0.00    +0.000 N 
ATOM     25  C   UNL     1      -0.586  10.143  22.946  0.00  0.00    +0.000 C 
ENDBRANCH  17  24
ENDBRANCH  16  20
ENDBRANCH   1  16
BRANCH  13  26
ATOM     26  C   UNL     1       8.107   6.605  18.557  0.00  0.00    +0.000 C 
BRANCH  26  27
ATOM     27  C   UNL     1       7.992   7.992  17.945  0.00  0.00    +0.000 C 
ATOM     28  O   UNL     1       8.510   8.992  18.414  0.00  0.00    +0.000 OA
BRANCH  27  29
ATOM     29  O   UNL     1       7.115   8.051  16.908  0.00  0.00    +0.000 OA
ATOM     30  H   UNL     1       6.924   7.132  16.601  0.00  0.00    +0.000 HD
ENDBRANCH  27  29
ENDBRANCH  26  27
ENDBRANCH  13  26
TORSDOF 6
ENDMDL
MODEL 3
REMARK VINA RESULT:      -8.5      1.166      1.444
REMARK  Name = 
REMARK  8 active torsions:
REMARK  status: ('A' for Active; 'I' for Inactive)
REMARK    1  A    between atoms: C_1  and  N_2
REMARK    2  A    between atoms: N_2  and  C_3
REMARK    3  A    between atoms: N_2  and  C_4
REMARK    4  A    between atoms: C_7  and  C_8
REMARK    5  A    between atoms: C_8  and  N_9
REMARK    6  A    between atoms: N_21  and  C_22
REMARK    7  A    between atoms: C_22  and  C_23
REMARK    8  A    between atoms: C_23  and  O_25
REMARK                            x       y       z     vdW  Elec       q    Type
REMARK                         _______ _______ _______ _____ _____    ______ ____
ROOT
ATOM      1  N   UNL     1       3.212   6.076  19.491  0.00  0.00    +0.000 N 
ATOM      2  C   UNL     1       2.526   4.881  19.862  0.00  0.00    +0.000 A 
ATOM      3  C   UNL     1       1.343   4.673  20.541  0.00  0.00    +0.000 A 
ATOM      4  C   UNL     1       0.922   3.343  20.752  0.00  0.00    +0.000 A 
ATOM      5  C   UNL     1       1.681   2.249  20.295  0.00  0.00    +0.000 A 
ATOM      6  C   UNL     1       2.857   2.460  19.584  0.00  0.00    +0.000 A 
ATOM      7  C   UNL     1       3.238   3.772  19.380  0.00  0.00    +0.000 A 
ATOM      8  N   UNL     1       4.316   4.262  18.639  0.00  0.00    +0.000 N 
ATOM      9  C   UNL     1       4.710   3.723  17.446  0.00  0.00    +0.000 A 
ATOM     10  O   UNL     1       4.155   2.812  16.839  0.00  0.00    +0.000 OA
ATOM     11  C   UNL     1       5.840   4.506  16.783  0.00  0.00    +0.000 A 
ATOM     12  O   UNL     1       6.402   4.053  15.795  0.00  0.00    +0.000 OA
ATOM     13  N   UNL     1       6.151   5.724  17.393  0.00  0.00    +0.000 N 
ATOM     14  N   UNL     1       5.252   6.376  18.222  0.00  0.00    +0.000 NA
ATOM     15  C   UNL     1       4.332   5.628  18.777  0.00  0.00    +0.000 A 
ENDROOT
BRANCH   1  16
ATOM     16  C   UNL     1       2.406   7.044  18.724  0.00  0.00    +0.000 C 
BRANCH  16  20
ATOM     17  C   UNL     1       0.401  10.159  21.001  0.00  0.00    +0.000 A 
ATOM     18  C   UNL     1       0.614  10.282  19.618  0.00  0.00    +0.000 A 
ATOM     19  C   UNL     1       1.315   9.312  18.876  0.00  0.00    +0.000 A 
ATOM     20  C   UNL     1       1.817   8.177  19.508  0.00  0.00    +0.000 A 
ATOM     21  C   UNL     1       1.599   8.022  20.880  0.00  0.00    +0.000 A 
ATOM     22  C   UNL     1       0.908   8.996  21.604  0.00  0.00    +0.000 A 
BRANCH  17  24
ATOM     23  C   UNL     1      -0.087  12.538  21.478  0.00  0.00    +0.000 C 
ATOM     24  N   UNL     1      -0.292  11.118  21.733  0.00  0.00    +0.000 N 
ATOM     25  C   UNL     1      -0.963  10.742  22.972  0.00  0.00    +0.000 C 
ENDBRANCH  17  24
ENDBRANCH  16  20
ENDBRANCH   1  16
BRANCH  13  26
ATOM     26  C   UNL     1       7.315   6.466  16.902  0.00  0.00    +0.000 C 
BRANCH  26  27
ATOM     27  C   UNL     1       7.793   7.518  17.890  0.00  0.00    +0.000 C 
ATOM     28  O   UNL     1       7.827   8.715  17.653  0.00  0.00    +0.000 OA
BRANCH  27  29
ATOM     29  O   UNL     1       8.341   6.988  19.016  0.00  0.00    +0.000 OA
ATOM     30  H   UNL     1       7.991   6.073  19.138  0.00  0.00    +0.000 HD
ENDBRANCH  27  29
ENDBRANCH  26  27
ENDBRANCH  13  26
TORSDOF 6
ENDMDL
MODEL 4
REMARK VINA RESULT:      -8.2      1.278      1.708
REMARK  Name = 
REMARK  8 active torsions:
REMARK  status: ('A' for Active; 'I' for Inactive)
REMARK    1  A    between atoms: C_1  and  N_2
REMARK    2  A    between atoms: N_2  and  C_3
REMARK    3  A    between atoms: N_2  and  C_4
REMARK    4  A    between atoms: C_7  and  C_8
REMARK    5  A    between atoms: C_8  and  N_9
REMARK    6  A    between atoms: N_21  and  C_22
REMARK    7  A    between atoms: C_22  and  C_23
REMARK    8  A    between atoms: C_23  and  O_25
REMARK                            x       y       z     vdW  Elec       q    Type
REMARK                         _______ _______ _______ _____ _____    ______ ____
ROOT
ATOM      1  N   UNL     1       3.160   6.171  19.385  0.00  0.00    +0.000 N 
ATOM      2  C   UNL     1       2.513   4.975  19.819  0.00  0.00    +0.000 A 
ATOM      3  C   UNL     1       1.320   4.761  20.477  0.00  0.00    +0.000 A 
ATOM      4  C   UNL     1       0.949   3.432  20.768  0.00  0.00    +0.000 A 
ATOM      5  C   UNL     1       1.767   2.344  20.410  0.00  0.00    +0.000 A 
ATOM      6  C   UNL     1       2.955   2.557  19.720  0.00  0.00    +0.000 A 
ATOM      7  C   UNL     1       3.287   3.868  19.435  0.00  0.00    +0.000 A 
ATOM      8  N   UNL     1       4.365   4.353  18.692  0.00  0.00    +0.000 N 
ATOM      9  C   UNL     1       4.819   3.753  17.551  0.00  0.00    +0.000 A 
ATOM     10  O   UNL     1       4.322   2.779  16.994  0.00  0.00    +0.000 OA
ATOM     11  C   UNL     1       5.934   4.538  16.867  0.00  0.00    +0.000 A 
ATOM     12  O   UNL     1       6.546   4.044  15.930  0.00  0.00    +0.000 OA
ATOM     13  N   UNL     1       6.174   5.807  17.400  0.00  0.00    +0.000 N 
ATOM     14  N   UNL     1       5.223   6.474  18.156  0.00  0.00    +0.000 NA
ATOM     15  C   UNL     1       4.319   5.725  18.735  0.00  0.00    +0.000 A 
ENDROOT
BRANCH   1  16
ATOM     16  C   UNL     1       2.337   7.047  18.531  0.00  0.00    +0.000 C 
BRANCH  16  20
ATOM     17  C   UNL     1       0.813  10.609  20.503  0.00  0.00    +0.000 A 
ATOM     18  C   UNL     1       1.086   9.433  21.221  0.00  0.00    +0.000 A 
ATOM     19  C   UNL     1       1.521   8.251  20.590  0.00  0.00    +0.000 A 
ATOM     20  C   UNL     1       1.705   8.223  19.209  0.00  0.00    +0.000 A 
ATOM     21  C   UNL     1       1.460   9.389  18.477  0.00  0.00    +0.000 A 
ATOM     22  C   UNL     1       1.021  10.550  19.116  0.00  0.00    +0.000 A 
BRANCH  17  24
ATOM     23  C   UNL     1      -0.944  11.851  21.726  0.00  0.00    +0.000 C 
ATOM     24  N   UNL     1       0.382  11.776  21.127  0.00  0.00    +0.000 N 
ATOM     25  C   UNL     1       1.096  13.028  20.902  0.00  0.00    +0.000 C 
ENDBRANCH  17  24
ENDBRANCH  16  20
ENDBRANCH   1  16
BRANCH  13  26
ATOM     26  C   UNL     1       7.321   6.565  16.891  0.00  0.00    +0.000 C 
BRANCH  26  27
ATOM     27  C   UNL     1       7.811   7.611  17.880  0.00  0.00    +0.000 C 
ATOM     28  O   UNL     1       7.839   8.809  17.651  0.00  0.00    +0.000 OA
BRANCH  27  29
ATOM     29  O   UNL     1       8.377   7.074  18.993  0.00  0.00    +0.000 OA
ATOM     30  H   UNL     1       9.359   7.100  18.894  0.00  0.00    +0.000 HD
ENDBRANCH  27  29
ENDBRANCH  26  27
ENDBRANCH  13  26
TORSDOF 6
ENDMDL
MODEL 5
REMARK VINA RESULT:      -7.9      0.622      1.356
REMARK  Name = 
REMARK  8 active torsions:
REMARK  status: ('A' for Active; 'I' for Inactive)
REMARK    1  A    between atoms: C_1  and  N_2
REMARK    2  A    between atoms: N_2  and  C_3
REMARK    3  A    between atoms: N_2  and  C_4
REMARK    4  A    between atoms: C_7  and  C_8
REMARK    5  A    between atoms: C_8  and  N_9
REMARK    6  A    between atoms: N_21  and  C_22
REMARK    7  A    between atoms: C_22  and  C_23
REMARK    8  A    between atoms: C_23  and  O_25
REMARK                            x       y       z     vdW  Elec       q    Type
REMARK                         _______ _______ _______ _____ _____    ______ ____
ROOT
ATOM      1  N   UNL     1       3.232   6.045  18.474  0.00  0.00    +0.000 N 
ATOM      2  C   UNL     1       2.756   4.701  18.414  0.00  0.00    +0.000 A 
ATOM      3  C   UNL     1       1.534   4.143  18.728  0.00  0.00    +0.000 A 
ATOM      4  C   UNL     1       1.372   2.753  18.554  0.00  0.00    +0.000 A 
ATOM      5  C   UNL     1       2.421   1.943  18.078  0.00  0.00    +0.000 A 
ATOM      6  C   UNL     1       3.642   2.510  17.731  0.00  0.00    +0.000 A 
ATOM      7  C   UNL     1       3.769   3.875  17.900  0.00  0.00    +0.000 A 
ATOM      8  N   UNL     1       4.842   4.701  17.558  0.00  0.00    +0.000 N 
ATOM      9  C   UNL     1       5.570   4.546  16.411  0.00  0.00    +0.000 A 
ATOM     10  O   UNL     1       5.352   3.737  15.514  0.00  0.00    +0.000 OA
ATOM     11  C   UNL     1       6.615   5.640  16.216  0.00  0.00    +0.000 A 
ATOM     12  O   UNL     1       7.445   5.543  15.322  0.00  0.00    +0.000 OA
ATOM     13  N   UNL     1       6.534   6.702  17.120  0.00  0.00    +0.000 N 
ATOM     14  N   UNL     1       5.371   6.975  17.824  0.00  0.00    +0.000 NA
ATOM     15  C   UNL     1       4.540   5.974  17.974  0.00  0.00    +0.000 A 
ENDROOT
BRANCH   1  16
ATOM     16  C   UNL     1       2.406   7.030  17.751  0.00  0.00    +0.000 C 
BRANCH  16  20
ATOM     17  C   UNL     1       0.832  10.274  20.179  0.00  0.00    +0.000 A 
ATOM     18  C   UNL     1       1.237   9.058  20.753  0.00  0.00    +0.000 A 
ATOM     19  C   UNL     1       1.691   7.974  19.976  0.00  0.00    +0.000 A 
ATOM     20  C   UNL     1       1.761   8.089  18.590  0.00  0.00    +0.000 A 
ATOM     21  C   UNL     1       1.383   9.298  17.998  0.00  0.00    +0.000 A 
ATOM     22  C   UNL     1       0.928  10.361  18.781  0.00  0.00    +0.000 A 
BRANCH  17  24
ATOM     23  C   UNL     1       1.010  12.654  20.834  0.00  0.00    +0.000 C 
ATOM     24  N   UNL     1       0.383  11.344  20.948  0.00  0.00    +0.000 N 
ATOM     25  C   UNL     1      -0.477  11.101  22.101  0.00  0.00    +0.000 C 
ENDBRANCH  17  24
ENDBRANCH  16  20
ENDBRANCH   1  16
BRANCH  13  26
ATOM     26  C   UNL     1       7.587   7.720  17.089  0.00  0.00    +0.000 C 
BRANCH  26  27
ATOM     27  C   UNL     1       8.343   7.816  18.405  0.00  0.00    +0.000 C 
ATOM     28  O   UNL     1       8.474   6.889  19.187  0.00  0.00    +0.000 OA
BRANCH  27  29
ATOM     29  O   UNL     1       8.721   9.084  18.716  0.00  0.00    +0.000 OA
ATOM     30  H   UNL     1       8.080   9.715  18.309  0.00  0.00    +0.000 HD
ENDBRANCH  27  29
ENDBRANCH  26  27
ENDBRANCH  13  26
TORSDOF 6
ENDMDL
MODEL 6
REMARK VINA RESULT:      -7.0      2.104      2.613
REMARK  Name = 
REMARK  8 active torsions:
REMARK  status: ('A' for Active; 'I' for Inactive)
REMARK    1  A    between atoms: C_1  and  N_2
REMARK    2  A    between atoms: N_2  and  C_3
REMARK    3  A    between atoms: N_2  and  C_4
REMARK    4  A    between atoms: C_7  and  C_8
REMARK    5  A    between atoms: C_8  and  N_9
REMARK    6  A    between atoms: N_21  and  C_22
REMARK    7  A    between atoms: C_22  and  C_23
REMARK    8  A    between atoms: C_23  and  O_25
REMARK                            x       y       z     vdW  Elec       q    Type
REMARK                         _______ _______ _______ _____ _____    ______ ____
ROOT
ATOM      1  N   UNL     1       3.203   6.020  19.202  0.00  0.00    +0.000 N 
ATOM      2  C   UNL     1       2.906   4.930  20.074  0.00  0.00    +0.000 A 
ATOM      3  C   UNL     1       2.074   4.829  21.170  0.00  0.00    +0.000 A 
ATOM      4  C   UNL     1       1.994   3.586  21.832  0.00  0.00    +0.000 A 
ATOM      5  C   UNL     1       2.741   2.473  21.402  0.00  0.00    +0.000 A 
ATOM      6  C   UNL     1       3.555   2.566  20.280  0.00  0.00    +0.000 A 
ATOM      7  C   UNL     1       3.604   3.791  19.642  0.00  0.00    +0.000 A 
ATOM      8  N   UNL     1       4.267   4.134  18.462  0.00  0.00    +0.000 N 
ATOM      9  C   UNL     1       4.332   3.310  17.373  0.00  0.00    +0.000 A 
ATOM     10  O   UNL     1       3.781   2.221  17.251  0.00  0.00    +0.000 OA
ATOM     11  C   UNL     1       5.017   3.959  16.174  0.00  0.00    +0.000 A 
ATOM     12  O   UNL     1       5.290   3.289  15.188  0.00  0.00    +0.000 OA
ATOM     13  N   UNL     1       5.289   5.322  16.316  0.00  0.00    +0.000 N 
ATOM     14  N   UNL     1       4.615   6.109  17.237  0.00  0.00    +0.000 NA
ATOM     15  C   UNL     1       4.083   5.479  18.254  0.00  0.00    +0.000 A 
ENDROOT
BRANCH   1  16
ATOM     16  C   UNL     1       2.028   6.657  18.580  0.00  0.00    +0.000 C 
BRANCH  16  20
ATOM     17  C   UNL     1       1.147  10.843  19.355  0.00  0.00    +0.000 A 
ATOM     18  C   UNL     1       1.686  10.422  18.128  0.00  0.00    +0.000 A 
ATOM     19  C   UNL     1       2.035   9.079  17.882  0.00  0.00    +0.000 A 
ATOM     20  C   UNL     1       1.840   8.115  18.868  0.00  0.00    +0.000 A 
ATOM     21  C   UNL     1       1.285   8.508  20.090  0.00  0.00    +0.000 A 
ATOM     22  C   UNL     1       0.952   9.844  20.321  0.00  0.00    +0.000 A 
BRANCH  17  24
ATOM     23  C   UNL     1       0.779  12.694  20.957  0.00  0.00    +0.000 C 
ATOM     24  N   UNL     1       0.804  12.170  19.597  0.00  0.00    +0.000 N 
ATOM     25  C   UNL     1       0.147  12.954  18.557  0.00  0.00    +0.000 C 
ENDBRANCH  17  24
ENDBRANCH  16  20
ENDBRANCH   1  16
BRANCH  13  26
ATOM     26  C   UNL     1       6.070   5.985  15.268  0.00  0.00    +0.000 C 
BRANCH  26  27
ATOM     27  C   UNL     1       7.446   5.364  15.089  0.00  0.00    +0.000 C 
ATOM     28  O   UNL     1       8.075   5.384  14.043  0.00  0.00    +0.000 OA
BRANCH  27  29
ATOM     29  O   UNL     1       7.849   4.632  16.161  0.00  0.00    +0.000 OA
ATOM     30  H   UNL     1       8.743   4.944  16.441  0.00  0.00    +0.000 HD
ENDBRANCH  27  29
ENDBRANCH  26  27
ENDBRANCH  13  26
TORSDOF 6
ENDMDL
MODEL 7
REMARK VINA RESULT:      -6.9      4.868      9.162
REMARK  Name = 
REMARK  8 active torsions:
REMARK  status: ('A' for Active; 'I' for Inactive)
REMARK    1  A    between atoms: C_1  and  N_2
REMARK    2  A    between atoms: N_2  and  C_3
REMARK    3  A    between atoms: N_2  and  C_4
REMARK    4  A    between atoms: C_7  and  C_8
REMARK    5  A    between atoms: C_8  and  N_9
REMARK    6  A    between atoms: N_21  and  C_22
REMARK    7  A    between atoms: C_22  and  C_23
REMARK    8  A    between atoms: C_23  and  O_25
REMARK                            x       y       z     vdW  Elec       q    Type
REMARK                         _______ _______ _______ _____ _____    ______ ____
ROOT
ATOM      1  N   UNL     1      -0.362  11.148  19.311  0.00  0.00    +0.000 N 
ATOM      2  C   UNL     1      -1.595  10.836  18.663  0.00  0.00    +0.000 A 
ATOM      3  C   UNL     1      -1.985   9.757  17.896  0.00  0.00    +0.000 A 
ATOM      4  C   UNL     1      -3.301   9.740  17.390  0.00  0.00    +0.000 A 
ATOM      5  C   UNL     1      -4.202  10.791  17.648  0.00  0.00    +0.000 A 
ATOM      6  C   UNL     1      -3.820  11.863  18.445  0.00  0.00    +0.000 A 
ATOM      7  C   UNL     1      -2.530  11.847  18.939  0.00  0.00    +0.000 A 
ATOM      8  N   UNL     1      -1.921  12.744  19.820  0.00  0.00    +0.000 N 
ATOM      9  C   UNL     1      -2.567  13.293  20.893  0.00  0.00    +0.000 A 
ATOM     10  O   UNL     1      -3.707  13.036  21.266  0.00  0.00    +0.000 OA
ATOM     11  C   UNL     1      -1.653  14.153  21.762  0.00  0.00    +0.000 A 
ATOM     12  O   UNL     1      -2.127  14.835  22.660  0.00  0.00    +0.000 OA
ATOM     13  N   UNL     1      -0.297  14.087  21.437  0.00  0.00    +0.000 N 
ATOM     14  N   UNL     1       0.232  13.026  20.718  0.00  0.00    +0.000 NA
ATOM     15  C   UNL     1      -0.612  12.359  19.972  0.00  0.00    +0.000 A 
ENDROOT
BRANCH   1  16
ATOM     16  C   UNL     1       0.144  10.103  20.220  0.00  0.00    +0.000 C 
BRANCH  16  20
ATOM     17  C   UNL     1       2.841   7.238  18.373  0.00  0.00    +0.000 A 
ATOM     18  C   UNL     1       2.374   7.064  19.687  0.00  0.00    +0.000 A 
ATOM     19  C   UNL     1       1.549   8.013  20.322  0.00  0.00    +0.000 A 
ATOM     20  C   UNL     1       1.161   9.167  19.645  0.00  0.00    +0.000 A 
ATOM     21  C   UNL     1       1.597   9.351  18.329  0.00  0.00    +0.000 A 
ATOM     22  C   UNL     1       2.420   8.404  17.715  0.00  0.00    +0.000 A 
BRANCH  17  24
ATOM     23  C   UNL     1       4.722   6.726  16.848  0.00  0.00    +0.000 C 
ATOM     24  N   UNL     1       3.657   6.300  17.746  0.00  0.00    +0.000 N 
ATOM     25  C   UNL     1       3.256   4.898  17.706  0.00  0.00    +0.000 C 
ENDBRANCH  17  24
ENDBRANCH  16  20
ENDBRANCH   1  16
BRANCH  13  26
ATOM     26  C   UNL     1       0.626  14.990  22.131  0.00  0.00    +0.000 C 
BRANCH  26  27
ATOM     27  C   UNL     1       2.061  14.834  21.654  0.00  0.00    +0.000 C 
ATOM     28  O   UNL     1       2.997  14.548  22.382  0.00  0.00    +0.000 OA
BRANCH  27  29
ATOM     29  O   UNL     1       2.240  15.208  20.359  0.00  0.00    +0.000 OA
ATOM     30  H   UNL     1       1.427  14.979  19.848  0.00  0.00    +0.000 HD
ENDBRANCH  27  29
ENDBRANCH  26  27
ENDBRANCH  13  26
TORSDOF 6
ENDMDL
MODEL 8
REMARK VINA RESULT:      -6.6      4.778      8.828
REMARK  Name = 
REMARK  8 active torsions:
REMARK  status: ('A' for Active; 'I' for Inactive)
REMARK    1  A    between atoms: C_1  and  N_2
REMARK    2  A    between atoms: N_2  and  C_3
REMARK    3  A    between atoms: N_2  and  C_4
REMARK    4  A    between atoms: C_7  and  C_8
REMARK    5  A    between atoms: C_8  and  N_9
REMARK    6  A    between atoms: N_21  and  C_22
REMARK    7  A    between atoms: C_22  and  C_23
REMARK    8  A    between atoms: C_23  and  O_25
REMARK                            x       y       z     vdW  Elec       q    Type
REMARK                         _______ _______ _______ _____ _____    ______ ____
ROOT
ATOM      1  N   UNL     1       0.043  11.036  18.759  0.00  0.00    +0.000 N 
ATOM      2  C   UNL     1      -1.301  10.753  18.371  0.00  0.00    +0.000 A 
ATOM      3  C   UNL     1      -1.905   9.597  17.923  0.00  0.00    +0.000 A 
ATOM      4  C   UNL     1      -3.282   9.640  17.617  0.00  0.00    +0.000 A 
ATOM      5  C   UNL     1      -4.030  10.825  17.756  0.00  0.00    +0.000 A 
ATOM      6  C   UNL     1      -3.428  11.982  18.237  0.00  0.00    +0.000 A 
ATOM      7  C   UNL     1      -2.082  11.908  18.541  0.00  0.00    +0.000 A 
ATOM      8  N   UNL     1      -1.261  12.883  19.111  0.00  0.00    +0.000 N 
ATOM      9  C   UNL     1      -1.674  13.716  20.113  0.00  0.00    +0.000 A 
ATOM     10  O   UNL     1      -2.758  13.685  20.686  0.00  0.00    +0.000 OA
ATOM     11  C   UNL     1      -0.558  14.616  20.638  0.00  0.00    +0.000 A 
ATOM     12  O   UNL     1      -0.817  15.521  21.418  0.00  0.00    +0.000 OA
ATOM     13  N   UNL     1       0.718  14.317  20.153  0.00  0.00    +0.000 N 
ATOM     14  N   UNL     1       1.025  13.074  19.621  0.00  0.00    +0.000 NA
ATOM     15  C   UNL     1       0.014  12.378  19.164  0.00  0.00    +0.000 A 
ENDROOT
BRANCH   1  16
ATOM     16  C   UNL     1       0.590  10.145  19.800  0.00  0.00    +0.000 C 
BRANCH  16  20
ATOM     17  C   UNL     1       2.975   6.863  18.238  0.00  0.00    +0.000 A 
ATOM     18  C   UNL     1       2.459   6.838  19.544  0.00  0.00    +0.000 A 
ATOM     19  C   UNL     1       1.737   7.919  20.088  0.00  0.00    +0.000 A 
ATOM     20  C   UNL     1       1.503   9.059  19.322  0.00  0.00    +0.000 A 
ATOM     21  C   UNL     1       1.990   9.098  18.012  0.00  0.00    +0.000 A 
ATOM     22  C   UNL     1       2.710   8.021  17.490  0.00  0.00    +0.000 A 
BRANCH  17  24
ATOM     23  C   UNL     1       3.573   4.462  18.276  0.00  0.00    +0.000 C 
ATOM     24  N   UNL     1       3.689   5.796  17.702  0.00  0.00    +0.000 N 
ATOM     25  C   UNL     1       4.802   6.048  16.794  0.00  0.00    +0.000 C 
ENDBRANCH  17  24
ENDBRANCH  16  20
ENDBRANCH   1  16
BRANCH  13  26
ATOM     26  C   UNL     1       1.818  15.221  20.498  0.00  0.00    +0.000 C 
BRANCH  26  27
ATOM     27  C   UNL     1       2.538  14.802  21.771  0.00  0.00    +0.000 C 
ATOM     28  O   UNL     1       2.593  15.483  22.781  0.00  0.00    +0.000 OA
BRANCH  27  29
ATOM     29  O   UNL     1       3.263  13.662  21.627  0.00  0.00    +0.000 OA
ATOM     30  H   UNL     1       3.329  13.215  22.505  0.00  0.00    +0.000 HD
ENDBRANCH  27  29
ENDBRANCH  26  27
ENDBRANCH  13  26
TORSDOF 6
ENDMDL
MODEL 9
REMARK VINA RESULT:      -6.6      4.684      8.850
REMARK  Name = 
REMARK  8 active torsions:
REMARK  status: ('A' for Active; 'I' for Inactive)
REMARK    1  A    between atoms: C_1  and  N_2
REMARK    2  A    between atoms: N_2  and  C_3
REMARK    3  A    between atoms: N_2  and  C_4
REMARK    4  A    between atoms: C_7  and  C_8
REMARK    5  A    between atoms: C_8  and  N_9
REMARK    6  A    between atoms: N_21  and  C_22
REMARK    7  A    between atoms: C_22  and  C_23
REMARK    8  A    between atoms: C_23  and  O_25
REMARK                            x       y       z     vdW  Elec       q    Type
REMARK                         _______ _______ _______ _____ _____    ______ ____
ROOT
ATOM      1  N   UNL     1      -0.035  11.119  19.010  0.00  0.00    +0.000 N 
ATOM      2  C   UNL     1      -1.323  10.824  18.470  0.00  0.00    +0.000 A 
ATOM      3  C   UNL     1      -1.806   9.724  17.791  0.00  0.00    +0.000 A 
ATOM      4  C   UNL     1      -3.156   9.734  17.383  0.00  0.00    +0.000 A 
ATOM      5  C   UNL     1      -3.997  10.832  17.648  0.00  0.00    +0.000 A 
ATOM      6  C   UNL     1      -3.519  11.926  18.359  0.00  0.00    +0.000 A 
ATOM      7  C   UNL     1      -2.197  11.884  18.758  0.00  0.00    +0.000 A 
ATOM      8  N   UNL     1      -1.494  12.798  19.545  0.00  0.00    +0.000 N 
ATOM      9  C   UNL     1      -2.038  13.426  20.631  0.00  0.00    +0.000 A 
ATOM     10  O   UNL     1      -3.156  13.233  21.098  0.00  0.00    +0.000 OA
ATOM     11  C   UNL     1      -1.033  14.291  21.385  0.00  0.00    +0.000 A 
ATOM     12  O   UNL     1      -1.414  15.036  22.278  0.00  0.00    +0.000 OA
ATOM     13  N   UNL     1       0.293  14.155  20.967  0.00  0.00    +0.000 N 
ATOM     14  N   UNL     1       0.729  13.040  20.269  0.00  0.00    +0.000 NA
ATOM     15  C   UNL     1      -0.192  12.370  19.622  0.00  0.00    +0.000 A 
ENDROOT
BRANCH   1  16
ATOM     16  C   UNL     1       0.499  10.102  19.934  0.00  0.00    +0.000 C 
BRANCH  16  20
ATOM     17  C   UNL     1       3.106   7.032  18.298  0.00  0.00    +0.000 A 
ATOM     18  C   UNL     1       2.756   8.170  17.553  0.00  0.00    +0.000 A 
ATOM     19  C   UNL     1       1.864   9.144  18.044  0.00  0.00    +0.000 A 
ATOM     20  C   UNL     1       1.303   9.003  19.311  0.00  0.00    +0.000 A 
ATOM     21  C   UNL     1       1.654   7.888  20.079  0.00  0.00    +0.000 A 
ATOM     22  C   UNL     1       2.534   6.927  19.576  0.00  0.00    +0.000 A 
BRANCH  17  24
ATOM     23  C   UNL     1       4.233   4.844  18.561  0.00  0.00    +0.000 C 
ATOM     24  N   UNL     1       3.987   6.069  17.813  0.00  0.00    +0.000 N 
ATOM     25  C   UNL     1       4.918   6.409  16.742  0.00  0.00    +0.000 C 
ENDBRANCH  17  24
ENDBRANCH  16  20
ENDBRANCH   1  16
BRANCH  13  26
ATOM     26  C   UNL     1       1.296  15.055  21.545  0.00  0.00    +0.000 C 
BRANCH  26  27
ATOM     27  C   UNL     1       2.711  14.516  21.401  0.00  0.00    +0.000 C 
ATOM     28  O   UNL     1       3.428  14.215  22.341  0.00  0.00    +0.000 OA
BRANCH  27  29
ATOM     29  O   UNL     1       3.173  14.556  20.123  0.00  0.00    +0.000 OA
ATOM     30  H   UNL     1       4.142  14.748  20.142  0.00  0.00    +0.000 HD
ENDBRANCH  27  29
ENDBRANCH  26  27
ENDBRANCH  13  26
TORSDOF 6
ENDMDL
