MODEL 1
REMARK VINA RESULT:      -8.5      0.000      0.000
REMARK  Name = 
REMARK  2 active torsions:
REMARK  status: ('A' for Active; 'I' for Inactive)
REMARK    1  A    between atoms: C_2  and  C_3
REMARK    2  A    between atoms: C_2  and  C_14
REMARK                            x       y       z     vdW  Elec       q    Type
REMARK                         _______ _______ _______ _____ _____    ______ ____
ROOT
ATOM      1  O   UNL     1       2.429   3.602  18.516  0.00  0.00    +0.000 OA
ATOM      2  C   UNL     1       3.119   4.528  18.941  0.00  0.00    +0.000 C 
ENDROOT
BRANCH   2   3
ATOM      3  C   UNL     1       2.432   5.539  19.859  0.00  0.00    +0.000 C 
ATOM      4  O   UNL     1       2.125   5.172  20.988  0.00  0.00    +0.000 OA
ATOM      5  N   UNL     1       2.231   6.794  19.305  0.00  0.00    +0.000 N 
ATOM      6  C   UNL     1       2.482   7.150  17.898  0.00  0.00    +0.000 C 
ATOM      7  C   UNL     1       2.179   8.645  17.740  0.00  0.00    +0.000 C 
ATOM      8  C   UNL     1       1.603   8.990  19.076  0.00  0.00    +0.000 A 
ATOM      9  C   UNL     1       1.083  10.213  19.474  0.00  0.00    +0.000 A 
ATOM     10  C   UNL     1       0.656  10.350  20.795  0.00  0.00    +0.000 A 
ATOM     11  C   UNL     1       0.764   9.278  21.693  0.00  0.00    +0.000 A 
ATOM     12  C   UNL     1       1.285   8.046  21.278  0.00  0.00    +0.000 A 
ATOM     13  C   UNL     1       1.690   7.912  19.961  0.00  0.00    +0.000 A 
ENDBRANCH   2   3
BRANCH   2  14
ATOM     14  C   UNL     1       4.543   4.653  18.625  0.00  0.00    +0.000 A 
ATOM     15  C   UNL     1       5.567   4.879  19.527  0.00  0.00    +0.000 A 
ATOM     16  N   UNL     1       6.751   4.931  18.837  0.00  0.00    +0.000 N 
ATOM     17  C   UNL     1       6.528   4.746  17.493  0.00  0.00    +0.000 A 
ATOM     18  C   UNL     1       7.433   4.736  16.421  0.00  0.00    +0.000 A 
ATOM     19  C   UNL     1       6.915   4.533  15.140  0.00  0.00    +0.000 A 
ATOM     20  C   UNL     1       5.553   4.342  14.952  0.00  0.00    +0.000 A 
ATOM     21  F   UNL     1       5.084   4.150  13.712  0.00  0.00    +0.000 F 
ATOM     22  C   UNL     1       4.659   4.350  16.023  0.00  0.00    +0.000 A 
ATOM     23  C   UNL     1       5.152   4.560  17.328  0.00  0.00    +0.000 A 
ATOM     24  H   UNL     1       7.662   5.093  19.249  0.00  0.00    +0.000 HD
ENDBRANCH   2  14
TORSDOF 2
ENDMDL
MODEL 2
REMARK VINA RESULT:      -7.9      1.881      1.989
REMARK  Name = 
REMARK  2 active torsions:
REMARK  status: ('A' for Active; 'I' for Inactive)
REMARK    1  A    between atoms: C_2  and  C_3
REMARK    2  A    between atoms: C_2  and  C_14
REMARK                            x       y       z     vdW  Elec       q    Type
REMARK                         _______ _______ _______ _____ _____    ______ ____
ROOT
ATOM      1  O   UNL     1       1.759   4.838  17.699  0.00  0.00    +0.000 OA
ATOM      2  C   UNL     1       2.543   5.195  18.577  0.00  0.00    +0.000 C 
ENDROOT
BRANCH   2   3
ATOM      3  C   UNL     1       1.997   6.131  19.655  0.00  0.00    +0.000 C 
ATOM      4  O   UNL     1       1.757   5.656  20.760  0.00  0.00    +0.000 OA
ATOM      5  N   UNL     1       1.834   7.451  19.261  0.00  0.00    +0.000 N 
ATOM      6  C   UNL     1       1.996   7.951  17.885  0.00  0.00    +0.000 C 
ATOM      7  C   UNL     1       1.778   9.468  17.917  0.00  0.00    +0.000 C 
ATOM      8  C   UNL     1       1.332   9.690  19.327  0.00  0.00    +0.000 A 
ATOM      9  C   UNL     1       0.924  10.886  19.899  0.00  0.00    +0.000 A 
ATOM     10  C   UNL     1       0.612  10.894  21.259  0.00  0.00    +0.000 A 
ATOM     11  C   UNL     1       0.722   9.723  22.022  0.00  0.00    +0.000 A 
ATOM     12  C   UNL     1       1.128   8.520  21.432  0.00  0.00    +0.000 A 
ATOM     13  C   UNL     1       1.419   8.515  20.078  0.00  0.00    +0.000 A 
ENDBRANCH   2   3
BRANCH   2  14
ATOM     14  C   UNL     1       3.930   4.727  18.628  0.00  0.00    +0.000 A 
ATOM     15  C   UNL     1       4.362   3.483  19.050  0.00  0.00    +0.000 A 
ATOM     16  N   UNL     1       5.728   3.437  18.945  0.00  0.00    +0.000 N 
ATOM     17  C   UNL     1       6.209   4.633  18.464  0.00  0.00    +0.000 A 
ATOM     18  C   UNL     1       7.528   5.039  18.214  0.00  0.00    +0.000 A 
ATOM     19  C   UNL     1       7.724   6.335  17.728  0.00  0.00    +0.000 A 
ATOM     20  C   UNL     1       6.642   7.174  17.502  0.00  0.00    +0.000 A 
ATOM     21  F   UNL     1       6.860   8.411  17.038  0.00  0.00    +0.000 F 
ATOM     22  C   UNL     1       5.333   6.762  17.749  0.00  0.00    +0.000 A 
ATOM     23  C   UNL     1       5.104   5.461  18.247  0.00  0.00    +0.000 A 
ATOM     24  H   UNL     1       6.308   2.646  19.194  0.00  0.00    +0.000 HD
ENDBRANCH   2  14
TORSDOF 2
ENDMDL
MODEL 3
REMARK VINA RESULT:      -7.8      2.537      3.525
REMARK  Name = 
REMARK  2 active torsions:
REMARK  status: ('A' for Active; 'I' for Inactive)
REMARK    1  A    between atoms: C_2  and  C_3
REMARK    2  A    between atoms: C_2  and  C_14
REMARK                            x       y       z     vdW  Elec       q    Type
REMARK                         _______ _______ _______ _____ _____    ______ ____
ROOT
ATOM      1  O   UNL     1       2.209   8.682  17.343  0.00  0.00    +0.000 OA
ATOM      2  C   UNL     1       2.479   7.820  18.179  0.00  0.00    +0.000 C 
ENDROOT
BRANCH   2   3
ATOM      3  C   UNL     1       1.895   8.005  19.579  0.00  0.00    +0.000 C 
ATOM      4  O   UNL     1       2.185   7.179  20.436  0.00  0.00    +0.000 OA
ATOM      5  N   UNL     1       1.083   9.120  19.735  0.00  0.00    +0.000 N 
ATOM      6  C   UNL     1       0.642  10.006  18.645  0.00  0.00    +0.000 C 
ATOM      7  C   UNL     1      -0.186  11.133  19.274  0.00  0.00    +0.000 C 
ATOM      8  C   UNL     1      -0.290  10.687  20.697  0.00  0.00    +0.000 A 
ATOM      9  C   UNL     1      -1.001  11.299  21.718  0.00  0.00    +0.000 A 
ATOM     10  C   UNL     1      -0.912  10.760  23.001  0.00  0.00    +0.000 A 
ATOM     11  C   UNL     1      -0.112   9.634  23.246  0.00  0.00    +0.000 A 
ATOM     12  C   UNL     1       0.596   9.020  22.206  0.00  0.00    +0.000 A 
ATOM     13  C   UNL     1       0.488   9.550  20.932  0.00  0.00    +0.000 A 
ENDBRANCH   2   3
BRANCH   2  14
ATOM     14  C   UNL     1       3.290   6.644  17.858  0.00  0.00    +0.000 A 
ATOM     15  C   UNL     1       4.613   6.644  17.454  0.00  0.00    +0.000 A 
ATOM     16  N   UNL     1       5.007   5.346  17.254  0.00  0.00    +0.000 N 
ATOM     17  C   UNL     1       3.966   4.487  17.515  0.00  0.00    +0.000 A 
ATOM     18  C   UNL     1       3.908   3.088  17.429  0.00  0.00    +0.000 A 
ATOM     19  C   UNL     1       2.696   2.470  17.749  0.00  0.00    +0.000 A 
ATOM     20  C   UNL     1       1.602   3.227  18.142  0.00  0.00    +0.000 A 
ATOM     21  F   UNL     1       0.452   2.608  18.443  0.00  0.00    +0.000 F 
ATOM     22  C   UNL     1       1.667   4.618  18.229  0.00  0.00    +0.000 A 
ATOM     23  C   UNL     1       2.876   5.270  17.905  0.00  0.00    +0.000 A 
ATOM     24  H   UNL     1       5.927   5.055  16.947  0.00  0.00    +0.000 HD
ENDBRANCH   2  14
TORSDOF 2
ENDMDL
MODEL 4
REMARK VINA RESULT:      -7.8      1.428      2.205
REMARK  Name = 
REMARK  2 active torsions:
REMARK  status: ('A' for Active; 'I' for Inactive)
REMARK    1  A    between atoms: C_2  and  C_3
REMARK    2  A    between atoms: C_2  and  C_14
REMARK                            x       y       z     vdW  Elec       q    Type
REMARK                         _______ _______ _______ _____ _____    ______ ____
ROOT
ATOM      1  O   UNL     1       1.830   5.262  18.013  0.00  0.00    +0.000 OA
ATOM      2  C   UNL     1       2.775   6.040  18.134  0.00  0.00    +0.000 C 
ENDROOT
BRANCH   2   3
ATOM      3  C   UNL     1       2.455   7.534  18.083  0.00  0.00    +0.000 C 
ATOM      4  O   UNL     1       2.726   8.144  17.055  0.00  0.00    +0.000 OA
ATOM      5  N   UNL     1       1.871   8.049  19.231  0.00  0.00    +0.000 N 
ATOM      6  C   UNL     1       1.695   7.315  20.496  0.00  0.00    +0.000 C 
ATOM      7  C   UNL     1       0.960   8.244  21.469  0.00  0.00    +0.000 C 
ATOM      8  C   UNL     1       0.925   9.530  20.707  0.00  0.00    +0.000 A 
ATOM      9  C   UNL     1       0.432  10.751  21.145  0.00  0.00    +0.000 A 
ATOM     10  C   UNL     1       0.428  11.820  20.250  0.00  0.00    +0.000 A 
ATOM     11  C   UNL     1       0.899  11.653  18.939  0.00  0.00    +0.000 A 
ATOM     12  C   UNL     1       1.400  10.418  18.511  0.00  0.00    +0.000 A 
ATOM     13  C   UNL     1       1.418   9.367  19.411  0.00  0.00    +0.000 A 
ENDBRANCH   2   3
BRANCH   2  14
ATOM     14  C   UNL     1       4.147   5.578  18.356  0.00  0.00    +0.000 A 
ATOM     15  C   UNL     1       4.739   5.320  19.579  0.00  0.00    +0.000 A 
ATOM     16  N   UNL     1       6.028   4.906  19.360  0.00  0.00    +0.000 N 
ATOM     17  C   UNL     1       6.300   4.890  18.011  0.00  0.00    +0.000 A 
ATOM     18  C   UNL     1       7.481   4.553  17.334  0.00  0.00    +0.000 A 
ATOM     19  C   UNL     1       7.474   4.638  15.940  0.00  0.00    +0.000 A 
ATOM     20  C   UNL     1       6.329   5.038  15.265  0.00  0.00    +0.000 A 
ATOM     21  F   UNL     1       6.351   5.112  13.927  0.00  0.00    +0.000 F 
ATOM     22  C   UNL     1       5.157   5.368  15.944  0.00  0.00    +0.000 A 
ATOM     23  C   UNL     1       5.136   5.298  17.354  0.00  0.00    +0.000 A 
ATOM     24  H   UNL     1       6.693   4.658  20.081  0.00  0.00    +0.000 HD
ENDBRANCH   2  14
TORSDOF 2
ENDMDL
MODEL 5
REMARK VINA RESULT:      -7.5      3.925      7.904
REMARK  Name = 
REMARK  2 active torsions:
REMARK  status: ('A' for Active; 'I' for Inactive)
REMARK    1  A    between atoms: C_2  and  C_3
REMARK    2  A    between atoms: C_2  and  C_14
REMARK                            x       y       z     vdW  Elec       q    Type
REMARK                         _______ _______ _______ _____ _____    ______ ____
ROOT
ATOM      1  O   UNL     1       1.383  11.951  20.389  0.00  0.00    +0.000 OA
ATOM      2  C   UNL     1       0.458  11.140  20.364  0.00  0.00    +0.000 C 
ENDROOT
BRANCH   2   3
ATOM      3  C   UNL     1       0.799   9.690  20.705  0.00  0.00    +0.000 C 
ATOM      4  O   UNL     1       0.493   9.274  21.817  0.00  0.00    +0.000 OA
ATOM      5  N   UNL     1       1.426   8.980  19.691  0.00  0.00    +0.000 N 
ATOM      6  C   UNL     1       1.905   9.556  18.424  0.00  0.00    +0.000 C 
ATOM      7  C   UNL     1       2.478   8.409  17.583  0.00  0.00    +0.000 C 
ATOM      8  C   UNL     1       2.425   7.263  18.542  0.00  0.00    +0.000 A 
ATOM      9  C   UNL     1       2.891   5.973  18.333  0.00  0.00    +0.000 A 
ATOM     10  C   UNL     1       2.683   5.026  19.335  0.00  0.00    +0.000 A 
ATOM     11  C   UNL     1       2.008   5.374  20.515  0.00  0.00    +0.000 A 
ATOM     12  C   UNL     1       1.549   6.681  20.717  0.00  0.00    +0.000 A 
ATOM     13  C   UNL     1       1.775   7.620  19.726  0.00  0.00    +0.000 A 
ENDBRANCH   2   3
BRANCH   2  14
ATOM     14  C   UNL     1      -0.920  11.533  20.064  0.00  0.00    +0.000 A 
ATOM     15  C   UNL     1      -1.725  12.358  20.829  0.00  0.00    +0.000 A 
ATOM     16  N   UNL     1      -2.941  12.479  20.207  0.00  0.00    +0.000 N 
ATOM     17  C   UNL     1      -2.956  11.745  19.044  0.00  0.00    +0.000 A 
ATOM     18  C   UNL     1      -3.982  11.565  18.105  0.00  0.00    +0.000 A 
ATOM     19  C   UNL     1      -3.716  10.744  17.006  0.00  0.00    +0.000 A 
ATOM     20  C   UNL     1      -2.474  10.141  16.862  0.00  0.00    +0.000 A 
ATOM     21  F   UNL     1      -2.247   9.358  15.799  0.00  0.00    +0.000 F 
ATOM     22  C   UNL     1      -1.457  10.328  17.797  0.00  0.00    +0.000 A 
ATOM     23  C   UNL     1      -1.699  11.146  18.921  0.00  0.00    +0.000 A 
ATOM     24  H   UNL     1      -3.724  13.020  20.553  0.00  0.00    +0.000 HD
ENDBRANCH   2  14
TORSDOF 2
ENDMDL
MODEL 6
REMARK VINA RESULT:      -7.4      2.172      3.059
REMARK  Name = 
REMARK  2 active torsions:
REMARK  status: ('A' for Active; 'I' for Inactive)
REMARK    1  A    between atoms: C_2  and  C_3
REMARK    2  A    between atoms: C_2  and  C_14
REMARK                            x       y       z     vdW  Elec       q    Type
REMARK                         _______ _______ _______ _____ _____    ______ ____
ROOT
ATOM      1  O   UNL     1       2.450   8.713  17.510  0.00  0.00    +0.000 OA
ATOM      2  C   UNL     1       2.412   7.760  18.287  0.00  0.00    +0.000 C 
ENDROOT
BRANCH   2   3
ATOM      3  C   UNL     1       1.784   8.009  19.658  0.00  0.00    +0.000 C 
ATOM      4  O   UNL     1       2.014   7.200  20.550  0.00  0.00    +0.000 OA
ATOM      5  N   UNL     1       1.009   9.155  19.750  0.00  0.00    +0.000 N 
ATOM      6  C   UNL     1       0.640  10.022  18.619  0.00  0.00    +0.000 C 
ATOM      7  C   UNL     1      -0.170  11.196  19.183  0.00  0.00    +0.000 C 
ATOM      8  C   UNL     1      -0.342  10.798  20.614  0.00  0.00    +0.000 A 
ATOM      9  C   UNL     1      -1.067  11.467  21.589  0.00  0.00    +0.000 A 
ATOM     10  C   UNL     1      -1.044  10.964  22.890  0.00  0.00    +0.000 A 
ATOM     11  C   UNL     1      -0.294   9.819  23.198  0.00  0.00    +0.000 A 
ATOM     12  C   UNL     1       0.428   9.149  22.204  0.00  0.00    +0.000 A 
ATOM     13  C   UNL     1       0.386   9.643  20.911  0.00  0.00    +0.000 A 
ENDBRANCH   2   3
BRANCH   2  14
ATOM     14  C   UNL     1       2.906   6.431  17.922  0.00  0.00    +0.000 A 
ATOM     15  C   UNL     1       2.174   5.257  17.911  0.00  0.00    +0.000 A 
ATOM     16  N   UNL     1       2.996   4.235  17.511  0.00  0.00    +0.000 N 
ATOM     17  C   UNL     1       4.262   4.712  17.261  0.00  0.00    +0.000 A 
ATOM     18  C   UNL     1       5.417   4.031  16.850  0.00  0.00    +0.000 A 
ATOM     19  C   UNL     1       6.584   4.781  16.681  0.00  0.00    +0.000 A 
ATOM     20  C   UNL     1       6.581   6.149  16.911  0.00  0.00    +0.000 A 
ATOM     21  F   UNL     1       7.715   6.843  16.742  0.00  0.00    +0.000 F 
ATOM     22  C   UNL     1       5.428   6.821  17.316  0.00  0.00    +0.000 A 
ATOM     23  C   UNL     1       4.236   6.089  17.501  0.00  0.00    +0.000 A 
ATOM     24  H   UNL     1       2.722   3.265  17.422  0.00  0.00    +0.000 HD
ENDBRANCH   2  14
TORSDOF 2
ENDMDL
MODEL 7
REMARK VINA RESULT:      -7.4      5.240      9.680
REMARK  Name = 
REMARK  2 active torsions:
REMARK  status: ('A' for Active; 'I' for Inactive)
REMARK    1  A    between atoms: C_2  and  C_3
REMARK    2  A    between atoms: C_2  and  C_14
REMARK                            x       y       z     vdW  Elec       q    Type
REMARK                         _______ _______ _______ _____ _____    ______ ____
ROOT
ATOM      1  O   UNL     1       1.046  12.817  21.472  0.00  0.00    +0.000 OA
ATOM      2  C   UNL     1       0.198  11.966  21.207  0.00  0.00    +0.000 C 
ENDROOT
BRANCH   2   3
ATOM      3  C   UNL     1       0.626  10.503  21.316  0.00  0.00    +0.000 C 
ATOM      4  O   UNL     1       0.505   9.949  22.403  0.00  0.00    +0.000 OA
ATOM      5  N   UNL     1       1.111   9.943  20.144  0.00  0.00    +0.000 N 
ATOM      6  C   UNL     1       1.376  10.682  18.898  0.00  0.00    +0.000 C 
ATOM      7  C   UNL     1       1.845   9.666  17.850  0.00  0.00    +0.000 C 
ATOM      8  C   UNL     1       1.970   8.416  18.661  0.00  0.00    +0.000 A 
ATOM      9  C   UNL     1       2.434   7.181  18.232  0.00  0.00    +0.000 A 
ATOM     10  C   UNL     1       2.407   6.117  19.133  0.00  0.00    +0.000 A 
ATOM     11  C   UNL     1       1.911   6.297  20.433  0.00  0.00    +0.000 A 
ATOM     12  C   UNL     1       1.452   7.549  20.856  0.00  0.00    +0.000 A 
ATOM     13  C   UNL     1       1.499   8.605  19.962  0.00  0.00    +0.000 A 
ENDBRANCH   2   3
BRANCH   2  14
ATOM     14  C   UNL     1      -1.175  12.317  20.839  0.00  0.00    +0.000 A 
ATOM     15  C   UNL     1      -1.640  12.593  19.566  0.00  0.00    +0.000 A 
ATOM     16  N   UNL     1      -2.979  12.874  19.642  0.00  0.00    +0.000 N 
ATOM     17  C   UNL     1      -3.409  12.794  20.947  0.00  0.00    +0.000 A 
ATOM     18  C   UNL     1      -4.683  13.014  21.491  0.00  0.00    +0.000 A 
ATOM     19  C   UNL     1      -4.829  12.868  22.873  0.00  0.00    +0.000 A 
ATOM     20  C   UNL     1      -3.744  12.512  23.662  0.00  0.00    +0.000 A 
ATOM     21  F   UNL     1      -3.913  12.380  24.985  0.00  0.00    +0.000 F 
ATOM     22  C   UNL     1      -2.482  12.290  23.113  0.00  0.00    +0.000 A 
ATOM     23  C   UNL     1      -2.302  12.437  21.721  0.00  0.00    +0.000 A 
ATOM     24  H   UNL     1      -3.571  13.119  18.858  0.00  0.00    +0.000 HD
ENDBRANCH   2  14
TORSDOF 2
ENDMDL
MODEL 8
REMARK VINA RESULT:      -7.4      2.033      6.261
REMARK  Name = 
REMARK  2 active torsions:
REMARK  status: ('A' for Active; 'I' for Inactive)
REMARK    1  A    between atoms: C_2  and  C_3
REMARK    2  A    between atoms: C_2  and  C_14
REMARK                            x       y       z     vdW  Elec       q    Type
REMARK                         _______ _______ _______ _____ _____    ______ ____
ROOT
ATOM      1  O   UNL     1       4.631   2.544  20.030  0.00  0.00    +0.000 OA
ATOM      2  C   UNL     1       4.075   3.411  19.357  0.00  0.00    +0.000 C 
ENDROOT
BRANCH   2   3
ATOM      3  C   UNL     1       4.269   3.342  17.842  0.00  0.00    +0.000 C 
ATOM      4  O   UNL     1       3.439   2.724  17.185  0.00  0.00    +0.000 OA
ATOM      5  N   UNL     1       5.386   4.009  17.362  0.00  0.00    +0.000 N 
ATOM      6  C   UNL     1       6.435   4.616  18.197  0.00  0.00    +0.000 C 
ATOM      7  C   UNL     1       7.441   5.291  17.257  0.00  0.00    +0.000 C 
ATOM      8  C   UNL     1       6.952   4.855  15.913  0.00  0.00    +0.000 A 
ATOM      9  C   UNL     1       7.536   5.117  14.682  0.00  0.00    +0.000 A 
ATOM     10  C   UNL     1       6.881   4.677  13.533  0.00  0.00    +0.000 A 
ATOM     11  C   UNL     1       5.657   3.998  13.627  0.00  0.00    +0.000 A 
ATOM     12  C   UNL     1       5.080   3.733  14.875  0.00  0.00    +0.000 A 
ATOM     13  C   UNL     1       5.746   4.157  16.012  0.00  0.00    +0.000 A 
ENDBRANCH   2   3
BRANCH   2  14
ATOM     14  C   UNL     1       3.231   4.446  19.956  0.00  0.00    +0.000 A 
ATOM     15  C   UNL     1       2.559   4.363  21.162  0.00  0.00    +0.000 A 
ATOM     16  N   UNL     1       1.883   5.538  21.366  0.00  0.00    +0.000 N 
ATOM     17  C   UNL     1       2.092   6.397  20.313  0.00  0.00    +0.000 A 
ATOM     18  C   UNL     1       1.593   7.689  20.090  0.00  0.00    +0.000 A 
ATOM     19  C   UNL     1       1.971   8.333  18.909  0.00  0.00    +0.000 A 
ATOM     20  C   UNL     1       2.816   7.706  18.004  0.00  0.00    +0.000 A 
ATOM     21  F   UNL     1       3.162   8.347  16.879  0.00  0.00    +0.000 F 
ATOM     22  C   UNL     1       3.312   6.423  18.234  0.00  0.00    +0.000 A 
ATOM     23  C   UNL     1       2.942   5.745  19.415  0.00  0.00    +0.000 A 
ATOM     24  H   UNL     1       1.301   5.747  22.168  0.00  0.00    +0.000 HD
ENDBRANCH   2  14
TORSDOF 2
ENDMDL
MODEL 9
REMARK VINA RESULT:      -7.4      4.029      5.829
REMARK  Name = 
REMARK  2 active torsions:
REMARK  status: ('A' for Active; 'I' for Inactive)
REMARK    1  A    between atoms: C_2  and  C_3
REMARK    2  A    between atoms: C_2  and  C_14
REMARK                            x       y       z     vdW  Elec       q    Type
REMARK                         _______ _______ _______ _____ _____    ______ ____
ROOT
ATOM      1  O   UNL     1       1.622  11.162  18.539  0.00  0.00    +0.000 OA
ATOM      2  C   UNL     1       0.875  10.477  19.236  0.00  0.00    +0.000 C 
ENDROOT
BRANCH   2   3
ATOM      3  C   UNL     1      -0.512  11.047  19.533  0.00  0.00    +0.000 C 
ATOM      4  O   UNL     1      -0.667  11.666  20.579  0.00  0.00    +0.000 OA
ATOM      5  N   UNL     1      -1.469  10.802  18.559  0.00  0.00    +0.000 N 
ATOM      6  C   UNL     1      -1.282   9.932  17.386  0.00  0.00    +0.000 C 
ATOM      7  C   UNL     1      -2.568   9.998  16.553  0.00  0.00    +0.000 C 
ATOM      8  C   UNL     1      -3.471  10.797  17.436  0.00  0.00    +0.000 A 
ATOM      9  C   UNL     1      -4.804  11.107  17.211  0.00  0.00    +0.000 A 
ATOM     10  C   UNL     1      -5.455  11.929  18.130  0.00  0.00    +0.000 A 
ATOM     11  C   UNL     1      -4.769  12.434  19.245  0.00  0.00    +0.000 A 
ATOM     12  C   UNL     1      -3.426  12.108  19.465  0.00  0.00    +0.000 A 
ATOM     13  C   UNL     1      -2.791  11.277  18.558  0.00  0.00    +0.000 A 
ENDBRANCH   2   3
BRANCH   2  14
ATOM     14  C   UNL     1       1.262   9.157  19.738  0.00  0.00    +0.000 A 
ATOM     15  C   UNL     1       0.879   8.590  20.940  0.00  0.00    +0.000 A 
ATOM     16  N   UNL     1       1.451   7.348  21.037  0.00  0.00    +0.000 N 
ATOM     17  C   UNL     1       2.210   7.084  19.920  0.00  0.00    +0.000 A 
ATOM     18  C   UNL     1       2.978   5.955  19.599  0.00  0.00    +0.000 A 
ATOM     19  C   UNL     1       3.663   5.966  18.381  0.00  0.00    +0.000 A 
ATOM     20  C   UNL     1       3.571   7.058  17.530  0.00  0.00    +0.000 A 
ATOM     21  F   UNL     1       4.239   7.042  16.369  0.00  0.00    +0.000 F 
ATOM     22  C   UNL     1       2.802   8.176  17.855  0.00  0.00    +0.000 A 
ATOM     23  C   UNL     1       2.105   8.197  19.082  0.00  0.00    +0.000 A 
ATOM     24  H   UNL     1       1.345   6.714  21.820  0.00  0.00    +0.000 HD
ENDBRANCH   2  14
TORSDOF 2
ENDMDL
