MODEL 1
REMARK VINA RESULT:      -7.4      0.000      0.000
REMARK  Name = 
REMARK  7 active torsions:
REMARK  status: ('A' for Active; 'I' for Inactive)
REMARK    1  A    between atoms: C_1  and  C_2
REMARK    2  A    between atoms: C_2  and  S_3
REMARK    3  A    between atoms: S_3  and  C_4
REMARK    4  A    between atoms: C_8  and  C_9
REMARK    5  A    between atoms: C_12  and  O_13
REMARK    6  A    between atoms: O_13  and  C_14
REMARK    7  A    between atoms: C_14  and  C_15
REMARK                            x       y       z     vdW  Elec       q    Type
REMARK                         _______ _______ _______ _____ _____    ______ ____
ROOT
ATOM      1  C   UNL     1       2.837   4.514  18.018  0.00  0.00    +0.000 A 
ATOM      2  N   UNL     1       3.940   4.612  17.257  0.00  0.00    +0.000 NA
ATOM      3  C   UNL     1       4.464   5.827  17.089  0.00  0.00    +0.000 A 
ATOM      4  N   UNL     1       5.609   6.021  16.309  0.00  0.00    +0.000 N 
ATOM      5  C   UNL     1       6.368   5.178  15.559  0.00  0.00    +0.000 C 
ATOM      6  C   UNL     1       6.097   3.709  15.400  0.00  0.00    +0.000 C 
ATOM      7  O   UNL     1       7.334   5.680  14.967  0.00  0.00    +0.000 OA
ATOM      8  C   UNL     1       3.913   6.944  17.680  0.00  0.00    +0.000 A 
ATOM      9  C   UNL     1       2.754   6.747  18.392  0.00  0.00    +0.000 A 
ATOM     10  N   UNL     1       2.197   5.545  18.582  0.00  0.00    +0.000 NA
ATOM     11  H   UNL     1       5.965   6.964  16.249  0.00  0.00    +0.000 HD
ENDROOT
BRANCH   1  12
ATOM     12  S   UNL     1       2.185   2.893  18.340  0.00  0.00    +0.000 S 
BRANCH  12  14
ATOM     13  C   UNL     1       1.341   2.897  20.960  0.00  0.00    +0.000 C 
ATOM     14  C   UNL     1       0.922   3.340  19.571  0.00  0.00    +0.000 C 
ENDBRANCH  12  14
ENDBRANCH   1  12
BRANCH   9  15
ATOM     15  O   UNL     1       2.184   7.861  18.978  0.00  0.00    +0.000 OA
BRANCH  15  16
ATOM     16  C   UNL     1       1.850   7.638  20.352  0.00  0.00    +0.000 C 
BRANCH  16  17
ATOM     17  C   UNL     1       1.014   8.788  20.873  0.00  0.00    +0.000 A 
ATOM     18  C   UNL     1       0.436   9.715  19.992  0.00  0.00    +0.000 A 
ATOM     19  C   UNL     1      -0.386  10.738  20.473  0.00  0.00    +0.000 A 
ATOM     20  C   UNL     1      -0.638  10.842  21.839  0.00  0.00    +0.000 A 
ATOM     21 CL   UNL     1      -1.664  12.092  22.429  0.00  0.00    +0.000 Cl
ATOM     22  C   UNL     1      -0.067   9.935  22.729  0.00  0.00    +0.000 A 
ATOM     23  C   UNL     1       0.755   8.912  22.248  0.00  0.00    +0.000 A 
ENDBRANCH  16  17
ENDBRANCH  15  16
ENDBRANCH   9  15
TORSDOF 5
ENDMDL
MODEL 2
REMARK VINA RESULT:      -7.4      1.420      1.880
REMARK  Name = 
REMARK  7 active torsions:
REMARK  status: ('A' for Active; 'I' for Inactive)
REMARK    1  A    between atoms: C_1  and  C_2
REMARK    2  A    between atoms: C_2  and  S_3
REMARK    3  A    between atoms: S_3  and  C_4
REMARK    4  A    between atoms: C_8  and  C_9
REMARK    5  A    between atoms: C_12  and  O_13
REMARK    6  A    between atoms: O_13  and  C_14
REMARK    7  A    between atoms: C_14  and  C_15
REMARK                            x       y       z     vdW  Elec       q    Type
REMARK                         _______ _______ _______ _____ _____    ______ ____
ROOT
ATOM      1  C   UNL     1       2.816   4.663  17.939  0.00  0.00    +0.000 A 
ATOM      2  N   UNL     1       3.937   4.714  17.199  0.00  0.00    +0.000 NA
ATOM      3  C   UNL     1       4.509   5.907  17.033  0.00  0.00    +0.000 A 
ATOM      4  N   UNL     1       5.676   6.053  16.275  0.00  0.00    +0.000 N 
ATOM      5  C   UNL     1       6.417   5.177  15.546  0.00  0.00    +0.000 C 
ATOM      6  C   UNL     1       6.095   3.717  15.391  0.00  0.00    +0.000 C 
ATOM      7  O   UNL     1       7.413   5.637  14.970  0.00  0.00    +0.000 OA
ATOM      8  C   UNL     1       3.989   7.049  17.605  0.00  0.00    +0.000 A 
ATOM      9  C   UNL     1       2.810   6.900  18.296  0.00  0.00    +0.000 A 
ATOM     10  N   UNL     1       2.205   5.722  18.483  0.00  0.00    +0.000 NA
ATOM     11  H   UNL     1       6.068   6.982  16.215  0.00  0.00    +0.000 HD
ENDROOT
BRANCH   1  12
ATOM     12  S   UNL     1       2.098   3.071  18.259  0.00  0.00    +0.000 S 
BRANCH  12  14
ATOM     13  C   UNL     1       1.453   2.985  20.933  0.00  0.00    +0.000 C 
ATOM     14  C   UNL     1       0.970   3.539  19.607  0.00  0.00    +0.000 C 
ENDBRANCH  12  14
ENDBRANCH   1  12
BRANCH   9  15
ATOM     15  O   UNL     1       2.270   8.040  18.863  0.00  0.00    +0.000 OA
BRANCH  15  16
ATOM     16  C   UNL     1       1.830   8.978  17.876  0.00  0.00    +0.000 C 
BRANCH  16  17
ATOM     17  C   UNL     1       0.678   9.796  18.419  0.00  0.00    +0.000 A 
ATOM     18  C   UNL     1       0.846  10.617  19.546  0.00  0.00    +0.000 A 
ATOM     19  C   UNL     1      -0.202  11.418  20.006  0.00  0.00    +0.000 A 
ATOM     20  C   UNL     1      -1.428  11.406  19.344  0.00  0.00    +0.000 A 
ATOM     21 CL   UNL     1      -2.714  12.405  19.902  0.00  0.00    +0.000 Cl
ATOM     22  C   UNL     1      -1.616  10.592  18.229  0.00  0.00    +0.000 A 
ATOM     23  C   UNL     1      -0.567   9.790  17.768  0.00  0.00    +0.000 A 
ENDBRANCH  16  17
ENDBRANCH  15  16
ENDBRANCH   9  15
TORSDOF 5
ENDMDL
MODEL 3
REMARK VINA RESULT:      -7.3      0.379      1.100
REMARK  Name = 
REMARK  7 active torsions:
REMARK  status: ('A' for Active; 'I' for Inactive)
REMARK    1  A    between atoms: C_1  and  C_2
REMARK    2  A    between atoms: C_2  and  S_3
REMARK    3  A    between atoms: S_3  and  C_4
REMARK    4  A    between atoms: C_8  and  C_9
REMARK    5  A    between atoms: C_12  and  O_13
REMARK    6  A    between atoms: O_13  and  C_14
REMARK    7  A    between atoms: C_14  and  C_15
REMARK                            x       y       z     vdW  Elec       q    Type
REMARK                         _______ _______ _______ _____ _____    ______ ____
ROOT
ATOM      1  C   UNL     1       2.717   4.601  17.920  0.00  0.00    +0.000 A 
ATOM      2  N   UNL     1       3.861   4.689  17.221  0.00  0.00    +0.000 NA
ATOM      3  C   UNL     1       4.433   5.890  17.128  0.00  0.00    +0.000 A 
ATOM      4  N   UNL     1       5.624   6.073  16.416  0.00  0.00    +0.000 N 
ATOM      5  C   UNL     1       6.392   5.233  15.675  0.00  0.00    +0.000 C 
ATOM      6  C   UNL     1       6.082   3.780  15.444  0.00  0.00    +0.000 C 
ATOM      7  O   UNL     1       7.405   5.722  15.153  0.00  0.00    +0.000 OA
ATOM      8  C   UNL     1       3.888   7.003  17.732  0.00  0.00    +0.000 A 
ATOM      9  C   UNL     1       2.688   6.820  18.376  0.00  0.00    +0.000 A 
ATOM     10  N   UNL     1       2.083   5.632  18.491  0.00  0.00    +0.000 NA
ATOM     11  H   UNL     1       6.013   7.005  16.411  0.00  0.00    +0.000 HD
ENDROOT
BRANCH   1  12
ATOM     12  S   UNL     1       1.995   2.994  18.145  0.00  0.00    +0.000 S 
BRANCH  12  14
ATOM     13  C   UNL     1       1.263   2.970  20.798  0.00  0.00    +0.000 C 
ATOM     14  C   UNL     1       2.449   2.725  19.886  0.00  0.00    +0.000 C 
ENDBRANCH  12  14
ENDBRANCH   1  12
BRANCH   9  15
ATOM     15  O   UNL     1       2.124   7.932  18.975  0.00  0.00    +0.000 OA
BRANCH  15  16
ATOM     16  C   UNL     1       1.835   7.711  20.360  0.00  0.00    +0.000 C 
BRANCH  16  17
ATOM     17  C   UNL     1       0.984   8.843  20.895  0.00  0.00    +0.000 A 
ATOM     18  C   UNL     1       0.608   8.884  22.247  0.00  0.00    +0.000 A 
ATOM     19  C   UNL     1      -0.124   9.962  22.751  0.00  0.00    +0.000 A 
ATOM     20  C   UNL     1      -0.487  11.009  21.906  0.00  0.00    +0.000 A 
ATOM     21 CL   UNL     1      -1.376  12.345  22.531  0.00  0.00    +0.000 Cl
ATOM     22  C   UNL     1      -0.130  10.982  20.560  0.00  0.00    +0.000 A 
ATOM     23  C   UNL     1       0.603   9.903  20.056  0.00  0.00    +0.000 A 
ENDBRANCH  16  17
ENDBRANCH  15  16
ENDBRANCH   9  15
TORSDOF 5
ENDMDL
MODEL 4
REMARK VINA RESULT:      -7.3      1.152      1.588
REMARK  Name = 
REMARK  7 active torsions:
REMARK  status: ('A' for Active; 'I' for Inactive)
REMARK    1  A    between atoms: C_1  and  C_2
REMARK    2  A    between atoms: C_2  and  S_3
REMARK    3  A    between atoms: S_3  and  C_4
REMARK    4  A    between atoms: C_8  and  C_9
REMARK    5  A    between atoms: C_12  and  O_13
REMARK    6  A    between atoms: O_13  and  C_14
REMARK    7  A    between atoms: C_14  and  C_15
REMARK                            x       y       z     vdW  Elec       q    Type
REMARK                         _______ _______ _______ _____ _____    ______ ____
ROOT
ATOM      1  C   UNL     1       3.032   4.836  19.414  0.00  0.00    +0.000 A 
ATOM      2  N   UNL     1       3.812   4.902  18.322  0.00  0.00    +0.000 NA
ATOM      3  C   UNL     1       3.918   6.084  17.714  0.00  0.00    +0.000 A 
ATOM      4  N   UNL     1       4.706   6.242  16.568  0.00  0.00    +0.000 N 
ATOM      5  C   UNL     1       5.427   5.368  15.818  0.00  0.00    +0.000 C 
ATOM      6  C   UNL     1       5.533   3.896  16.099  0.00  0.00    +0.000 C 
ATOM      7  O   UNL     1       6.018   5.837  14.835  0.00  0.00    +0.000 OA
ATOM      8  C   UNL     1       3.270   7.205  18.186  0.00  0.00    +0.000 A 
ATOM      9  C   UNL     1       2.452   7.022  19.276  0.00  0.00    +0.000 A 
ATOM     10  N   UNL     1       2.318   5.852  19.913  0.00  0.00    +0.000 NA
ATOM     11  H   UNL     1       4.761   7.172  16.178  0.00  0.00    +0.000 HD
ENDROOT
BRANCH   1  12
ATOM     12  S   UNL     1       2.961   3.298  20.299  0.00  0.00    +0.000 S 
BRANCH  12  14
ATOM     13  C   UNL     1       0.831   2.489  18.756  0.00  0.00    +0.000 C 
ATOM     14  C   UNL     1       2.311   2.240  18.970  0.00  0.00    +0.000 C 
ENDBRANCH  12  14
ENDBRANCH   1  12
BRANCH   9  15
ATOM     15  O   UNL     1       1.785   8.136  19.751  0.00  0.00    +0.000 OA
BRANCH  15  16
ATOM     16  C   UNL     1       1.252   7.927  21.063  0.00  0.00    +0.000 C 
BRANCH  16  17
ATOM     17  C   UNL     1       0.380   9.100  21.458  0.00  0.00    +0.000 A 
ATOM     18  C   UNL     1      -0.064   9.254  22.781  0.00  0.00    +0.000 A 
ATOM     19  C   UNL     1      -0.816  10.371  23.155  0.00  0.00    +0.000 A 
ATOM     20  C   UNL     1      -1.130  11.345  22.208  0.00  0.00    +0.000 A 
ATOM     21 CL   UNL     1      -2.042  12.728  22.673  0.00  0.00    +0.000 Cl
ATOM     22  C   UNL     1      -0.704  11.205  20.889  0.00  0.00    +0.000 A 
ATOM     23  C   UNL     1       0.048  10.087  20.516  0.00  0.00    +0.000 A 
ENDBRANCH  16  17
ENDBRANCH  15  16
ENDBRANCH   9  15
TORSDOF 5
ENDMDL
MODEL 5
REMARK VINA RESULT:      -7.3      1.338      1.623
REMARK  Name = 
REMARK  7 active torsions:
REMARK  status: ('A' for Active; 'I' for Inactive)
REMARK    1  A    between atoms: C_1  and  C_2
REMARK    2  A    between atoms: C_2  and  S_3
REMARK    3  A    between atoms: S_3  and  C_4
REMARK    4  A    between atoms: C_8  and  C_9
REMARK    5  A    between atoms: C_12  and  O_13
REMARK    6  A    between atoms: O_13  and  C_14
REMARK    7  A    between atoms: C_14  and  C_15
REMARK                            x       y       z     vdW  Elec       q    Type
REMARK                         _______ _______ _______ _____ _____    ______ ____
ROOT
ATOM      1  C   UNL     1       2.809   4.680  17.855  0.00  0.00    +0.000 A 
ATOM      2  N   UNL     1       3.947   4.716  17.143  0.00  0.00    +0.000 NA
ATOM      3  C   UNL     1       4.536   5.903  16.987  0.00  0.00    +0.000 A 
ATOM      4  N   UNL     1       5.722   6.034  16.257  0.00  0.00    +0.000 N 
ATOM      5  C   UNL     1       6.472   5.147  15.550  0.00  0.00    +0.000 C 
ATOM      6  C   UNL     1       6.138   3.691  15.392  0.00  0.00    +0.000 C 
ATOM      7  O   UNL     1       7.486   5.595  14.996  0.00  0.00    +0.000 OA
ATOM      8  C   UNL     1       4.014   7.052  17.543  0.00  0.00    +0.000 A 
ATOM      9  C   UNL     1       2.817   6.918  18.205  0.00  0.00    +0.000 A 
ATOM     10  N   UNL     1       2.195   5.746  18.381  0.00  0.00    +0.000 NA
ATOM     11  H   UNL     1       6.126   6.958  16.204  0.00  0.00    +0.000 HD
ENDROOT
BRANCH   1  12
ATOM     12  S   UNL     1       2.066   3.096  18.163  0.00  0.00    +0.000 S 
BRANCH  12  14
ATOM     13  C   UNL     1       1.252   2.949  20.788  0.00  0.00    +0.000 C 
ATOM     14  C   UNL     1       2.496   2.923  19.922  0.00  0.00    +0.000 C 
ENDBRANCH  12  14
ENDBRANCH   1  12
BRANCH   9  15
ATOM     15  O   UNL     1       2.276   8.065  18.755  0.00  0.00    +0.000 OA
BRANCH  15  16
ATOM     16  C   UNL     1       1.692   8.916  17.763  0.00  0.00    +0.000 C 
BRANCH  16  17
ATOM     17  C   UNL     1       0.658   9.820  18.402  0.00  0.00    +0.000 A 
ATOM     18  C   UNL     1      -0.613   9.977  17.828  0.00  0.00    +0.000 A 
ATOM     19  C   UNL     1      -1.585  10.763  18.455  0.00  0.00    +0.000 A 
ATOM     20  C   UNL     1      -1.293  11.396  19.661  0.00  0.00    +0.000 A 
ATOM     21 CL   UNL     1      -2.495  12.350  20.440  0.00  0.00    +0.000 Cl
ATOM     22  C   UNL     1      -0.034  11.257  20.241  0.00  0.00    +0.000 A 
ATOM     23  C   UNL     1       0.938  10.472  19.614  0.00  0.00    +0.000 A 
ENDBRANCH  16  17
ENDBRANCH  15  16
ENDBRANCH   9  15
TORSDOF 5
ENDMDL
MODEL 6
REMARK VINA RESULT:      -7.2      1.048      1.570
REMARK  Name = 
REMARK  7 active torsions:
REMARK  status: ('A' for Active; 'I' for Inactive)
REMARK    1  A    between atoms: C_1  and  C_2
REMARK    2  A    between atoms: C_2  and  S_3
REMARK    3  A    between atoms: S_3  and  C_4
REMARK    4  A    between atoms: C_8  and  C_9
REMARK    5  A    between atoms: C_12  and  O_13
REMARK    6  A    between atoms: O_13  and  C_14
REMARK    7  A    between atoms: C_14  and  C_15
REMARK                            x       y       z     vdW  Elec       q    Type
REMARK                         _______ _______ _______ _____ _____    ______ ____
ROOT
ATOM      1  C   UNL     1       3.454   4.151  17.358  0.00  0.00    +0.000 A 
ATOM      2  N   UNL     1       4.465   4.317  16.489  0.00  0.00    +0.000 NA
ATOM      3  C   UNL     1       5.078   5.501  16.480  0.00  0.00    +0.000 A 
ATOM      4  N   UNL     1       6.138   5.763  15.604  0.00  0.00    +0.000 N 
ATOM      5  C   UNL     1       6.721   5.030  14.619  0.00  0.00    +0.000 C 
ATOM      6  C   UNL     1       6.297   3.642  14.229  0.00  0.00    +0.000 C 
ATOM      7  O   UNL     1       7.655   5.568  14.006  0.00  0.00    +0.000 OA
ATOM      8  C   UNL     1       4.708   6.518  17.333  0.00  0.00    +0.000 A 
ATOM      9  C   UNL     1       3.626   6.268  18.145  0.00  0.00    +0.000 A 
ATOM     10  N   UNL     1       2.985   5.095  18.182  0.00  0.00    +0.000 NA
ATOM     11  H   UNL     1       6.572   6.672  15.672  0.00  0.00    +0.000 HD
ENDROOT
BRANCH   1  12
ATOM     12  S   UNL     1       2.695   2.548  17.461  0.00  0.00    +0.000 S 
BRANCH  12  14
ATOM     13  C   UNL     1       0.723   2.631  19.378  0.00  0.00    +0.000 C 
ATOM     14  C   UNL     1       2.229   2.572  19.219  0.00  0.00    +0.000 C 
ENDBRANCH  12  14
ENDBRANCH   1  12
BRANCH   9  15
ATOM     15  O   UNL     1       3.236   7.285  18.996  0.00  0.00    +0.000 OA
BRANCH  15  16
ATOM     16  C   UNL     1       2.192   8.088  18.435  0.00  0.00    +0.000 C 
BRANCH  16  17
ATOM     17  C   UNL     1       1.374   8.719  19.542  0.00  0.00    +0.000 A 
ATOM     18  C   UNL     1       1.398   8.192  20.843  0.00  0.00    +0.000 A 
ATOM     19  C   UNL     1       0.691   8.815  21.876  0.00  0.00    +0.000 A 
ATOM     20  C   UNL     1      -0.044   9.969  21.617  0.00  0.00    +0.000 A 
ATOM     21 CL   UNL     1      -0.901  10.744  22.893  0.00  0.00    +0.000 Cl
ATOM     22  C   UNL     1      -0.085  10.502  20.330  0.00  0.00    +0.000 A 
ATOM     23  C   UNL     1       0.622   9.879  19.297  0.00  0.00    +0.000 A 
ENDBRANCH  16  17
ENDBRANCH  15  16
ENDBRANCH   9  15
TORSDOF 5
ENDMDL
MODEL 7
REMARK VINA RESULT:      -7.2      5.782      7.177
REMARK  Name = 
REMARK  7 active torsions:
REMARK  status: ('A' for Active; 'I' for Inactive)
REMARK    1  A    between atoms: C_1  and  C_2
REMARK    2  A    between atoms: C_2  and  S_3
REMARK    3  A    between atoms: S_3  and  C_4
REMARK    4  A    between atoms: C_8  and  C_9
REMARK    5  A    between atoms: C_12  and  O_13
REMARK    6  A    between atoms: O_13  and  C_14
REMARK    7  A    between atoms: C_14  and  C_15
REMARK                            x       y       z     vdW  Elec       q    Type
REMARK                         _______ _______ _______ _____ _____    ______ ____
ROOT
ATOM      1  C   UNL     1       6.069   5.537  16.360  0.00  0.00    +0.000 A 
ATOM      2  N   UNL     1       5.516   4.679  17.234  0.00  0.00    +0.000 NA
ATOM      3  C   UNL     1       5.848   4.812  18.519  0.00  0.00    +0.000 A 
ATOM      4  N   UNL     1       5.322   3.960  19.496  0.00  0.00    +0.000 N 
ATOM      5  C   UNL     1       4.500   2.880  19.431  0.00  0.00    +0.000 C 
ATOM      6  C   UNL     1       3.931   2.322  18.157  0.00  0.00    +0.000 C 
ATOM      7  O   UNL     1       4.224   2.327  20.505  0.00  0.00    +0.000 OA
ATOM      8  C   UNL     1       6.715   5.795  18.948  0.00  0.00    +0.000 A 
ATOM      9  C   UNL     1       7.271   6.585  17.970  0.00  0.00    +0.000 A 
ATOM     10  N   UNL     1       6.963   6.482  16.671  0.00  0.00    +0.000 NA
ATOM     11  H   UNL     1       5.597   4.137  20.452  0.00  0.00    +0.000 HD
ENDROOT
BRANCH   1  12
ATOM     12  S   UNL     1       5.559   5.445  14.661  0.00  0.00    +0.000 S 
BRANCH  12  14
ATOM     13  C   UNL     1       6.130   3.540  12.760  0.00  0.00    +0.000 C 
ATOM     14  C   UNL     1       6.273   3.825  14.242  0.00  0.00    +0.000 C 
ENDBRANCH  12  14
ENDBRANCH   1  12
BRANCH   9  15
ATOM     15  O   UNL     1       8.152   7.566  18.385  0.00  0.00    +0.000 OA
BRANCH  15  16
ATOM     16  C   UNL     1       8.025   8.767  17.617  0.00  0.00    +0.000 C 
BRANCH  16  17
ATOM     17  C   UNL     1       8.671   9.921  18.353  0.00  0.00    +0.000 A 
ATOM     18  C   UNL     1       8.755  11.193  17.766  0.00  0.00    +0.000 A 
ATOM     19  C   UNL     1       9.296  12.270  18.474  0.00  0.00    +0.000 A 
ATOM     20  C   UNL     1       9.757  12.084  19.775  0.00  0.00    +0.000 A 
ATOM     21 CL   UNL     1      10.408  13.415  20.652  0.00  0.00    +0.000 Cl
ATOM     22  C   UNL     1       9.688  10.827  20.372  0.00  0.00    +0.000 A 
ATOM     23  C   UNL     1       9.147   9.750  19.663  0.00  0.00    +0.000 A 
ENDBRANCH  16  17
ENDBRANCH  15  16
ENDBRANCH   9  15
TORSDOF 5
ENDMDL
MODEL 8
REMARK VINA RESULT:      -7.2      5.948      7.576
REMARK  Name = 
REMARK  7 active torsions:
REMARK  status: ('A' for Active; 'I' for Inactive)
REMARK    1  A    between atoms: C_1  and  C_2
REMARK    2  A    between atoms: C_2  and  S_3
REMARK    3  A    between atoms: S_3  and  C_4
REMARK    4  A    between atoms: C_8  and  C_9
REMARK    5  A    between atoms: C_12  and  O_13
REMARK    6  A    between atoms: O_13  and  C_14
REMARK    7  A    between atoms: C_14  and  C_15
REMARK                            x       y       z     vdW  Elec       q    Type
REMARK                         _______ _______ _______ _____ _____    ______ ____
ROOT
ATOM      1  C   UNL     1       6.139   5.583  16.357  0.00  0.00    +0.000 A 
ATOM      2  N   UNL     1       5.571   4.731  17.227  0.00  0.00    +0.000 NA
ATOM      3  C   UNL     1       5.897   4.860  18.514  0.00  0.00    +0.000 A 
ATOM      4  N   UNL     1       5.355   4.012  19.488  0.00  0.00    +0.000 N 
ATOM      5  C   UNL     1       4.523   2.940  19.417  0.00  0.00    +0.000 C 
ATOM      6  C   UNL     1       3.958   2.388  18.138  0.00  0.00    +0.000 C 
ATOM      7  O   UNL     1       4.236   2.389  20.489  0.00  0.00    +0.000 OA
ATOM      8  C   UNL     1       6.769   5.834  18.949  0.00  0.00    +0.000 A 
ATOM      9  C   UNL     1       7.340   6.619  17.975  0.00  0.00    +0.000 A 
ATOM     10  N   UNL     1       7.040   6.520  16.675  0.00  0.00    +0.000 NA
ATOM     11  H   UNL     1       5.626   4.186  20.445  0.00  0.00    +0.000 HD
ENDROOT
BRANCH   1  12
ATOM     12  S   UNL     1       5.639   5.497  14.655  0.00  0.00    +0.000 S 
BRANCH  12  14
ATOM     13  C   UNL     1       6.055   3.513  12.794  0.00  0.00    +0.000 C 
ATOM     14  C   UNL     1       6.315   3.858  14.248  0.00  0.00    +0.000 C 
ENDBRANCH  12  14
ENDBRANCH   1  12
BRANCH   9  15
ATOM     15  O   UNL     1       8.228   7.591  18.397  0.00  0.00    +0.000 OA
BRANCH  15  16
ATOM     16  C   UNL     1       7.936   8.872  17.829  0.00  0.00    +0.000 C 
BRANCH  16  17
ATOM     17  C   UNL     1       8.875   9.915  18.399  0.00  0.00    +0.000 A 
ATOM     18  C   UNL     1       9.067  10.029  19.785  0.00  0.00    +0.000 A 
ATOM     19  C   UNL     1       9.982  10.951  20.303  0.00  0.00    +0.000 A 
ATOM     20  C   UNL     1      10.711  11.765  19.439  0.00  0.00    +0.000 A 
ATOM     21 CL   UNL     1      11.849  12.888  20.077  0.00  0.00    +0.000 Cl
ATOM     22  C   UNL     1      10.528  11.670  18.061  0.00  0.00    +0.000 A 
ATOM     23  C   UNL     1       9.613  10.748  17.543  0.00  0.00    +0.000 A 
ENDBRANCH  16  17
ENDBRANCH  15  16
ENDBRANCH   9  15
TORSDOF 5
ENDMDL
MODEL 9
REMARK VINA RESULT:      -7.2      1.363      1.509
REMARK  Name = 
REMARK  7 active torsions:
REMARK  status: ('A' for Active; 'I' for Inactive)
REMARK    1  A    between atoms: C_1  and  C_2
REMARK    2  A    between atoms: C_2  and  S_3
REMARK    3  A    between atoms: S_3  and  C_4
REMARK    4  A    between atoms: C_8  and  C_9
REMARK    5  A    between atoms: C_12  and  O_13
REMARK    6  A    between atoms: O_13  and  C_14
REMARK    7  A    between atoms: C_14  and  C_15
REMARK                            x       y       z     vdW  Elec       q    Type
REMARK                         _______ _______ _______ _____ _____    ______ ____
ROOT
ATOM      1  C   UNL     1       2.931   4.943  19.396  0.00  0.00    +0.000 A 
ATOM      2  N   UNL     1       3.728   5.004  18.316  0.00  0.00    +0.000 NA
ATOM      3  C   UNL     1       3.856   6.187  17.714  0.00  0.00    +0.000 A 
ATOM      4  N   UNL     1       4.663   6.341  16.580  0.00  0.00    +0.000 N 
ATOM      5  C   UNL     1       5.387   5.462  15.839  0.00  0.00    +0.000 C 
ATOM      6  C   UNL     1       5.474   3.988  16.116  0.00  0.00    +0.000 C 
ATOM      7  O   UNL     1       5.998   5.928  14.866  0.00  0.00    +0.000 OA
ATOM      8  C   UNL     1       3.212   7.314  18.179  0.00  0.00    +0.000 A 
ATOM      9  C   UNL     1       2.376   7.135  19.256  0.00  0.00    +0.000 A 
ATOM     10  N   UNL     1       2.220   5.965  19.886  0.00  0.00    +0.000 NA
ATOM     11  H   UNL     1       4.734   7.271  16.194  0.00  0.00    +0.000 HD
ENDROOT
BRANCH   1  12
ATOM     12  S   UNL     1       2.830   3.402  20.274  0.00  0.00    +0.000 S 
BRANCH  12  14
ATOM     13  C   UNL     1       3.480   1.491  18.405  0.00  0.00    +0.000 C 
ATOM     14  C   UNL     1       4.108   2.480  19.367  0.00  0.00    +0.000 C 
ENDBRANCH  12  14
ENDBRANCH   1  12
BRANCH   9  15
ATOM     15  O   UNL     1       1.713   8.254  19.724  0.00  0.00    +0.000 OA
BRANCH  15  16
ATOM     16  C   UNL     1       1.303   8.108  21.088  0.00  0.00    +0.000 C 
BRANCH  16  17
ATOM     17  C   UNL     1       0.469   9.300  21.507  0.00  0.00    +0.000 A 
ATOM     18  C   UNL     1       0.191  10.337  20.603  0.00  0.00    +0.000 A 
ATOM     19  C   UNL     1      -0.631  11.405  20.975  0.00  0.00    +0.000 A 
ATOM     20  C   UNL     1      -1.183  11.443  22.253  0.00  0.00    +0.000 A 
ATOM     21 CL   UNL     1      -2.208  12.750  22.705  0.00  0.00    +0.000 Cl
ATOM     22  C   UNL     1      -0.912  10.426  23.166  0.00  0.00    +0.000 A 
ATOM     23  C   UNL     1      -0.090   9.358  22.794  0.00  0.00    +0.000 A 
ENDBRANCH  16  17
ENDBRANCH  15  16
ENDBRANCH   9  15
TORSDOF 5
ENDMDL
